MODEL 1
REMARK VINA RESULT:     -10.1      0.000      0.000
REMARK  Name = 119396
REMARK  4 active torsions:
REMARK  status: ('A' for Active; 'I' for Inactive)
REMARK    1  A    between atoms: C_9  and  O_16
REMARK    2  A    between atoms: C_11  and  O_18
REMARK    3  A    between atoms: C_12  and  C_21
REMARK    4  A    between atoms: C_21  and  O_22
REMARK                            x       y       z     vdW  Elec       q    Type
REMARK                         _______ _______ _______ _____ _____    ______ ____
ROOT
ATOM      1  O   UNL     1      32.753 -24.987 -12.894  0.00  0.00    -0.286 OA
ATOM      2  C   UNL     1      33.183 -22.927 -16.494  0.00  0.00    +0.053 C 
ATOM      3  C   UNL     1      31.835 -23.306 -15.944  0.00  0.00    -0.012 C 
ATOM      4  C   UNL     1      34.364 -23.338 -15.660  0.00  0.00    -0.012 C 
ATOM      5  C   UNL     1      31.687 -23.997 -14.736  0.00  0.00    +0.069 C 
ATOM      6  C   UNL     1      34.225 -24.028 -14.450  0.00  0.00    +0.069 C 
ATOM      7  C   UNL     1      32.879 -24.381 -13.950  0.00  0.00    +0.201 C 
ATOM      8  C   UNL     1      30.685 -22.955 -16.667  0.00  0.00    +0.003 C 
ATOM      9  C   UNL     1      30.411 -24.331 -14.262  0.00  0.00    +0.137 C 
ATOM     10  C   UNL     1      35.655 -23.016 -16.110  0.00  0.00    -0.004 C 
ATOM     11  C   UNL     1      35.355 -24.391 -13.705  0.00  0.00    +0.136 C 
ATOM     12  C   UNL     1      29.416 -23.287 -16.195  0.00  0.00    +0.078 C 
ATOM     13  C   UNL     1      29.278 -23.974 -14.992  0.00  0.00    +0.043 C 
ATOM     14  C   UNL     1      36.779 -23.378 -15.367  0.00  0.00    +0.003 C 
ATOM     15  C   UNL     1      36.629 -24.064 -14.166  0.00  0.00    +0.037 C 
ENDROOT
BRANCH   9  16
ATOM     16  O   UNL     1      30.206 -25.000 -13.091  0.00  0.00    -0.505 OA
ATOM     17  H   UNL     1      30.034 -24.524 -12.303  0.00  0.00    +0.292 HD
ENDBRANCH   9  16
BRANCH  11  18
ATOM     18  O   UNL     1      35.280 -25.064 -12.522  0.00  0.00    -0.505 OA
ATOM     19  H   UNL     1      35.148 -24.594 -11.723  0.00  0.00    +0.292 HD
ENDBRANCH  11  18
BRANCH  12  21
ATOM     20  O   UNL     1      27.740 -21.790 -17.031  0.00  0.00    -0.245 OA
ATOM     21  C   UNL     1      28.235 -22.913 -16.958  0.00  0.00    +0.338 C 
BRANCH  21  22
ATOM     22  O   UNL     1      27.697 -23.976 -17.619  0.00  0.00    -0.477 OA
ATOM     23  H   UNL     1      28.091 -24.823 -17.544  0.00  0.00    +0.295 HD
ENDBRANCH  21  22
ENDBRANCH  12  21
TORSDOF 4
ENDMDL
MODEL 2
REMARK VINA RESULT:      -9.8      3.345      6.604
REMARK  Name = 119396
REMARK  4 active torsions:
REMARK  status: ('A' for Active; 'I' for Inactive)
REMARK    1  A    between atoms: C_9  and  O_16
REMARK    2  A    between atoms: C_11  and  O_18
REMARK    3  A    between atoms: C_12  and  C_21
REMARK    4  A    between atoms: C_21  and  O_22
REMARK                            x       y       z     vdW  Elec       q    Type
REMARK                         _______ _______ _______ _____ _____    ______ ____
ROOT
ATOM      1  O   UNL     1      33.188 -23.576 -16.449  0.00  0.00    -0.286 OA
ATOM      2  C   UNL     1      37.131 -22.231 -16.624  0.00  0.00    +0.053 C 
ATOM      3  C   UNL     1      36.600 -23.004 -15.448  0.00  0.00    -0.012 C 
ATOM      4  C   UNL     1      36.148 -21.976 -17.733  0.00  0.00    -0.012 C 
ATOM      5  C   UNL     1      35.278 -23.457 -15.386  0.00  0.00    +0.069 C 
ATOM      6  C   UNL     1      34.824 -22.427 -17.679  0.00  0.00    +0.069 C 
ATOM      7  C   UNL     1      34.346 -23.183 -16.501  0.00  0.00    +0.201 C 
ATOM      8  C   UNL     1      37.461 -23.281 -14.375  0.00  0.00    +0.003 C 
ATOM      9  C   UNL     1      34.825 -24.174 -14.270  0.00  0.00    +0.137 C 
ATOM     10  C   UNL     1      36.573 -21.262 -18.864  0.00  0.00    -0.004 C 
ATOM     11  C   UNL     1      33.942 -22.167 -18.736  0.00  0.00    +0.136 C 
ATOM     12  C   UNL     1      37.011 -23.994 -13.264  0.00  0.00    +0.078 C 
ATOM     13  C   UNL     1      35.694 -24.441 -13.212  0.00  0.00    +0.043 C 
ATOM     14  C   UNL     1      35.695 -21.003 -19.916  0.00  0.00    +0.003 C 
ATOM     15  C   UNL     1      34.381 -21.456 -19.852  0.00  0.00    +0.037 C 
ENDROOT
BRANCH   9  16
ATOM     16  O   UNL     1      33.550 -24.643 -14.156  0.00  0.00    -0.505 OA
ATOM     17  H   UNL     1      32.849 -24.206 -14.599  0.00  0.00    +0.292 HD
ENDBRANCH   9  16
BRANCH  11  18
ATOM     18  O   UNL     1      32.643 -22.580 -18.738  0.00  0.00    -0.505 OA
ATOM     19  H   UNL     1      32.102 -22.423 -19.487  0.00  0.00    +0.292 HD
ENDBRANCH  11  18
BRANCH  12  21
ATOM     20  O   UNL     1      38.680 -23.472 -11.625  0.00  0.00    -0.245 OA
ATOM     21  C   UNL     1      37.918 -24.273 -12.162  0.00  0.00    +0.338 C 
BRANCH  21  22
ATOM     22  O   UNL     1      37.843 -25.571 -11.756  0.00  0.00    -0.477 OA
ATOM     23  H   UNL     1      38.503 -25.925 -11.193  0.00  0.00    +0.295 HD
ENDBRANCH  21  22
ENDBRANCH  12  21
TORSDOF 4
ENDMDL
MODEL 3
REMARK VINA RESULT:      -9.7      2.419      6.992
REMARK  Name = 119396
REMARK  4 active torsions:
REMARK  status: ('A' for Active; 'I' for Inactive)
REMARK    1  A    between atoms: C_9  and  O_16
REMARK    2  A    between atoms: C_11  and  O_18
REMARK    3  A    between atoms: C_12  and  C_21
REMARK    4  A    between atoms: C_21  and  O_22
REMARK                            x       y       z     vdW  Elec       q    Type
REMARK                         _______ _______ _______ _____ _____    ______ ____
ROOT
ATOM      1  O   UNL     1      34.024 -24.549 -12.244  0.00  0.00    -0.286 OA
ATOM      2  C   UNL     1      35.661 -23.927 -16.029  0.00  0.00    +0.053 C 
ATOM      3  C   UNL     1      36.482 -24.430 -14.874  0.00  0.00    -0.012 C 
ATOM      4  C   UNL     1      34.210 -23.666 -15.730  0.00  0.00    -0.012 C 
ATOM      5  C   UNL     1      35.937 -24.640 -13.603  0.00  0.00    +0.069 C 
ATOM      6  C   UNL     1      33.656 -23.874 -14.462  0.00  0.00    +0.069 C 
ATOM      7  C   UNL     1      34.505 -24.368 -13.356  0.00  0.00    +0.201 C 
ATOM      8  C   UNL     1      37.845 -24.697 -15.077  0.00  0.00    +0.003 C 
ATOM      9  C   UNL     1      36.740 -25.109 -12.554  0.00  0.00    +0.137 C 
ATOM     10  C   UNL     1      33.381 -23.197 -16.761  0.00  0.00    -0.004 C 
ATOM     11  C   UNL     1      32.299 -23.618 -14.229  0.00  0.00    +0.136 C 
ATOM     12  C   UNL     1      38.644 -25.164 -14.034  0.00  0.00    +0.078 C 
ATOM     13  C   UNL     1      38.092 -25.371 -12.773  0.00  0.00    +0.043 C 
ATOM     14  C   UNL     1      32.030 -22.941 -16.529  0.00  0.00    +0.003 C 
ATOM     15  C   UNL     1      31.489 -23.152 -15.264  0.00  0.00    +0.037 C 
ENDROOT
BRANCH   9  16
ATOM     16  O   UNL     1      36.263 -25.335 -11.297  0.00  0.00    -0.505 OA
ATOM     17  H   UNL     1      35.339 -25.344 -11.141  0.00  0.00    +0.292 HD
ENDBRANCH   9  16
BRANCH  11  18
ATOM     18  O   UNL     1      31.706 -23.801 -13.015  0.00  0.00    -0.505 OA
ATOM     19  H   UNL     1      31.113 -24.516 -12.887  0.00  0.00    +0.292 HD
ENDBRANCH  11  18
BRANCH  12  21
ATOM     20  O   UNL     1      40.973 -24.621 -14.209  0.00  0.00    -0.245 OA
ATOM     21  C   UNL     1      40.054 -25.437 -14.264  0.00  0.00    +0.338 C 
BRANCH  21  22
ATOM     22  O   UNL     1      40.278 -26.747 -14.563  0.00  0.00    -0.477 OA
ATOM     23  H   UNL     1      39.562 -27.301 -14.805  0.00  0.00    +0.295 HD
ENDBRANCH  21  22
ENDBRANCH  12  21
TORSDOF 4
ENDMDL
MODEL 4
REMARK VINA RESULT:      -9.6     10.093     12.265
REMARK  Name = 119396
REMARK  4 active torsions:
REMARK  status: ('A' for Active; 'I' for Inactive)
REMARK    1  A    between atoms: C_9  and  O_16
REMARK    2  A    between atoms: C_11  and  O_18
REMARK    3  A    between atoms: C_12  and  C_21
REMARK    4  A    between atoms: C_21  and  O_22
REMARK                            x       y       z     vdW  Elec       q    Type
REMARK                         _______ _______ _______ _____ _____    ______ ____
ROOT
ATOM      1  O   UNL     1      34.047 -17.224 -25.858  0.00  0.00    -0.286 OA
ATOM      2  C   UNL     1      34.453 -15.551 -22.060  0.00  0.00    +0.053 C 
ATOM      3  C   UNL     1      34.673 -17.017 -22.317  0.00  0.00    -0.012 C 
ATOM      4  C   UNL     1      34.080 -14.729 -23.262  0.00  0.00    -0.012 C 
ATOM      5  C   UNL     1      34.538 -17.582 -23.590  0.00  0.00    +0.069 C 
ATOM      6  C   UNL     1      33.944 -15.286 -24.539  0.00  0.00    +0.069 C 
ATOM      7  C   UNL     1      34.168 -16.733 -24.743  0.00  0.00    +0.201 C 
ATOM      8  C   UNL     1      35.025 -17.848 -21.243  0.00  0.00    +0.003 C 
ATOM      9  C   UNL     1      34.751 -18.954 -23.784  0.00  0.00    +0.137 C 
ATOM     10  C   UNL     1      33.862 -13.352 -23.099  0.00  0.00    -0.004 C 
ATOM     11  C   UNL     1      33.595 -14.481 -25.631  0.00  0.00    +0.136 C 
ATOM     12  C   UNL     1      35.237 -19.213 -21.435  0.00  0.00    +0.078 C 
ATOM     13  C   UNL     1      35.101 -19.765 -22.705  0.00  0.00    +0.043 C 
ATOM     14  C   UNL     1      33.514 -12.551 -24.187  0.00  0.00    +0.003 C 
ATOM     15  C   UNL     1      33.381 -13.115 -25.451  0.00  0.00    +0.037 C 
ENDROOT
BRANCH   9  16
ATOM     16  O   UNL     1      34.636 -19.558 -25.001  0.00  0.00    -0.505 OA
ATOM     17  H   UNL     1      35.399 -19.888 -25.434  0.00  0.00    +0.292 HD
ENDBRANCH   9  16
BRANCH  11  18
ATOM     18  O   UNL     1      33.447 -14.968 -26.896  0.00  0.00    -0.505 OA
ATOM     19  H   UNL     1      33.011 -14.456 -27.548  0.00  0.00    +0.292 HD
ENDBRANCH  11  18
BRANCH  12  21
ATOM     20  O   UNL     1      34.906 -20.932 -19.799  0.00  0.00    -0.245 OA
ATOM     21  C   UNL     1      35.603 -20.058 -20.310  0.00  0.00    +0.338 C 
BRANCH  21  22
ATOM     22  O   UNL     1      36.854 -19.779 -19.848  0.00  0.00    -0.477 OA
ATOM     23  H   UNL     1      37.552 -19.620 -20.452  0.00  0.00    +0.295 HD
ENDBRANCH  21  22
ENDBRANCH  12  21
TORSDOF 4
ENDMDL
MODEL 5
REMARK VINA RESULT:      -9.4      2.553      7.002
REMARK  Name = 119396
REMARK  4 active torsions:
REMARK  status: ('A' for Active; 'I' for Inactive)
REMARK    1  A    between atoms: C_9  and  O_16
REMARK    2  A    between atoms: C_11  and  O_18
REMARK    3  A    between atoms: C_12  and  C_21
REMARK    4  A    between atoms: C_21  and  O_22
REMARK                            x       y       z     vdW  Elec       q    Type
REMARK                         _______ _______ _______ _____ _____    ______ ____
ROOT
ATOM      1  O   UNL     1      34.574 -22.881 -17.257  0.00  0.00    -0.286 OA
ATOM      2  C   UNL     1      33.258 -23.935 -13.443  0.00  0.00    +0.053 C 
ATOM      3  C   UNL     1      34.718 -23.882 -13.800  0.00  0.00    -0.012 C 
ATOM      4  C   UNL     1      32.304 -23.582 -14.551  0.00  0.00    -0.012 C 
ATOM      5  C   UNL     1      35.164 -23.528 -15.078  0.00  0.00    +0.069 C 
ATOM      6  C   UNL     1      32.742 -23.226 -15.832  0.00  0.00    +0.069 C 
ATOM      7  C   UNL     1      34.188 -23.189 -16.136  0.00  0.00    +0.201 C 
ATOM      8  C   UNL     1      35.668 -24.198 -12.817  0.00  0.00    +0.003 C 
ATOM      9  C   UNL     1      36.535 -23.492 -15.367  0.00  0.00    +0.137 C 
ATOM     10  C   UNL     1      30.925 -23.609 -14.290  0.00  0.00    -0.004 C 
ATOM     11  C   UNL     1      31.817 -22.904 -16.834  0.00  0.00    +0.136 C 
ATOM     12  C   UNL     1      37.032 -24.162 -13.104  0.00  0.00    +0.078 C 
ATOM     13  C   UNL     1      37.465 -23.808 -14.378  0.00  0.00    +0.043 C 
ATOM     14  C   UNL     1      30.005 -23.288 -15.288  0.00  0.00    +0.003 C 
ATOM     15  C   UNL     1      30.451 -22.935 -16.558  0.00  0.00    +0.037 C 
ENDROOT
BRANCH   9  16
ATOM     16  O   UNL     1      37.027 -23.152 -16.593  0.00  0.00    -0.505 OA
ATOM     17  H   UNL     1      36.801 -23.661 -17.346  0.00  0.00    +0.292 HD
ENDBRANCH   9  16
BRANCH  11  18
ATOM     18  O   UNL     1      32.185 -22.551 -18.098  0.00  0.00    -0.505 OA
ATOM     19  H   UNL     1      32.881 -23.007 -18.528  0.00  0.00    +0.292 HD
ENDBRANCH  11  18
BRANCH  12  21
ATOM     20  O   UNL     1      38.205 -25.605 -11.591  0.00  0.00    -0.245 OA
ATOM     21  C   UNL     1      38.002 -24.492 -12.071  0.00  0.00    +0.338 C 
BRANCH  21  22
ATOM     22  O   UNL     1      38.702 -23.398 -11.661  0.00  0.00    -0.477 OA
ATOM     23  H   UNL     1      39.089 -23.382 -10.808  0.00  0.00    +0.295 HD
ENDBRANCH  21  22
ENDBRANCH  12  21
TORSDOF 4
ENDMDL
MODEL 6
REMARK VINA RESULT:      -9.4      2.076      3.093
REMARK  Name = 119396
REMARK  4 active torsions:
REMARK  status: ('A' for Active; 'I' for Inactive)
REMARK    1  A    between atoms: C_9  and  O_16
REMARK    2  A    between atoms: C_11  and  O_18
REMARK    3  A    between atoms: C_12  and  C_21
REMARK    4  A    between atoms: C_21  and  O_22
REMARK                            x       y       z     vdW  Elec       q    Type
REMARK                         _______ _______ _______ _____ _____    ______ ____
ROOT
ATOM      1  O   UNL     1      35.415 -23.040 -14.501  0.00  0.00    -0.286 OA
ATOM      2  C   UNL     1      32.876 -22.857 -17.804  0.00  0.00    +0.053 C 
ATOM      3  C   UNL     1      32.403 -23.323 -16.455  0.00  0.00    -0.012 C 
ATOM      4  C   UNL     1      34.324 -22.459 -17.883  0.00  0.00    -0.012 C 
ATOM      5  C   UNL     1      33.251 -23.386 -15.344  0.00  0.00    +0.069 C 
ATOM      6  C   UNL     1      35.179 -22.518 -16.777  0.00  0.00    +0.069 C 
ATOM      7  C   UNL     1      34.669 -22.985 -15.470  0.00  0.00    +0.201 C 
ATOM      8  C   UNL     1      31.062 -23.710 -16.304  0.00  0.00    +0.003 C 
ATOM      9  C   UNL     1      32.767 -23.828 -14.105  0.00  0.00    +0.137 C 
ATOM     10  C   UNL     1      34.836 -22.012 -19.111  0.00  0.00    -0.004 C 
ATOM     11  C   UNL     1      36.522 -22.137 -16.897  0.00  0.00    +0.136 C 
ATOM     12  C   UNL     1      30.580 -24.150 -15.071  0.00  0.00    +0.078 C 
ATOM     13  C   UNL     1      31.432 -24.208 -13.972  0.00  0.00    +0.043 C 
ATOM     14  C   UNL     1      36.174 -21.633 -19.230  0.00  0.00    +0.003 C 
ATOM     15  C   UNL     1      37.015 -21.695 -18.124  0.00  0.00    +0.037 C 
ENDROOT
BRANCH   9  16
ATOM     16  O   UNL     1      33.546 -23.906 -12.989  0.00  0.00    -0.505 OA
ATOM     17  H   UNL     1      34.421 -24.237 -13.050  0.00  0.00    +0.292 HD
ENDBRANCH   9  16
BRANCH  11  18
ATOM     18  O   UNL     1      37.401 -22.174 -15.855  0.00  0.00    -0.505 OA
ATOM     19  H   UNL     1      38.305 -21.976 -15.998  0.00  0.00    +0.292 HD
ENDBRANCH  11  18
BRANCH  12  21
ATOM     20  O   UNL     1      28.208 -23.908 -15.317  0.00  0.00    -0.245 OA
ATOM     21  C   UNL     1      29.187 -24.545 -14.933  0.00  0.00    +0.338 C 
BRANCH  21  22
ATOM     22  O   UNL     1      29.058 -25.748 -14.307  0.00  0.00    -0.477 OA
ATOM     23  H   UNL     1      29.531 -25.918 -13.517  0.00  0.00    +0.295 HD
ENDBRANCH  21  22
ENDBRANCH  12  21
TORSDOF 4
ENDMDL
MODEL 7
REMARK VINA RESULT:      -9.4     11.067     12.841
REMARK  Name = 119396
REMARK  4 active torsions:
REMARK  status: ('A' for Active; 'I' for Inactive)
REMARK    1  A    between atoms: C_9  and  O_16
REMARK    2  A    between atoms: C_11  and  O_18
REMARK    3  A    between atoms: C_12  and  C_21
REMARK    4  A    between atoms: C_21  and  O_22
REMARK                            x       y       z     vdW  Elec       q    Type
REMARK                         _______ _______ _______ _____ _____    ______ ____
ROOT
ATOM      1  O   UNL     1      34.070 -17.293 -25.677  0.00  0.00    -0.286 OA
ATOM      2  C   UNL     1      34.597 -15.519 -21.941  0.00  0.00    +0.053 C 
ATOM      3  C   UNL     1      34.226 -14.721 -23.161  0.00  0.00    -0.012 C 
ATOM      4  C   UNL     1      34.763 -16.997 -22.155  0.00  0.00    -0.012 C 
ATOM      5  C   UNL     1      34.048 -15.313 -24.416  0.00  0.00    +0.069 C 
ATOM      6  C   UNL     1      34.586 -17.598 -23.407  0.00  0.00    +0.069 C 
ATOM      7  C   UNL     1      34.223 -16.772 -24.580  0.00  0.00    +0.201 C 
ATOM      8  C   UNL     1      34.052 -13.334 -23.036  0.00  0.00    +0.003 C 
ATOM      9  C   UNL     1      33.703 -14.531 -25.526  0.00  0.00    +0.137 C 
ATOM     10  C   UNL     1      35.108 -17.806 -21.061  0.00  0.00    -0.004 C 
ATOM     11  C   UNL     1      34.751 -18.980 -23.562  0.00  0.00    +0.136 C 
ATOM     12  C   UNL     1      33.709 -12.556 -24.141  0.00  0.00    +0.078 C 
ATOM     13  C   UNL     1      33.533 -13.154 -25.386  0.00  0.00    +0.043 C 
ATOM     14  C   UNL     1      35.272 -19.183 -21.215  0.00  0.00    +0.003 C 
ATOM     15  C   UNL     1      35.093 -19.769 -22.464  0.00  0.00    +0.037 C 
ENDROOT
BRANCH   9  16
ATOM     16  O   UNL     1      33.513 -15.053 -26.772  0.00  0.00    -0.505 OA
ATOM     17  H   UNL     1      33.584 -15.977 -26.909  0.00  0.00    +0.292 HD
ENDBRANCH   9  16
BRANCH  11  18
ATOM     18  O   UNL     1      34.593 -19.618 -24.756  0.00  0.00    -0.505 OA
ATOM     19  H   UNL     1      35.049 -19.312 -25.515  0.00  0.00    +0.292 HD
ENDBRANCH  11  18
BRANCH  12  21
ATOM     20  O   UNL     1      32.553 -10.553 -23.512  0.00  0.00    -0.245 OA
ATOM     21  C   UNL     1      33.532 -11.120 -23.993  0.00  0.00    +0.338 C 
BRANCH  21  22
ATOM     22  O   UNL     1      34.605 -10.423 -24.461  0.00  0.00    -0.477 OA
ATOM     23  H   UNL     1      35.457 -10.582 -24.107  0.00  0.00    +0.295 HD
ENDBRANCH  21  22
ENDBRANCH  12  21
TORSDOF 4
ENDMDL
MODEL 8
REMARK VINA RESULT:      -9.4      3.750      6.951
REMARK  Name = 119396
REMARK  4 active torsions:
REMARK  status: ('A' for Active; 'I' for Inactive)
REMARK    1  A    between atoms: C_9  and  O_16
REMARK    2  A    between atoms: C_11  and  O_18
REMARK    3  A    between atoms: C_12  and  C_21
REMARK    4  A    between atoms: C_21  and  O_22
REMARK                            x       y       z     vdW  Elec       q    Type
REMARK                         _______ _______ _______ _____ _____    ______ ____
ROOT
ATOM      1  O   UNL     1      32.666 -22.240 -18.652  0.00  0.00    -0.286 OA
ATOM      2  C   UNL     1      36.733 -21.346 -18.444  0.00  0.00    +0.053 C 
ATOM      3  C   UNL     1      36.057 -22.237 -17.439  0.00  0.00    -0.012 C 
ATOM      4  C   UNL     1      35.847 -20.800 -19.530  0.00  0.00    -0.012 C 
ATOM      5  C   UNL     1      34.693 -22.540 -17.506  0.00  0.00    +0.069 C 
ATOM      6  C   UNL     1      34.482 -21.099 -19.604  0.00  0.00    +0.069 C 
ATOM      7  C   UNL     1      33.861 -21.979 -18.591  0.00  0.00    +0.201 C 
ATOM      8  C   UNL     1      36.821 -22.785 -16.397  0.00  0.00    +0.003 C 
ATOM      9  C   UNL     1      34.104 -23.375 -16.547  0.00  0.00    +0.137 C 
ATOM     10  C   UNL     1      36.410 -19.961 -20.505  0.00  0.00    -0.004 C 
ATOM     11  C   UNL     1      33.694 -20.567 -20.634  0.00  0.00    +0.136 C 
ATOM     12  C   UNL     1      36.235 -23.616 -15.443  0.00  0.00    +0.078 C 
ATOM     13  C   UNL     1      34.877 -23.912 -15.518  0.00  0.00    +0.043 C 
ATOM     14  C   UNL     1      35.625 -19.433 -21.529  0.00  0.00    +0.003 C 
ATOM     15  C   UNL     1      34.269 -19.736 -21.594  0.00  0.00    +0.037 C 
ENDROOT
BRANCH   9  16
ATOM     16  O   UNL     1      32.781 -23.707 -16.563  0.00  0.00    -0.505 OA
ATOM     17  H   UNL     1      32.130 -23.045 -16.437  0.00  0.00    +0.292 HD
ENDBRANCH   9  16
BRANCH  11  18
ATOM     18  O   UNL     1      32.361 -20.823 -20.756  0.00  0.00    -0.505 OA
ATOM     19  H   UNL     1      32.065 -21.694 -20.933  0.00  0.00    +0.292 HD
ENDBRANCH  11  18
BRANCH  12  21
ATOM     20  O   UNL     1      37.893 -23.580 -13.713  0.00  0.00    -0.245 OA
ATOM     21  C   UNL     1      37.043 -24.176 -14.371  0.00  0.00    +0.338 C 
BRANCH  21  22
ATOM     22  O   UNL     1      36.757 -25.489 -14.150  0.00  0.00    -0.477 OA
ATOM     23  H   UNL     1      37.332 -26.012 -13.625  0.00  0.00    +0.295 HD
ENDBRANCH  21  22
ENDBRANCH  12  21
TORSDOF 4
ENDMDL
MODEL 9
REMARK VINA RESULT:      -9.3      2.247      3.418
REMARK  Name = 119396
REMARK  4 active torsions:
REMARK  status: ('A' for Active; 'I' for Inactive)
REMARK    1  A    between atoms: C_9  and  O_16
REMARK    2  A    between atoms: C_11  and  O_18
REMARK    3  A    between atoms: C_12  and  C_21
REMARK    4  A    between atoms: C_21  and  O_22
REMARK                            x       y       z     vdW  Elec       q    Type
REMARK                         _______ _______ _______ _____ _____    ______ ____
ROOT
ATOM      1  O   UNL     1      36.292 -23.370 -16.427  0.00  0.00    -0.286 OA
ATOM      2  C   UNL     1      33.692 -24.037 -13.237  0.00  0.00    +0.053 C 
ATOM      3  C   UNL     1      33.198 -23.672 -14.609  0.00  0.00    -0.012 C 
ATOM      4  C   UNL     1      35.185 -24.149 -13.090  0.00  0.00    -0.012 C 
ATOM      5  C   UNL     1      34.067 -23.448 -15.682  0.00  0.00    +0.069 C 
ATOM      6  C   UNL     1      36.061 -23.927 -14.159  0.00  0.00    +0.069 C 
ATOM      7  C   UNL     1      35.528 -23.568 -15.491  0.00  0.00    +0.201 C 
ATOM      8  C   UNL     1      31.816 -23.551 -14.822  0.00  0.00    +0.003 C 
ATOM      9  C   UNL     1      33.563 -23.108 -16.945  0.00  0.00    +0.137 C 
ATOM     10  C   UNL     1      35.719 -24.488 -11.837  0.00  0.00    -0.004 C 
ATOM     11  C   UNL     1      37.445 -24.041 -13.977  0.00  0.00    +0.136 C 
ATOM     12  C   UNL     1      31.314 -23.213 -16.078  0.00  0.00    +0.078 C 
ATOM     13  C   UNL     1      32.187 -22.993 -17.140  0.00  0.00    +0.043 C 
ATOM     14  C   UNL     1      37.097 -24.602 -11.657  0.00  0.00    +0.003 C 
ATOM     15  C   UNL     1      37.959 -24.379 -12.726  0.00  0.00    +0.037 C 
ENDROOT
BRANCH   9  16
ATOM     16  O   UNL     1      34.361 -22.881 -18.027  0.00  0.00    -0.505 OA
ATOM     17  H   UNL     1      34.155 -22.190 -18.625  0.00  0.00    +0.292 HD
ENDBRANCH   9  16
BRANCH  11  18
ATOM     18  O   UNL     1      38.346 -23.836 -14.980  0.00  0.00    -0.505 OA
ATOM     19  H   UNL     1      38.965 -23.135 -14.917  0.00  0.00    +0.292 HD
ENDBRANCH  11  18
BRANCH  12  21
ATOM     20  O   UNL     1      29.317 -22.390 -17.117  0.00  0.00    -0.245 OA
ATOM     21  C   UNL     1      29.879 -23.094 -16.280  0.00  0.00    +0.338 C 
BRANCH  21  22
ATOM     22  O   UNL     1      29.175 -23.874 -15.413  0.00  0.00    -0.477 OA
ATOM     23  H   UNL     1      28.278 -23.677 -15.227  0.00  0.00    +0.295 HD
ENDBRANCH  21  22
ENDBRANCH  12  21
TORSDOF 4
ENDMDL
