MODEL 1
REMARK VINA RESULT:      -8.6      0.000      0.000
REMARK  Name = 443928
REMARK  6 active torsions:
REMARK  status: ('A' for Active; 'I' for Inactive)
REMARK    1  A    between atoms: C_7  and  O_23
REMARK    2  A    between atoms: C_7  and  C_28
REMARK    3  A    between atoms: C_11  and  O_25
REMARK    4  A    between atoms: C_28  and  C_29
REMARK    5  A    between atoms: C_29  and  O_30
REMARK    6  A    between atoms: O_30  and  C_32
REMARK                            x       y       z     vdW  Elec       q    Type
REMARK                         _______ _______ _______ _____ _____    ______ ____
ROOT
ATOM      1  F   UNL     1      32.848 -13.928 -27.528  0.00  0.00    -0.233 F 
ATOM      2  O   UNL     1      35.219  -9.836 -26.232  0.00  0.00    -0.287 OA
ATOM      3  C   UNL     1      34.496 -17.082 -22.413  0.00  0.00    +0.031 C 
ATOM      4  C   UNL     1      34.407 -16.774 -23.924  0.00  0.00    +0.003 C 
ATOM      5  C   UNL     1      33.575 -15.524 -24.259  0.00  0.00    +0.006 C 
ATOM      6  C   UNL     1      34.234 -14.280 -23.567  0.00  0.00    +0.034 C 
ATOM      7  C   UNL     1      35.339 -18.393 -22.475  0.00  0.00    +0.142 C 
ATOM      8  C   UNL     1      34.006 -18.111 -24.547  0.00  0.00    +0.003 C 
ATOM      9  C   UNL     1      35.163 -15.869 -21.733  0.00  0.00    +0.032 C 
ATOM     10  C   UNL     1      34.717 -19.176 -23.672  0.00  0.00    +0.032 C 
ATOM     11  C   UNL     1      34.477 -14.519 -22.041  0.00  0.00    +0.111 C 
ATOM     12  C   UNL     1      33.526 -12.922 -23.960  0.00  0.00    +0.039 C 
ATOM     13  C   UNL     1      33.490 -15.329 -25.781  0.00  0.00    +0.040 C 
ATOM     14  C   UNL     1      33.112 -17.368 -21.768  0.00  0.00    +0.003 C 
ATOM     15  C   UNL     1      32.802 -14.028 -26.168  0.00  0.00    +0.180 C 
ATOM     16  C   UNL     1      33.475 -12.859 -25.492  0.00  0.00    -0.006 C 
ATOM     17  C   UNL     1      35.709 -20.010 -24.478  0.00  0.00    +0.003 C 
ATOM     18  C   UNL     1      32.084 -12.792 -23.420  0.00  0.00    +0.009 C 
ATOM     19  C   UNL     1      34.304 -11.747 -23.384  0.00  0.00    -0.020 C 
ATOM     20  C   UNL     1      34.022 -11.868 -26.212  0.00  0.00    +0.036 C 
ATOM     21  C   UNL     1      34.852 -10.759 -24.098  0.00  0.00    +0.038 C 
ATOM     22  C   UNL     1      34.736 -10.746 -25.568  0.00  0.00    +0.195 C 
ENDROOT
BRANCH   7  23
ATOM     23  O   UNL     1      36.729 -18.142 -22.644  0.00  0.00    -0.380 OA
ATOM     24  H   UNL     1      36.945 -18.143 -23.589  0.00  0.00    +0.211 HD
ENDBRANCH   7  23
BRANCH  11  25
ATOM     25  O   UNL     1      33.260 -14.432 -21.313  0.00  0.00    -0.384 OA
ATOM     26  H   UNL     1      32.817 -15.294 -21.320  0.00  0.00    +0.210 HD
ENDBRANCH  11  25
BRANCH   7  28
ATOM     27  O   UNL     1      36.076 -18.929 -20.275  0.00  0.00    -0.290 OA
ATOM     28  C   UNL     1      35.320 -19.193 -21.208  0.00  0.00    +0.218 C 
BRANCH  28  29
ATOM     29  C   UNL     1      34.325 -20.333 -21.150  0.00  0.00    +0.274 C 
BRANCH  29  30
ATOM     30  O   UNL     1      33.652 -20.345 -19.909  0.00  0.00    -0.440 OA
BRANCH  30  32
ATOM     31  O   UNL     1      32.587 -22.125 -18.894  0.00  0.00    -0.250 OA
ATOM     32  C   UNL     1      33.603 -21.551 -19.259  0.00  0.00    +0.318 C 
ATOM     33  C   UNL     1      34.988 -22.086 -19.052  0.00  0.00    +0.121 C 
ENDBRANCH  30  32
ENDBRANCH  29  30
ENDBRANCH  28  29
ENDBRANCH   7  28
TORSDOF 6
ENDMDL
MODEL 2
REMARK VINA RESULT:      -7.7     10.698     13.181
REMARK  Name = 443928
REMARK  6 active torsions:
REMARK  status: ('A' for Active; 'I' for Inactive)
REMARK    1  A    between atoms: C_7  and  O_23
REMARK    2  A    between atoms: C_7  and  C_28
REMARK    3  A    between atoms: C_11  and  O_25
REMARK    4  A    between atoms: C_28  and  C_29
REMARK    5  A    between atoms: C_29  and  O_30
REMARK    6  A    between atoms: O_30  and  C_32
REMARK                            x       y       z     vdW  Elec       q    Type
REMARK                         _______ _______ _______ _____ _____    ______ ____
ROOT
ATOM      1  F   UNL     1      38.174 -22.777 -16.784  0.00  0.00    -0.233 F 
ATOM      2  O   UNL     1      40.354 -26.506 -14.464  0.00  0.00    -0.287 OA
ATOM      3  C   UNL     1      32.615 -23.745 -14.139  0.00  0.00    +0.031 C 
ATOM      4  C   UNL     1      33.638 -23.621 -15.291  0.00  0.00    +0.003 C 
ATOM      5  C   UNL     1      35.053 -23.233 -14.830  0.00  0.00    +0.006 C 
ATOM      6  C   UNL     1      35.585 -24.338 -13.851  0.00  0.00    +0.034 C 
ATOM      7  C   UNL     1      31.341 -24.085 -14.972  0.00  0.00    +0.142 C 
ATOM      8  C   UNL     1      32.930 -22.733 -16.314  0.00  0.00    +0.003 C 
ATOM      9  C   UNL     1      33.126 -24.846 -13.186  0.00  0.00    +0.032 C 
ATOM     10  C   UNL     1      31.433 -23.122 -16.196  0.00  0.00    +0.032 C 
ATOM     11  C   UNL     1      34.575 -24.631 -12.695  0.00  0.00    +0.111 C 
ATOM     12  C   UNL     1      37.088 -24.096 -13.424  0.00  0.00    +0.039 C 
ATOM     13  C   UNL     1      35.986 -23.072 -16.041  0.00  0.00    +0.040 C 
ATOM     14  C   UNL     1      32.408 -22.416 -13.364  0.00  0.00    +0.003 C 
ATOM     15  C   UNL     1      37.433 -22.832 -15.639  0.00  0.00    +0.180 C 
ATOM     16  C   UNL     1      37.907 -23.923 -14.710  0.00  0.00    -0.006 C 
ATOM     17  C   UNL     1      30.885 -23.691 -17.502  0.00  0.00    +0.003 C 
ATOM     18  C   UNL     1      37.293 -22.843 -12.545  0.00  0.00    +0.009 C 
ATOM     19  C   UNL     1      37.590 -25.278 -12.606  0.00  0.00    -0.020 C 
ATOM     20  C   UNL     1      38.950 -24.701 -15.036  0.00  0.00    +0.036 C 
ATOM     21  C   UNL     1      38.628 -26.056 -12.928  0.00  0.00    +0.038 C 
ATOM     22  C   UNL     1      39.390 -25.810 -14.166  0.00  0.00    +0.195 C 
ENDROOT
BRANCH   7  23
ATOM     23  O   UNL     1      31.285 -25.455 -15.352  0.00  0.00    -0.380 OA
ATOM     24  H   UNL     1      30.789 -25.540 -16.181  0.00  0.00    +0.211 HD
ENDBRANCH   7  23
BRANCH  11  25
ATOM     25  O   UNL     1      34.595 -23.592 -11.726  0.00  0.00    -0.384 OA
ATOM     26  H   UNL     1      35.503 -23.268 -11.619  0.00  0.00    +0.210 HD
ENDBRANCH  11  25
BRANCH   7  28
ATOM     27  O   UNL     1      29.746 -24.684 -13.309  0.00  0.00    -0.290 OA
ATOM     28  C   UNL     1      30.056 -23.919 -14.220  0.00  0.00    +0.218 C 
BRANCH  28  29
ATOM     29  C   UNL     1      29.174 -22.765 -14.648  0.00  0.00    +0.274 C 
BRANCH  29  30
ATOM     30  O   UNL     1      28.077 -23.230 -15.406  0.00  0.00    -0.440 OA
BRANCH  30  32
ATOM     31  O   UNL     1      28.020 -21.879 -17.279  0.00  0.00    -0.250 OA
ATOM     32  C   UNL     1      27.506 -22.324 -16.262  0.00  0.00    +0.318 C 
ATOM     33  C   UNL     1      26.139 -21.944 -15.779  0.00  0.00    +0.121 C 
ENDBRANCH  30  32
ENDBRANCH  29  30
ENDBRANCH  28  29
ENDBRANCH   7  28
TORSDOF 6
ENDMDL
MODEL 3
REMARK VINA RESULT:      -7.4      3.919     10.020
REMARK  Name = 443928
REMARK  6 active torsions:
REMARK  status: ('A' for Active; 'I' for Inactive)
REMARK    1  A    between atoms: C_7  and  O_23
REMARK    2  A    between atoms: C_7  and  C_28
REMARK    3  A    between atoms: C_11  and  O_25
REMARK    4  A    between atoms: C_28  and  C_29
REMARK    5  A    between atoms: C_29  and  O_30
REMARK    6  A    between atoms: O_30  and  C_32
REMARK                            x       y       z     vdW  Elec       q    Type
REMARK                         _______ _______ _______ _____ _____    ______ ____
ROOT
ATOM      1  F   UNL     1      31.710 -14.522 -20.099  0.00  0.00    -0.233 F 
ATOM      2  O   UNL     1      35.523 -17.107 -21.780  0.00  0.00    -0.287 OA
ATOM      3  C   UNL     1      33.096  -9.419 -23.395  0.00  0.00    +0.031 C 
ATOM      4  C   UNL     1      32.843 -10.266 -22.128  0.00  0.00    +0.003 C 
ATOM      5  C   UNL     1      32.438 -11.720 -22.420  0.00  0.00    +0.006 C 
ATOM      6  C   UNL     1      33.594 -12.415 -23.222  0.00  0.00    +0.034 C 
ATOM      7  C   UNL     1      33.419  -8.050 -22.720  0.00  0.00    +0.142 C 
ATOM      8  C   UNL     1      31.906  -9.397 -21.290  0.00  0.00    +0.003 C 
ATOM      9  C   UNL     1      34.248 -10.088 -24.175  0.00  0.00    +0.032 C 
ATOM     10  C   UNL     1      32.360  -7.943 -21.580  0.00  0.00    +0.032 C 
ATOM     11  C   UNL     1      34.017 -11.585 -24.477  0.00  0.00    +0.111 C 
ATOM     12  C   UNL     1      33.330 -13.956 -23.456  0.00  0.00    +0.039 C 
ATOM     13  C   UNL     1      32.147 -12.469 -21.109  0.00  0.00    +0.040 C 
ATOM     14  C   UNL     1      31.841  -9.286 -24.299  0.00  0.00    +0.003 C 
ATOM     15  C   UNL     1      31.883 -13.951 -21.327  0.00  0.00    +0.180 C 
ATOM     16  C   UNL     1      33.024 -14.580 -22.088  0.00  0.00    -0.006 C 
ATOM     17  C   UNL     1      32.846  -7.233 -20.319  0.00  0.00    +0.003 C 
ATOM     18  C   UNL     1      32.142 -14.248 -24.399  0.00  0.00    +0.009 C 
ATOM     19  C   UNL     1      34.551 -14.599 -24.096  0.00  0.00    -0.020 C 
ATOM     20  C   UNL     1      33.734 -15.588 -21.558  0.00  0.00    +0.036 C 
ATOM     21  C   UNL     1      35.261 -15.602 -23.571  0.00  0.00    +0.038 C 
ATOM     22  C   UNL     1      34.890 -16.176 -22.265  0.00  0.00    +0.195 C 
ENDROOT
BRANCH   7  23
ATOM     23  O   UNL     1      34.756  -7.978 -22.240  0.00  0.00    -0.380 OA
ATOM     24  H   UNL     1      34.788  -7.404 -21.460  0.00  0.00    +0.211 HD
ENDBRANCH   7  23
BRANCH  11  25
ATOM     25  O   UNL     1      33.056 -11.713 -25.517  0.00  0.00    -0.384 OA
ATOM     26  H   UNL     1      33.159 -10.981 -26.144  0.00  0.00    +0.210 HD
ENDBRANCH  11  25
BRANCH   7  28
ATOM     27  O   UNL     1      34.230  -6.699 -24.505  0.00  0.00    -0.290 OA
ATOM     28  C   UNL     1      33.361  -6.879 -23.654  0.00  0.00    +0.218 C 
BRANCH  28  29
ATOM     29  C   UNL     1      32.183  -5.944 -23.485  0.00  0.00    +0.274 C 
BRANCH  29  30
ATOM     30  O   UNL     1      31.504  -5.770 -24.711  0.00  0.00    -0.440 OA
BRANCH  30  32
ATOM     31  O   UNL     1      30.410  -3.736 -24.708  0.00  0.00    -0.250 OA
ATOM     32  C   UNL     1      31.299  -4.475 -25.110  0.00  0.00    +0.318 C 
ATOM     33  C   UNL     1      32.328  -4.074 -26.123  0.00  0.00    +0.121 C 
ENDBRANCH  30  32
ENDBRANCH  29  30
ENDBRANCH  28  29
ENDBRANCH   7  28
TORSDOF 6
ENDMDL
MODEL 4
REMARK VINA RESULT:      -7.1      5.876     10.147
REMARK  Name = 443928
REMARK  6 active torsions:
REMARK  status: ('A' for Active; 'I' for Inactive)
REMARK    1  A    between atoms: C_7  and  O_23
REMARK    2  A    between atoms: C_7  and  C_28
REMARK    3  A    between atoms: C_11  and  O_25
REMARK    4  A    between atoms: C_28  and  C_29
REMARK    5  A    between atoms: C_29  and  O_30
REMARK    6  A    between atoms: O_30  and  C_32
REMARK                            x       y       z     vdW  Elec       q    Type
REMARK                         _______ _______ _______ _____ _____    ______ ____
ROOT
ATOM      1  F   UNL     1      37.683 -20.288 -19.948  0.00  0.00    -0.233 F 
ATOM      2  O   UNL     1      33.389 -18.330 -21.281  0.00  0.00    -0.287 OA
ATOM      3  C   UNL     1      35.255 -23.661 -15.305  0.00  0.00    +0.031 C 
ATOM      4  C   UNL     1      36.157 -22.594 -15.964  0.00  0.00    +0.003 C 
ATOM      5  C   UNL     1      36.031 -22.530 -17.496  0.00  0.00    +0.006 C 
ATOM      6  C   UNL     1      34.548 -22.179 -17.866  0.00  0.00    +0.034 C 
ATOM      7  C   UNL     1      35.684 -23.467 -13.818  0.00  0.00    +0.142 C 
ATOM      8  C   UNL     1      37.534 -22.851 -15.351  0.00  0.00    +0.003 C 
ATOM      9  C   UNL     1      33.793 -23.306 -15.650  0.00  0.00    +0.032 C 
ATOM     10  C   UNL     1      37.234 -23.307 -13.899  0.00  0.00    +0.032 C 
ATOM     11  C   UNL     1      33.528 -23.131 -17.162  0.00  0.00    +0.111 C 
ATOM     12  C   UNL     1      34.346 -21.959 -19.418  0.00  0.00    +0.039 C 
ATOM     13  C   UNL     1      37.005 -21.488 -18.070  0.00  0.00    +0.040 C 
ATOM     14  C   UNL     1      35.582 -25.106 -15.771  0.00  0.00    +0.003 C 
ATOM     15  C   UNL     1      36.823 -21.277 -19.566  0.00  0.00    +0.180 C 
ATOM     16  C   UNL     1      35.387 -20.928 -19.874  0.00  0.00    -0.006 C 
ATOM     17  C   UNL     1      37.835 -22.358 -12.866  0.00  0.00    +0.003 C 
ATOM     18  C   UNL     1      34.531 -23.241 -20.259  0.00  0.00    +0.009 C 
ATOM     19  C   UNL     1      32.930 -21.470 -19.691  0.00  0.00    -0.020 C 
ATOM     20  C   UNL     1      35.072 -19.767 -20.468  0.00  0.00    +0.036 C 
ATOM     21  C   UNL     1      32.612 -20.314 -20.282  0.00  0.00    +0.038 C 
ATOM     22  C   UNL     1      33.668 -19.385 -20.724  0.00  0.00    +0.195 C 
ENDROOT
BRANCH   7  23
ATOM     23  O   UNL     1      35.046 -22.353 -13.206  0.00  0.00    -0.380 OA
ATOM     24  H   UNL     1      34.254 -22.116 -13.712  0.00  0.00    +0.211 HD
ENDBRANCH   7  23
BRANCH  11  25
ATOM     25  O   UNL     1      33.510 -24.407 -17.788  0.00  0.00    -0.384 OA
ATOM     26  H   UNL     1      32.655 -24.835 -17.623  0.00  0.00    +0.210 HD
ENDBRANCH  11  25
BRANCH   7  28
ATOM     27  O   UNL     1      34.097 -24.864 -12.722  0.00  0.00    -0.290 OA
ATOM     28  C   UNL     1      35.281 -24.591 -12.913  0.00  0.00    +0.218 C 
BRANCH  28  29
ATOM     29  C   UNL     1      36.408 -25.361 -12.258  0.00  0.00    +0.274 C 
BRANCH  29  30
ATOM     30  O   UNL     1      36.661 -26.564 -12.952  0.00  0.00    -0.440 OA
BRANCH  30  32
ATOM     31  O   UNL     1      38.008 -27.254 -14.696  0.00  0.00    -0.250 OA
ATOM     32  C   UNL     1      37.828 -26.615 -13.669  0.00  0.00    +0.318 C 
ATOM     33  C   UNL     1      38.876 -25.764 -13.017  0.00  0.00    +0.121 C 
ENDBRANCH  30  32
ENDBRANCH  29  30
ENDBRANCH  28  29
ENDBRANCH   7  28
TORSDOF 6
ENDMDL
MODEL 5
REMARK VINA RESULT:      -6.8      5.642      9.750
REMARK  Name = 443928
REMARK  6 active torsions:
REMARK  status: ('A' for Active; 'I' for Inactive)
REMARK    1  A    between atoms: C_7  and  O_23
REMARK    2  A    between atoms: C_7  and  C_28
REMARK    3  A    between atoms: C_11  and  O_25
REMARK    4  A    between atoms: C_28  and  C_29
REMARK    5  A    between atoms: C_29  and  O_30
REMARK    6  A    between atoms: O_30  and  C_32
REMARK                            x       y       z     vdW  Elec       q    Type
REMARK                         _______ _______ _______ _____ _____    ______ ____
ROOT
ATOM      1  F   UNL     1      37.785 -20.176 -20.016  0.00  0.00    -0.233 F 
ATOM      2  O   UNL     1      33.611 -18.022 -21.424  0.00  0.00    -0.287 OA
ATOM      3  C   UNL     1      35.078 -23.622 -15.585  0.00  0.00    +0.031 C 
ATOM      4  C   UNL     1      36.039 -22.565 -16.173  0.00  0.00    +0.003 C 
ATOM      5  C   UNL     1      35.971 -22.442 -17.704  0.00  0.00    +0.006 C 
ATOM      6  C   UNL     1      34.514 -22.026 -18.113  0.00  0.00    +0.034 C 
ATOM      7  C   UNL     1      35.460 -23.495 -14.078  0.00  0.00    +0.142 C 
ATOM      8  C   UNL     1      37.383 -22.891 -15.522  0.00  0.00    +0.003 C 
ATOM      9  C   UNL     1      33.643 -23.203 -15.966  0.00  0.00    +0.032 C 
ATOM     10  C   UNL     1      37.016 -23.387 -14.099  0.00  0.00    +0.032 C 
ATOM     11  C   UNL     1      33.438 -22.966 -17.479  0.00  0.00    +0.111 C 
ATOM     12  C   UNL     1      34.376 -21.745 -19.662  0.00  0.00    +0.039 C 
ATOM     13  C   UNL     1      37.000 -21.416 -18.207  0.00  0.00    +0.040 C 
ATOM     14  C   UNL     1      35.372 -25.060 -16.091  0.00  0.00    +0.003 C 
ATOM     15  C   UNL     1      36.878 -21.146 -19.699  0.00  0.00    +0.180 C 
ATOM     16  C   UNL     1      35.467 -20.737 -20.043  0.00  0.00    -0.006 C 
ATOM     17  C   UNL     1      37.612 -22.497 -13.011  0.00  0.00    +0.003 C 
ATOM     18  C   UNL     1      34.547 -23.003 -20.542  0.00  0.00    +0.009 C 
ATOM     19  C   UNL     1      32.988 -21.198 -19.966  0.00  0.00    -0.020 C 
ATOM     20  C   UNL     1      35.213 -19.545 -20.606  0.00  0.00    +0.036 C 
ATOM     21  C   UNL     1      32.731 -20.011 -20.525  0.00  0.00    +0.038 C 
ATOM     22  C   UNL     1      33.833 -19.105 -20.896  0.00  0.00    +0.195 C 
ENDROOT
BRANCH   7  23
ATOM     23  O   UNL     1      34.839 -22.381 -13.448  0.00  0.00    -0.380 OA
ATOM     24  H   UNL     1      35.283 -22.197 -12.606  0.00  0.00    +0.211 HD
ENDBRANCH   7  23
BRANCH  11  25
ATOM     25  O   UNL     1      33.399 -24.218 -18.151  0.00  0.00    -0.384 OA
ATOM     26  H   UNL     1      34.108 -24.787 -17.815  0.00  0.00    +0.210 HD
ENDBRANCH  11  25
BRANCH   7  28
ATOM     27  O   UNL     1      35.721 -25.589 -12.974  0.00  0.00    -0.290 OA
ATOM     28  C   UNL     1      34.987 -24.635 -13.228  0.00  0.00    +0.218 C 
BRANCH  28  29
ATOM     29  C   UNL     1      33.568 -24.541 -12.710  0.00  0.00    +0.274 C 
BRANCH  29  30
ATOM     30  O   UNL     1      32.660 -25.096 -13.638  0.00  0.00    -0.440 OA
BRANCH  30  32
ATOM     31  O   UNL     1      30.925 -23.888 -12.707  0.00  0.00    -0.250 OA
ATOM     32  C   UNL     1      31.358 -24.679 -13.534  0.00  0.00    +0.318 C 
ATOM     33  C   UNL     1      30.517 -25.333 -14.588  0.00  0.00    +0.121 C 
ENDBRANCH  30  32
ENDBRANCH  29  30
ENDBRANCH  28  29
ENDBRANCH   7  28
TORSDOF 6
ENDMDL
MODEL 6
REMARK VINA RESULT:      -6.7      3.595      9.976
REMARK  Name = 443928
REMARK  6 active torsions:
REMARK  status: ('A' for Active; 'I' for Inactive)
REMARK    1  A    between atoms: C_7  and  O_23
REMARK    2  A    between atoms: C_7  and  C_28
REMARK    3  A    between atoms: C_11  and  O_25
REMARK    4  A    between atoms: C_28  and  C_29
REMARK    5  A    between atoms: C_29  and  O_30
REMARK    6  A    between atoms: O_30  and  C_32
REMARK                            x       y       z     vdW  Elec       q    Type
REMARK                         _______ _______ _______ _____ _____    ______ ____
ROOT
ATOM      1  F   UNL     1      31.702 -14.459 -20.064  0.00  0.00    -0.233 F 
ATOM      2  O   UNL     1      35.493 -17.036 -21.807  0.00  0.00    -0.287 OA
ATOM      3  C   UNL     1      33.056  -9.333 -23.337  0.00  0.00    +0.031 C 
ATOM      4  C   UNL     1      32.816 -10.189 -22.074  0.00  0.00    +0.003 C 
ATOM      5  C   UNL     1      32.407 -11.641 -22.372  0.00  0.00    +0.006 C 
ATOM      6  C   UNL     1      33.553 -12.330 -23.191  0.00  0.00    +0.034 C 
ATOM      7  C   UNL     1      33.387  -7.969 -22.655  0.00  0.00    +0.142 C 
ATOM      8  C   UNL     1      31.889  -9.325 -21.218  0.00  0.00    +0.003 C 
ATOM      9  C   UNL     1      34.198  -9.997 -24.134  0.00  0.00    +0.032 C 
ATOM     10  C   UNL     1      32.342  -7.870 -21.502  0.00  0.00    +0.032 C 
ATOM     11  C   UNL     1      33.962 -11.491 -24.445  0.00  0.00    +0.111 C 
ATOM     12  C   UNL     1      33.284 -13.869 -23.434  0.00  0.00    +0.039 C 
ATOM     13  C   UNL     1      32.130 -12.399 -21.064  0.00  0.00    +0.040 C 
ATOM     14  C   UNL     1      31.790  -9.192 -24.226  0.00  0.00    +0.003 C 
ATOM     15  C   UNL     1      31.862 -13.880 -21.290  0.00  0.00    +0.180 C 
ATOM     16  C   UNL     1      32.994 -14.504 -22.068  0.00  0.00    -0.006 C 
ATOM     17  C   UNL     1      32.843  -7.170 -20.241  0.00  0.00    +0.003 C 
ATOM     18  C   UNL     1      32.086 -14.153 -24.366  0.00  0.00    +0.009 C 
ATOM     19  C   UNL     1      34.498 -14.509 -24.093  0.00  0.00    -0.020 C 
ATOM     20  C   UNL     1      33.708 -15.517 -21.553  0.00  0.00    +0.036 C 
ATOM     21  C   UNL     1      35.213 -15.517 -23.583  0.00  0.00    +0.038 C 
ATOM     22  C   UNL     1      34.856 -16.100 -22.277  0.00  0.00    +0.195 C 
ENDROOT
BRANCH   7  23
ATOM     23  O   UNL     1      34.730  -7.903 -22.189  0.00  0.00    -0.380 OA
ATOM     24  H   UNL     1      34.915  -7.008 -21.866  0.00  0.00    +0.211 HD
ENDBRANCH   7  23
BRANCH  11  25
ATOM     25  O   UNL     1      32.989 -11.611 -25.475  0.00  0.00    -0.384 OA
ATOM     26  H   UNL     1      33.156 -10.940 -26.155  0.00  0.00    +0.210 HD
ENDBRANCH  11  25
BRANCH   7  28
ATOM     27  O   UNL     1      32.392  -5.987 -23.521  0.00  0.00    -0.290 OA
ATOM     28  C   UNL     1      33.321  -6.791 -23.579  0.00  0.00    +0.218 C 
BRANCH  28  29
ATOM     29  C   UNL     1      34.453  -6.655 -24.574  0.00  0.00    +0.274 C 
BRANCH  29  30
ATOM     30  O   UNL     1      33.949  -6.462 -25.879  0.00  0.00    -0.440 OA
BRANCH  30  32
ATOM     31  O   UNL     1      35.465  -5.075 -26.935  0.00  0.00    -0.250 OA
ATOM     32  C   UNL     1      34.341  -5.312 -26.515  0.00  0.00    +0.318 C 
ATOM     33  C   UNL     1      33.185  -4.364 -26.631  0.00  0.00    +0.121 C 
ENDBRANCH  30  32
ENDBRANCH  29  30
ENDBRANCH  28  29
ENDBRANCH   7  28
TORSDOF 6
ENDMDL
