MODEL 1
REMARK VINA RESULT:      -8.1      0.000      0.000
REMARK  Name = 68873
REMARK  0 active torsions:
REMARK  status: ('A' for Active; 'I' for Inactive)
REMARK                            x       y       z     vdW  Elec       q    Type
REMARK                         _______ _______ _______ _____ _____    ______ ____
ROOT
ATOM      1  O   UNL     1      34.605 -19.773 -20.774  0.00  0.00    -0.456 OA
ATOM      2  O   UNL     1      35.293 -21.585 -19.547  0.00  0.00    -0.250 OA
ATOM      3  O   UNL     1      32.643  -9.361 -24.062  0.00  0.00    -0.291 OA
ATOM      4  C   UNL     1      34.827 -16.883 -23.037  0.00  0.00    +0.003 C 
ATOM      5  C   UNL     1      34.989 -18.076 -23.937  0.00  0.00    +0.004 C 
ATOM      6  C   UNL     1      35.297 -19.238 -23.039  0.00  0.00    +0.037 C 
ATOM      7  C   UNL     1      34.423 -17.425 -21.632  0.00  0.00    +0.034 C 
ATOM      8  C   UNL     1      33.962 -15.709 -23.492  0.00  0.00    +0.001 C 
ATOM      9  C   UNL     1      35.240 -18.766 -21.577  0.00  0.00    +0.136 C 
ATOM     10  C   UNL     1      34.118 -19.296 -23.978  0.00  0.00    +0.004 C 
ATOM     11  C   UNL     1      34.342 -15.213 -24.865  0.00  0.00    +0.004 C 
ATOM     12  C   UNL     1      34.133 -14.537 -22.466  0.00  0.00    +0.003 C 
ATOM     13  C   UNL     1      34.116 -13.771 -25.232  0.00  0.00    +0.018 C 
ATOM     14  C   UNL     1      34.801 -16.288 -20.658  0.00  0.00    +0.003 C 
ATOM     15  C   UNL     1      33.267 -14.840 -25.855  0.00  0.00    +0.004 C 
ATOM     16  C   UNL     1      33.211 -13.310 -22.836  0.00  0.00    +0.016 C 
ATOM     17  C   UNL     1      34.026 -14.993 -20.982  0.00  0.00    +0.000 C 
ATOM     18  C   UNL     1      36.637 -18.666 -20.975  0.00  0.00    +0.052 C 
ATOM     19  C   UNL     1      33.533 -12.816 -24.262  0.00  0.00    -0.042 C 
ATOM     20  C   UNL     1      32.913 -17.722 -21.395  0.00  0.00    +0.003 C 
ATOM     21  C   UNL     1      33.481 -12.143 -21.846  0.00  0.00    +0.012 C 
ATOM     22  C   UNL     1      36.919 -20.087 -20.535  0.00  0.00    +0.113 C 
ATOM     23  C   UNL     1      31.710 -13.685 -22.763  0.00  0.00    +0.004 C 
ATOM     24  C   UNL     1      35.545 -20.587 -20.204  0.00  0.00    +0.317 C 
ATOM     25  C   UNL     1      33.378 -11.522 -24.607  0.00  0.00    +0.029 C 
ATOM     26  C   UNL     1      32.740 -10.859 -22.203  0.00  0.00    +0.069 C 
ATOM     27  C   UNL     1      32.907 -10.491 -23.654  0.00  0.00    +0.173 C 
ENDROOT
TORSDOF 0
ENDMDL
MODEL 2
REMARK VINA RESULT:      -7.1      1.467      2.423
REMARK  Name = 68873
REMARK  0 active torsions:
REMARK  status: ('A' for Active; 'I' for Inactive)
REMARK                            x       y       z     vdW  Elec       q    Type
REMARK                         _______ _______ _______ _____ _____    ______ ____
ROOT
ATOM      1  O   UNL     1      33.750 -18.196 -21.556  0.00  0.00    -0.456 OA
ATOM      2  O   UNL     1      34.302 -20.304 -20.841  0.00  0.00    -0.250 OA
ATOM      3  O   UNL     1      31.693  -7.296 -21.741  0.00  0.00    -0.291 OA
ATOM      4  C   UNL     1      34.219 -14.723 -22.669  0.00  0.00    +0.003 C 
ATOM      5  C   UNL     1      34.673 -15.554 -23.837  0.00  0.00    +0.004 C 
ATOM      6  C   UNL     1      34.874 -16.944 -23.307  0.00  0.00    +0.037 C 
ATOM      7  C   UNL     1      33.565 -15.698 -21.644  0.00  0.00    +0.034 C 
ATOM      8  C   UNL     1      33.380 -13.471 -22.918  0.00  0.00    +0.001 C 
ATOM      9  C   UNL     1      34.459 -16.977 -21.827  0.00  0.00    +0.136 C 
ATOM     10  C   UNL     1      33.937 -16.700 -24.465  0.00  0.00    +0.004 C 
ATOM     11  C   UNL     1      34.008 -12.550 -23.934  0.00  0.00    +0.004 C 
ATOM     12  C   UNL     1      33.225 -12.698 -21.564  0.00  0.00    +0.003 C 
ATOM     13  C   UNL     1      33.749 -11.069 -23.868  0.00  0.00    +0.018 C 
ATOM     14  C   UNL     1      33.625 -14.940 -20.300  0.00  0.00    +0.003 C 
ATOM     15  C   UNL     1      33.148 -11.882 -24.978  0.00  0.00    +0.004 C 
ATOM     16  C   UNL     1      32.307 -11.424 -21.731  0.00  0.00    +0.016 C 
ATOM     17  C   UNL     1      32.835 -13.616 -20.369  0.00  0.00    +0.000 C 
ATOM     18  C   UNL     1      35.678 -17.069 -20.915  0.00  0.00    +0.052 C 
ATOM     19  C   UNL     1      32.891 -10.488 -22.810  0.00  0.00    -0.042 C 
ATOM     20  C   UNL     1      32.070 -16.067 -21.873  0.00  0.00    +0.003 C 
ATOM     21  C   UNL     1      32.256 -10.644 -20.388  0.00  0.00    +0.012 C 
ATOM     22  C   UNL     1      35.974 -18.554 -20.895  0.00  0.00    +0.113 C 
ATOM     23  C   UNL     1      30.862 -11.813 -22.134  0.00  0.00    +0.004 C 
ATOM     24  C   UNL     1      34.608 -19.144 -21.069  0.00  0.00    +0.317 C 
ATOM     25  C   UNL     1      32.707  -9.154 -22.754  0.00  0.00    +0.029 C 
ATOM     26  C   UNL     1      31.506  -9.320 -20.483  0.00  0.00    +0.069 C 
ATOM     27  C   UNL     1      31.955  -8.496 -21.662  0.00  0.00    +0.173 C 
ENDROOT
TORSDOF 0
ENDMDL
MODEL 3
REMARK VINA RESULT:      -6.7      2.571      8.383
REMARK  Name = 68873
REMARK  0 active torsions:
REMARK  status: ('A' for Active; 'I' for Inactive)
REMARK                            x       y       z     vdW  Elec       q    Type
REMARK                         _______ _______ _______ _____ _____    ______ ____
ROOT
ATOM      1  O   UNL     1      31.163  -7.964 -21.696  0.00  0.00    -0.456 OA
ATOM      2  O   UNL     1      30.862  -5.695 -21.550  0.00  0.00    -0.250 OA
ATOM      3  O   UNL     1      35.066 -17.950 -24.549  0.00  0.00    -0.291 OA
ATOM      4  C   UNL     1      32.658 -11.269 -21.089  0.00  0.00    +0.003 C 
ATOM      5  C   UNL     1      31.967 -10.929 -19.798  0.00  0.00    +0.004 C 
ATOM      6  C   UNL     1      31.684  -9.456 -19.852  0.00  0.00    +0.037 C 
ATOM      7  C   UNL     1      32.235 -10.189 -22.130  0.00  0.00    +0.034 C 
ATOM      8  C   UNL     1      32.567 -12.691 -21.639  0.00  0.00    +0.001 C 
ATOM      9  C   UNL     1      32.131  -8.912 -21.219  0.00  0.00    +0.136 C 
ATOM     10  C   UNL     1      30.558 -10.439 -19.635  0.00  0.00    +0.004 C 
ATOM     11  C   UNL     1      32.949 -13.730 -20.614  0.00  0.00    +0.004 C 
ATOM     12  C   UNL     1      33.534 -12.814 -22.866  0.00  0.00    +0.003 C 
ATOM     13  C   UNL     1      33.541 -15.041 -21.057  0.00  0.00    +0.018 C 
ATOM     14  C   UNL     1      33.340 -10.239 -23.207  0.00  0.00    +0.003 C 
ATOM     15  C   UNL     1      32.148 -15.003 -20.497  0.00  0.00    +0.004 C 
ATOM     16  C   UNL     1      33.441 -14.243 -23.531  0.00  0.00    +0.016 C 
ATOM     17  C   UNL     1      33.412 -11.631 -23.870  0.00  0.00    +0.000 C 
ATOM     18  C   UNL     1      33.403  -8.083 -21.092  0.00  0.00    +0.052 C 
ATOM     19  C   UNL     1      33.768 -15.334 -22.490  0.00  0.00    -0.042 C 
ATOM     20  C   UNL     1      30.886 -10.412 -22.875  0.00  0.00    +0.003 C 
ATOM     21  C   UNL     1      34.479 -14.345 -24.683  0.00  0.00    +0.012 C 
ATOM     22  C   UNL     1      32.880  -6.720 -20.689  0.00  0.00    +0.113 C 
ATOM     23  C   UNL     1      32.029 -14.509 -24.110  0.00  0.00    +0.004 C 
ATOM     24  C   UNL     1      31.539  -6.693 -21.357  0.00  0.00    +0.317 C 
ATOM     25  C   UNL     1      34.333 -16.502 -22.854  0.00  0.00    +0.029 C 
ATOM     26  C   UNL     1      34.566 -15.737 -25.301  0.00  0.00    +0.069 C 
ATOM     27  C   UNL     1      34.691 -16.815 -24.256  0.00  0.00    +0.173 C 
ENDROOT
TORSDOF 0
ENDMDL
MODEL 4
REMARK VINA RESULT:      -6.7      4.313     10.621
REMARK  Name = 68873
REMARK  0 active torsions:
REMARK  status: ('A' for Active; 'I' for Inactive)
REMARK                            x       y       z     vdW  Elec       q    Type
REMARK                         _______ _______ _______ _____ _____    ______ ____
ROOT
ATOM      1  O   UNL     1      30.967  -5.262 -24.846  0.00  0.00    -0.456 OA
ATOM      2  O   UNL     1      31.037  -3.518 -26.333  0.00  0.00    -0.250 OA
ATOM      3  O   UNL     1      32.617 -15.114 -20.019  0.00  0.00    -0.291 OA
ATOM      4  C   UNL     1      32.072  -7.533 -22.173  0.00  0.00    +0.003 C 
ATOM      5  C   UNL     1      31.758  -6.246 -21.463  0.00  0.00    +0.004 C 
ATOM      6  C   UNL     1      31.685  -5.190 -22.527  0.00  0.00    +0.037 C 
ATOM      7  C   UNL     1      31.576  -7.375 -23.642  0.00  0.00    +0.034 C 
ATOM      8  C   UNL     1      31.651  -8.860 -21.544  0.00  0.00    +0.001 C 
ATOM      9  C   UNL     1      31.873  -5.853 -23.901  0.00  0.00    +0.136 C 
ATOM     10  C   UNL     1      30.513  -5.421 -21.604  0.00  0.00    +0.004 C 
ATOM     11  C   UNL     1      32.110  -8.989 -20.113  0.00  0.00    +0.004 C 
ATOM     12  C   UNL     1      32.276 -10.029 -22.382  0.00  0.00    +0.003 C 
ATOM     13  C   UNL     1      32.386 -10.350 -19.532  0.00  0.00    +0.018 C 
ATOM     14  C   UNL     1      32.379  -8.429 -24.434  0.00  0.00    +0.003 C 
ATOM     15  C   UNL     1      31.185  -9.575 -19.075  0.00  0.00    +0.004 C 
ATOM     16  C   UNL     1      31.826 -11.437 -21.828  0.00  0.00    +0.016 C 
ATOM     17  C   UNL     1      32.093  -9.855 -23.917  0.00  0.00    +0.000 C 
ATOM     18  C   UNL     1      33.245  -5.536 -24.484  0.00  0.00    +0.052 C 
ATOM     19  C   UNL     1      32.227 -11.577 -20.345  0.00  0.00    -0.042 C 
ATOM     20  C   UNL     1      30.072  -7.669 -23.918  0.00  0.00    +0.003 C 
ATOM     21  C   UNL     1      32.539 -12.560 -22.632  0.00  0.00    +0.012 C 
ATOM     22  C   UNL     1      33.032  -4.184 -25.133  0.00  0.00    +0.113 C 
ATOM     23  C   UNL     1      30.294 -11.633 -21.954  0.00  0.00    +0.004 C 
ATOM     24  C   UNL     1      31.590  -4.257 -25.534  0.00  0.00    +0.317 C 
ATOM     25  C   UNL     1      32.518 -12.778 -19.809  0.00  0.00    +0.029 C 
ATOM     26  C   UNL     1      32.277 -13.959 -22.084  0.00  0.00    +0.069 C 
ATOM     27  C   UNL     1      32.488 -14.034 -20.594  0.00  0.00    +0.173 C 
ENDROOT
TORSDOF 0
ENDMDL
MODEL 5
REMARK VINA RESULT:      -6.1     10.512     13.249
REMARK  Name = 68873
REMARK  0 active torsions:
REMARK  status: ('A' for Active; 'I' for Inactive)
REMARK                            x       y       z     vdW  Elec       q    Type
REMARK                         _______ _______ _______ _____ _____    ______ ____
ROOT
ATOM      1  O   UNL     1      29.538 -24.254 -16.196  0.00  0.00    -0.456 OA
ATOM      2  O   UNL     1      27.574 -23.885 -17.322  0.00  0.00    -0.250 OA
ATOM      3  O   UNL     1      40.291 -24.415 -13.470  0.00  0.00    -0.291 OA
ATOM      4  C   UNL     1      32.464 -23.539 -14.086  0.00  0.00    +0.003 C 
ATOM      5  C   UNL     1      31.310 -23.579 -13.123  0.00  0.00    +0.004 C 
ATOM      6  C   UNL     1      30.067 -23.474 -13.958  0.00  0.00    +0.037 C 
ATOM      7  C   UNL     1      31.925 -24.033 -15.463  0.00  0.00    +0.034 C 
ATOM      8  C   UNL     1      33.789 -24.192 -13.699  0.00  0.00    +0.001 C 
ATOM      9  C   UNL     1      30.464 -23.455 -15.443  0.00  0.00    +0.136 C 
ATOM     10  C   UNL     1      30.259 -24.645 -13.024  0.00  0.00    +0.004 C 
ATOM     11  C   UNL     1      34.286 -23.730 -12.351  0.00  0.00    +0.004 C 
ATOM     12  C   UNL     1      34.861 -23.827 -14.783  0.00  0.00    +0.003 C 
ATOM     13  C   UNL     1      35.763 -23.707 -12.062  0.00  0.00    +0.018 C 
ATOM     14  C   UNL     1      32.928 -23.470 -16.493  0.00  0.00    +0.003 C 
ATOM     15  C   UNL     1      34.887 -24.723 -11.389  0.00  0.00    +0.004 C 
ATOM     16  C   UNL     1      36.244 -24.527 -14.484  0.00  0.00    +0.016 C 
ATOM     17  C   UNL     1      34.351 -24.013 -16.242  0.00  0.00    +0.000 C 
ATOM     18  C   UNL     1      30.294 -22.062 -16.040  0.00  0.00    +0.052 C 
ATOM     19  C   UNL     1      36.750 -24.122 -13.084  0.00  0.00    -0.042 C 
ATOM     20  C   UNL     1      31.876 -25.572 -15.694  0.00  0.00    +0.003 C 
ATOM     21  C   UNL     1      37.294 -24.065 -15.532  0.00  0.00    +0.012 C 
ATOM     22  C   UNL     1      28.824 -22.027 -16.402  0.00  0.00    +0.113 C 
ATOM     23  C   UNL     1      36.125 -26.070 -14.547  0.00  0.00    +0.004 C 
ATOM     24  C   UNL     1      28.548 -23.466 -16.716  0.00  0.00    +0.317 C 
ATOM     25  C   UNL     1      38.068 -24.055 -12.808  0.00  0.00    +0.029 C 
ATOM     26  C   UNL     1      38.702 -24.578 -15.248  0.00  0.00    +0.069 C 
ATOM     27  C   UNL     1      39.112 -24.348 -13.817  0.00  0.00    +0.173 C 
ENDROOT
TORSDOF 0
ENDMDL
MODEL 6
REMARK VINA RESULT:      -6.1     10.513     12.367
REMARK  Name = 68873
REMARK  0 active torsions:
REMARK  status: ('A' for Active; 'I' for Inactive)
REMARK                            x       y       z     vdW  Elec       q    Type
REMARK                         _______ _______ _______ _____ _____    ______ ____
ROOT
ATOM      1  O   UNL     1      37.882 -23.978 -14.422  0.00  0.00    -0.456 OA
ATOM      2  O   UNL     1      40.122 -24.359 -14.731  0.00  0.00    -0.250 OA
ATOM      3  O   UNL     1      26.979 -22.991 -16.222  0.00  0.00    -0.291 OA
ATOM      4  C   UNL     1      34.322 -24.723 -13.879  0.00  0.00    +0.003 C 
ATOM      5  C   UNL     1      34.973 -25.028 -12.559  0.00  0.00    +0.004 C 
ATOM      6  C   UNL     1      36.446 -25.121 -12.832  0.00  0.00    +0.037 C 
ATOM      7  C   UNL     1      35.400 -24.033 -14.769  0.00  0.00    +0.034 C 
ATOM      8  C   UNL     1      32.978 -23.998 -13.904  0.00  0.00    +0.001 C 
ATOM      9  C   UNL     1      36.701 -24.787 -14.311  0.00  0.00    +0.136 C 
ATOM     10  C   UNL     1      35.923 -24.150 -11.801  0.00  0.00    +0.004 C 
ATOM     11  C   UNL     1      31.952 -24.656 -13.016  0.00  0.00    +0.004 C 
ATOM     12  C   UNL     1      32.442 -23.993 -15.378  0.00  0.00    +0.003 C 
ATOM     13  C   UNL     1      30.488 -24.547 -13.349  0.00  0.00    +0.018 C 
ATOM     14  C   UNL     1      34.896 -24.241 -16.214  0.00  0.00    +0.003 C 
ATOM     15  C   UNL     1      31.039 -23.810 -12.164  0.00  0.00    +0.004 C 
ATOM     16  C   UNL     1      31.084 -23.197 -15.493  0.00  0.00    +0.016 C 
ATOM     17  C   UNL     1      33.516 -23.582 -16.425  0.00  0.00    +0.000 C 
ATOM     18  C   UNL     1      37.056 -26.039 -15.105  0.00  0.00    +0.052 C 
ATOM     19  C   UNL     1      30.028 -23.809 -14.548  0.00  0.00    -0.042 C 
ATOM     20  C   UNL     1      35.592 -22.499 -14.588  0.00  0.00    +0.003 C 
ATOM     21  C   UNL     1      30.547 -23.296 -16.948  0.00  0.00    +0.012 C 
ATOM     22  C   UNL     1      38.541 -26.189 -14.853  0.00  0.00    +0.113 C 
ATOM     23  C   UNL     1      31.270 -21.701 -15.134  0.00  0.00    +0.004 C 
ATOM     24  C   UNL     1      38.971 -24.764 -14.680  0.00  0.00    +0.317 C 
ATOM     25  C   UNL     1      28.714 -23.761 -14.841  0.00  0.00    +0.029 C 
ATOM     26  C   UNL     1      29.167 -22.676 -17.131  0.00  0.00    +0.069 C 
ATOM     27  C   UNL     1      28.193 -23.137 -16.079  0.00  0.00    +0.173 C 
ENDROOT
TORSDOF 0
ENDMDL
MODEL 7
REMARK VINA RESULT:      -5.9      3.287      5.654
REMARK  Name = 68873
REMARK  0 active torsions:
REMARK  status: ('A' for Active; 'I' for Inactive)
REMARK                            x       y       z     vdW  Elec       q    Type
REMARK                         _______ _______ _______ _____ _____    ______ ____
ROOT
ATOM      1  O   UNL     1      31.971 -14.845 -21.788  0.00  0.00    -0.456 OA
ATOM      2  O   UNL     1      31.841 -16.944 -20.872  0.00  0.00    -0.250 OA
ATOM      3  O   UNL     1      31.948  -3.817 -22.994  0.00  0.00    -0.291 OA
ATOM      4  C   UNL     1      33.402 -11.575 -22.671  0.00  0.00    +0.003 C 
ATOM      5  C   UNL     1      34.148 -12.554 -23.535  0.00  0.00    +0.004 C 
ATOM      6  C   UNL     1      33.891 -13.910 -22.944  0.00  0.00    +0.037 C 
ATOM      7  C   UNL     1      32.242 -12.361 -21.989  0.00  0.00    +0.034 C 
ATOM      8  C   UNL     1      32.948 -10.243 -23.265  0.00  0.00    +0.001 C 
ATOM      9  C   UNL     1      32.916 -13.764 -21.765  0.00  0.00    +0.136 C 
ATOM     10  C   UNL     1      33.552 -13.634 -24.389  0.00  0.00    +0.004 C 
ATOM     11  C   UNL     1      34.071  -9.505 -23.950  0.00  0.00    +0.004 C 
ATOM     12  C   UNL     1      32.386  -9.347 -22.108  0.00  0.00    +0.003 C 
ATOM     13  C   UNL     1      34.049  -8.002 -24.022  0.00  0.00    +0.018 C 
ATOM     14  C   UNL     1      31.877 -11.512 -20.752  0.00  0.00    +0.003 C 
ATOM     15  C   UNL     1      33.825  -8.811 -25.266  0.00  0.00    +0.004 C 
ATOM     16  C   UNL     1      31.832  -7.976 -22.660  0.00  0.00    +0.016 C 
ATOM     17  C   UNL     1      31.406 -10.100 -21.163  0.00  0.00    +0.000 C 
ATOM     18  C   UNL     1      33.632 -13.950 -20.432  0.00  0.00    +0.052 C 
ATOM     19  C   UNL     1      32.943  -7.222 -23.420  0.00  0.00    -0.042 C 
ATOM     20  C   UNL     1      30.928 -12.536 -22.805  0.00  0.00    +0.003 C 
ATOM     21  C   UNL     1      31.371  -7.088 -21.471  0.00  0.00    +0.012 C 
ATOM     22  C   UNL     1      33.652 -15.455 -20.266  0.00  0.00    +0.113 C 
ATOM     23  C   UNL     1      30.630  -8.191 -23.614  0.00  0.00    +0.004 C 
ATOM     24  C   UNL     1      32.396 -15.861 -20.976  0.00  0.00    +0.317 C 
ATOM     25  C   UNL     1      32.970  -5.876 -23.468  0.00  0.00    +0.029 C 
ATOM     26  C   UNL     1      30.947  -5.685 -21.889  0.00  0.00    +0.069 C 
ATOM     27  C   UNL     1      31.958  -5.031 -22.793  0.00  0.00    +0.173 C 
ENDROOT
TORSDOF 0
ENDMDL
MODEL 8
REMARK VINA RESULT:      -5.8      9.390     12.754
REMARK  Name = 68873
REMARK  0 active torsions:
REMARK  status: ('A' for Active; 'I' for Inactive)
REMARK                            x       y       z     vdW  Elec       q    Type
REMARK                         _______ _______ _______ _____ _____    ______ ____
ROOT
ATOM      1  O   UNL     1      29.345 -22.905 -15.265  0.00  0.00    -0.456 OA
ATOM      2  O   UNL     1      27.056 -22.988 -15.380  0.00  0.00    -0.250 OA
ATOM      3  O   UNL     1      39.908 -25.360 -12.928  0.00  0.00    -0.291 OA
ATOM      4  C   UNL     1      32.846 -23.703 -16.057  0.00  0.00    +0.003 C 
ATOM      5  C   UNL     1      32.367 -22.911 -17.241  0.00  0.00    +0.004 C 
ATOM      6  C   UNL     1      30.868 -22.900 -17.156  0.00  0.00    +0.037 C 
ATOM      7  C   UNL     1      31.729 -23.622 -14.973  0.00  0.00    +0.034 C 
ATOM      8  C   UNL     1      34.241 -23.442 -15.492  0.00  0.00    +0.001 C 
ATOM      9  C   UNL     1      30.437 -23.618 -15.867  0.00  0.00    +0.136 C 
ATOM     10  C   UNL     1      31.637 -21.602 -17.210  0.00  0.00    +0.004 C 
ATOM     11  C   UNL     1      35.311 -23.493 -16.555  0.00  0.00    +0.004 C 
ATOM     12  C   UNL     1      34.553 -24.532 -14.410  0.00  0.00    +0.003 C 
ATOM     13  C   UNL     1      36.713 -23.901 -16.191  0.00  0.00    +0.018 C 
ATOM     14  C   UNL     1      31.991 -24.838 -14.059  0.00  0.00    +0.003 C 
ATOM     15  C   UNL     1      36.423 -22.474 -16.554  0.00  0.00    +0.004 C 
ATOM     16  C   UNL     1      35.957 -24.283 -13.731  0.00  0.00    +0.016 C 
ATOM     17  C   UNL     1      33.387 -24.756 -13.405  0.00  0.00    +0.000 C 
ATOM     18  C   UNL     1      29.838 -24.986 -16.173  0.00  0.00    +0.052 C 
ATOM     19  C   UNL     1      37.068 -24.268 -14.801  0.00  0.00    -0.042 C 
ATOM     20  C   UNL     1      31.729 -22.369 -14.048  0.00  0.00    +0.003 C 
ATOM     21  C   UNL     1      36.260 -25.435 -12.733  0.00  0.00    +0.012 C 
ATOM     22  C   UNL     1      28.398 -24.659 -16.507  0.00  0.00    +0.113 C 
ATOM     23  C   UNL     1      35.985 -22.939 -12.961  0.00  0.00    +0.004 C 
ATOM     24  C   UNL     1      28.152 -23.447 -15.660  0.00  0.00    +0.317 C 
ATOM     25  C   UNL     1      38.323 -24.666 -14.514  0.00  0.00    +0.029 C 
ATOM     26  C   UNL     1      37.657 -25.361 -12.126  0.00  0.00    +0.069 C 
ATOM     27  C   UNL     1      38.720 -25.152 -13.172  0.00  0.00    +0.173 C 
ENDROOT
TORSDOF 0
ENDMDL
MODEL 9
REMARK VINA RESULT:      -5.8      3.470      6.018
REMARK  Name = 68873
REMARK  0 active torsions:
REMARK  status: ('A' for Active; 'I' for Inactive)
REMARK                            x       y       z     vdW  Elec       q    Type
REMARK                         _______ _______ _______ _____ _____    ______ ____
ROOT
ATOM      1  O   UNL     1      34.669 -14.942 -24.184  0.00  0.00    -0.456 OA
ATOM      2  O   UNL     1      35.319 -16.932 -25.120  0.00  0.00    -0.250 OA
ATOM      3  O   UNL     1      31.597  -4.356 -22.923  0.00  0.00    -0.291 OA
ATOM      4  C   UNL     1      32.437 -12.208 -23.151  0.00  0.00    +0.003 C 
ATOM      5  C   UNL     1      32.091 -13.342 -22.227  0.00  0.00    +0.004 C 
ATOM      6  C   UNL     1      32.676 -14.578 -22.846  0.00  0.00    +0.037 C 
ATOM      7  C   UNL     1      33.708 -12.639 -23.945  0.00  0.00    +0.034 C 
ATOM      8  C   UNL     1      32.538 -10.789 -22.595  0.00  0.00    +0.001 C 
ATOM      9  C   UNL     1      33.453 -14.181 -24.112  0.00  0.00    +0.136 C 
ATOM     10  C   UNL     1      33.051 -14.183 -21.438  0.00  0.00    +0.004 C 
ATOM     11  C   UNL     1      31.317 -10.393 -21.803  0.00  0.00    +0.004 C 
ATOM     12  C   UNL     1      32.705  -9.794 -23.795  0.00  0.00    +0.003 C 
ATOM     13  C   UNL     1      30.907  -8.947 -21.725  0.00  0.00    +0.018 C 
ATOM     14  C   UNL     1      33.694 -11.748 -25.205  0.00  0.00    +0.003 C 
ATOM     15  C   UNL     1      31.471  -9.628 -20.512  0.00  0.00    +0.004 C 
ATOM     16  C   UNL     1      32.885  -8.309 -23.290  0.00  0.00    +0.016 C 
ATOM     17  C   UNL     1      33.770 -10.252 -24.833  0.00  0.00    +0.000 C 
ATOM     18  C   UNL     1      32.703 -14.596 -25.372  0.00  0.00    +0.052 C 
ATOM     19  C   UNL     1      31.678  -7.893 -22.424  0.00  0.00    -0.042 C 
ATOM     20  C   UNL     1      35.085 -12.407 -23.257  0.00  0.00    +0.003 C 
ATOM     21  C   UNL     1      32.957  -7.352 -24.513  0.00  0.00    +0.012 C 
ATOM     22  C   UNL     1      33.106 -16.045 -25.544  0.00  0.00    +0.113 C 
ATOM     23  C   UNL     1      34.180  -8.146 -22.456  0.00  0.00    +0.004 C 
ATOM     24  C   UNL     1      34.486 -16.054 -24.959  0.00  0.00    +0.317 C 
ATOM     25  C   UNL     1      31.265  -6.612 -22.366  0.00  0.00    +0.029 C 
ATOM     26  C   UNL     1      32.991  -5.877 -24.129  0.00  0.00    +0.069 C 
ATOM     27  C   UNL     1      31.921  -5.525 -23.129  0.00  0.00    +0.173 C 
ENDROOT
TORSDOF 0
ENDMDL
