MODEL 1
REMARK VINA RESULT:      -8.0      0.000      0.000
REMARK  Name = 14687
REMARK  3 active torsions:
REMARK  status: ('A' for Active; 'I' for Inactive)
REMARK    1  A    between atoms: C_6  and  O_19
REMARK    2  A    between atoms: C_6  and  C_23
REMARK    3  A    between atoms: C_18  and  O_21
REMARK                            x       y       z     vdW  Elec       q    Type
REMARK                         _______ _______ _______ _____ _____    ______ ____
ROOT
ATOM      1  C   UNL     1      35.943 -23.803 -14.915  0.00  0.00    +0.003 C 
ATOM      2  C   UNL     1      36.112 -24.905 -13.845  0.00  0.00    +0.033 C 
ATOM      3  C   UNL     1      34.658 -23.961 -15.734  0.00  0.00    +0.001 C 
ATOM      4  C   UNL     1      33.435 -23.900 -14.770  0.00  0.00    +0.004 C 
ATOM      5  C   UNL     1      34.926 -24.810 -12.868  0.00  0.00    +0.003 C 
ATOM      6  C   UNL     1      37.522 -24.543 -13.287  0.00  0.00    +0.142 C 
ATOM      7  C   UNL     1      37.282 -23.807 -15.648  0.00  0.00    +0.004 C 
ATOM      8  C   UNL     1      33.572 -24.901 -13.596  0.00  0.00    +0.000 C 
ATOM      9  C   UNL     1      32.100 -24.080 -15.553  0.00  0.00    +0.018 C 
ATOM     10  C   UNL     1      38.320 -24.178 -14.568  0.00  0.00    +0.039 C 
ATOM     11  C   UNL     1      34.531 -22.881 -16.816  0.00  0.00    +0.004 C 
ATOM     12  C   UNL     1      36.145 -26.346 -14.434  0.00  0.00    +0.003 C 
ATOM     13  C   UNL     1      32.031 -23.119 -16.733  0.00  0.00    -0.046 C 
ATOM     14  C   UNL     1      33.248 -23.065 -17.621  0.00  0.00    +0.022 C 
ATOM     15  C   UNL     1      30.884 -23.944 -14.610  0.00  0.00    +0.007 C 
ATOM     16  C   UNL     1      29.587 -23.719 -15.377  0.00  0.00    +0.034 C 
ATOM     17  C   UNL     1      30.946 -22.372 -17.003  0.00  0.00    -0.006 C 
ATOM     18  C   UNL     1      29.670 -22.448 -16.218  0.00  0.00    +0.132 C 
ENDROOT
BRANCH   6  19
ATOM     19  O   UNL     1      38.122 -25.650 -12.628  0.00  0.00    -0.375 OA
ATOM     20  H   UNL     1      38.643 -26.163 -13.265  0.00  0.00    +0.211 HD
ENDBRANCH   6  19
BRANCH  18  21
ATOM     21  O   UNL     1      28.555 -22.439 -17.106  0.00  0.00    -0.380 OA
ATOM     22  H   UNL     1      28.228 -21.531 -17.205  0.00  0.00    +0.211 HD
ENDBRANCH  18  21
BRANCH   6  23
ATOM     23  C   UNL     1      37.511 -23.400 -12.354  0.00  0.00    -0.053 C 
ATOM     24  C   UNL     1      37.502 -22.471 -11.593  0.00  0.00    -0.012 C 
ENDBRANCH   6  23
TORSDOF 3
ENDMDL
MODEL 2
REMARK VINA RESULT:      -7.6      1.342      3.138
REMARK  Name = 14687
REMARK  3 active torsions:
REMARK  status: ('A' for Active; 'I' for Inactive)
REMARK    1  A    between atoms: C_6  and  O_19
REMARK    2  A    between atoms: C_6  and  C_23
REMARK    3  A    between atoms: C_18  and  O_21
REMARK                            x       y       z     vdW  Elec       q    Type
REMARK                         _______ _______ _______ _____ _____    ______ ____
ROOT
ATOM      1  C   UNL     1      34.652 -24.543 -13.854  0.00  0.00    +0.003 C 
ATOM      2  C   UNL     1      35.727 -23.880 -14.744  0.00  0.00    +0.033 C 
ATOM      3  C   UNL     1      33.312 -23.801 -13.886  0.00  0.00    +0.001 C 
ATOM      4  C   UNL     1      32.785 -23.772 -15.352  0.00  0.00    +0.004 C 
ATOM      5  C   UNL     1      35.222 -23.896 -16.198  0.00  0.00    +0.003 C 
ATOM      6  C   UNL     1      36.960 -24.772 -14.410  0.00  0.00    +0.142 C 
ATOM      7  C   UNL     1      35.357 -24.722 -12.513  0.00  0.00    +0.004 C 
ATOM      8  C   UNL     1      33.846 -23.219 -16.338  0.00  0.00    +0.000 C 
ATOM      9  C   UNL     1      31.432 -23.004 -15.442  0.00  0.00    +0.018 C 
ATOM     10  C   UNL     1      36.833 -24.981 -12.877  0.00  0.00    +0.039 C 
ATOM     11  C   UNL     1      32.272 -24.454 -12.966  0.00  0.00    +0.004 C 
ATOM     12  C   UNL     1      36.037 -22.404 -14.351  0.00  0.00    +0.003 C 
ATOM     13  C   UNL     1      30.438 -23.537 -14.418  0.00  0.00    -0.046 C 
ATOM     14  C   UNL     1      30.951 -23.691 -13.010  0.00  0.00    +0.022 C 
ATOM     15  C   UNL     1      30.872 -23.040 -16.882  0.00  0.00    +0.007 C 
ATOM     16  C   UNL     1      29.398 -22.660 -16.931  0.00  0.00    +0.034 C 
ATOM     17  C   UNL     1      29.163 -23.835 -14.725  0.00  0.00    -0.006 C 
ATOM     18  C   UNL     1      28.564 -23.615 -16.082  0.00  0.00    +0.132 C 
ENDROOT
BRANCH   6  19
ATOM     19  O   UNL     1      38.180 -24.113 -14.722  0.00  0.00    -0.375 OA
ATOM     20  H   UNL     1      38.392 -24.250 -15.658  0.00  0.00    +0.211 HD
ENDBRANCH   6  19
BRANCH  18  21
ATOM     21  O   UNL     1      27.259 -23.055 -15.950  0.00  0.00    -0.380 OA
ATOM     22  H   UNL     1      26.641 -23.539 -16.519  0.00  0.00    +0.211 HD
ENDBRANCH  18  21
BRANCH   6  23
ATOM     23  C   UNL     1      36.948 -26.076 -15.102  0.00  0.00    -0.053 C 
ATOM     24  C   UNL     1      36.937 -27.137 -15.664  0.00  0.00    -0.012 C 
ENDBRANCH   6  23
TORSDOF 3
ENDMDL
MODEL 3
REMARK VINA RESULT:      -7.6      1.380      6.643
REMARK  Name = 14687
REMARK  3 active torsions:
REMARK  status: ('A' for Active; 'I' for Inactive)
REMARK    1  A    between atoms: C_6  and  O_19
REMARK    2  A    between atoms: C_6  and  C_23
REMARK    3  A    between atoms: C_18  and  O_21
REMARK                            x       y       z     vdW  Elec       q    Type
REMARK                         _______ _______ _______ _____ _____    ______ ____
ROOT
ATOM      1  C   UNL     1      32.553 -23.460 -15.814  0.00  0.00    +0.003 C 
ATOM      2  C   UNL     1      31.551 -23.412 -14.639  0.00  0.00    +0.033 C 
ATOM      3  C   UNL     1      33.989 -23.141 -15.385  0.00  0.00    +0.001 C 
ATOM      4  C   UNL     1      34.439 -24.180 -14.315  0.00  0.00    +0.004 C 
ATOM      5  C   UNL     1      31.974 -24.474 -13.606  0.00  0.00    +0.003 C 
ATOM      6  C   UNL     1      30.212 -23.654 -15.399  0.00  0.00    +0.142 C 
ATOM      7  C   UNL     1      31.897 -22.586 -16.880  0.00  0.00    +0.004 C 
ATOM      8  C   UNL     1      33.430 -24.280 -13.144  0.00  0.00    +0.000 C 
ATOM      9  C   UNL     1      35.889 -23.883 -13.827  0.00  0.00    +0.018 C 
ATOM     10  C   UNL     1      30.382 -22.799 -16.683  0.00  0.00    +0.039 C 
ATOM     11  C   UNL     1      34.959 -23.154 -16.574  0.00  0.00    +0.004 C 
ATOM     12  C   UNL     1      31.495 -22.030 -13.923  0.00  0.00    +0.003 C 
ATOM     13  C   UNL     1      36.838 -23.734 -15.009  0.00  0.00    -0.046 C 
ATOM     14  C   UNL     1      36.379 -22.826 -16.121  0.00  0.00    +0.022 C 
ATOM     15  C   UNL     1      36.364 -24.957 -12.822  0.00  0.00    +0.007 C 
ATOM     16  C   UNL     1      37.875 -24.933 -12.631  0.00  0.00    +0.034 C 
ATOM     17  C   UNL     1      38.034 -24.346 -15.066  0.00  0.00    -0.006 C 
ATOM     18  C   UNL     1      38.591 -25.184 -13.955  0.00  0.00    +0.132 C 
ENDROOT
BRANCH   6  19
ATOM     19  O   UNL     1      29.096 -23.202 -14.645  0.00  0.00    -0.375 OA
ATOM     20  H   UNL     1      28.908 -23.834 -13.934  0.00  0.00    +0.211 HD
ENDBRANCH   6  19
BRANCH  18  21
ATOM     21  O   UNL     1      39.972 -24.883 -13.767  0.00  0.00    -0.380 OA
ATOM     22  H   UNL     1      40.418 -24.860 -14.628  0.00  0.00    +0.211 HD
ENDBRANCH  18  21
BRANCH   6  23
ATOM     23  C   UNL     1      29.986 -25.068 -15.758  0.00  0.00    -0.053 C 
ATOM     24  C   UNL     1      29.801 -26.218 -16.050  0.00  0.00    -0.012 C 
ENDBRANCH   6  23
TORSDOF 3
ENDMDL
MODEL 4
REMARK VINA RESULT:      -7.2      4.947      8.215
REMARK  Name = 14687
REMARK  3 active torsions:
REMARK  status: ('A' for Active; 'I' for Inactive)
REMARK    1  A    between atoms: C_6  and  O_19
REMARK    2  A    between atoms: C_6  and  C_23
REMARK    3  A    between atoms: C_18  and  O_21
REMARK                            x       y       z     vdW  Elec       q    Type
REMARK                         _______ _______ _______ _____ _____    ______ ____
ROOT
ATOM      1  C   UNL     1      34.301 -19.828 -20.632  0.00  0.00    +0.003 C 
ATOM      2  C   UNL     1      35.535 -19.393 -21.454  0.00  0.00    +0.033 C 
ATOM      3  C   UNL     1      34.534 -21.123 -19.848  0.00  0.00    +0.001 C 
ATOM      4  C   UNL     1      35.726 -20.912 -18.867  0.00  0.00    +0.004 C 
ATOM      5  C   UNL     1      36.697 -19.140 -20.475  0.00  0.00    +0.003 C 
ATOM      6  C   UNL     1      34.955 -18.156 -22.203  0.00  0.00    +0.142 C 
ATOM      7  C   UNL     1      33.161 -19.783 -21.647  0.00  0.00    +0.004 C 
ATOM      8  C   UNL     1      36.983 -20.367 -19.591  0.00  0.00    +0.000 C 
ATOM      9  C   UNL     1      36.020 -22.212 -18.060  0.00  0.00    +0.018 C 
ATOM     10  C   UNL     1      33.530 -18.626 -22.599  0.00  0.00    +0.039 C 
ATOM     11  C   UNL     1      33.284 -21.557 -19.072  0.00  0.00    +0.004 C 
ATOM     12  C   UNL     1      35.997 -20.457 -22.495  0.00  0.00    +0.003 C 
ATOM     13  C   UNL     1      34.749 -22.746 -17.413  0.00  0.00    -0.046 C 
ATOM     14  C   UNL     1      33.540 -22.852 -18.307  0.00  0.00    +0.022 C 
ATOM     15  C   UNL     1      37.152 -21.980 -17.033  0.00  0.00    +0.007 C 
ATOM     16  C   UNL     1      37.197 -23.075 -15.976  0.00  0.00    +0.034 C 
ATOM     17  C   UNL     1      34.692 -23.133 -16.126  0.00  0.00    -0.006 C 
ATOM     18  C   UNL     1      35.879 -23.143 -15.210  0.00  0.00    +0.132 C 
ENDROOT
BRANCH   6  19
ATOM     19  O   UNL     1      35.715 -17.845 -23.363  0.00  0.00    -0.375 OA
ATOM     20  H   UNL     1      36.126 -18.653 -23.707  0.00  0.00    +0.211 HD
ENDBRANCH   6  19
BRANCH  18  21
ATOM     21  O   UNL     1      35.884 -24.342 -14.438  0.00  0.00    -0.380 OA
ATOM     22  H   UNL     1      36.582 -24.292 -13.767  0.00  0.00    +0.211 HD
ENDBRANCH  18  21
BRANCH   6  23
ATOM     23  C   UNL     1      34.873 -16.944 -21.364  0.00  0.00    -0.053 C 
ATOM     24  C   UNL     1      34.806 -15.959 -20.682  0.00  0.00    -0.012 C 
ENDBRANCH   6  23
TORSDOF 3
ENDMDL
MODEL 5
REMARK VINA RESULT:      -6.9     19.752     22.251
REMARK  Name = 14687
REMARK  3 active torsions:
REMARK  status: ('A' for Active; 'I' for Inactive)
REMARK    1  A    between atoms: C_6  and  O_19
REMARK    2  A    between atoms: C_6  and  C_23
REMARK    3  A    between atoms: C_18  and  O_21
REMARK                            x       y       z     vdW  Elec       q    Type
REMARK                         _______ _______ _______ _____ _____    ______ ____
ROOT
ATOM      1  C   UNL     1      32.890  -3.598 -26.281  0.00  0.00    +0.003 C 
ATOM      2  C   UNL     1      33.623  -4.273 -27.462  0.00  0.00    +0.033 C 
ATOM      3  C   UNL     1      32.229  -4.607 -25.336  0.00  0.00    +0.001 C 
ATOM      4  C   UNL     1      33.325  -5.551 -24.758  0.00  0.00    +0.004 C 
ATOM      5  C   UNL     1      34.736  -5.168 -26.887  0.00  0.00    +0.003 C 
ATOM      6  C   UNL     1      34.068  -3.018 -28.273  0.00  0.00    +0.142 C 
ATOM      7  C   UNL     1      32.014  -2.546 -26.957  0.00  0.00    +0.004 C 
ATOM      8  C   UNL     1      34.187  -6.191 -25.876  0.00  0.00    +0.000 C 
ATOM      9  C   UNL     1      32.699  -6.614 -23.807  0.00  0.00    +0.018 C 
ATOM     10  C   UNL     1      32.827  -2.090 -28.186  0.00  0.00    +0.039 C 
ATOM     11  C   UNL     1      31.474  -3.914 -24.194  0.00  0.00    +0.004 C 
ATOM     12  C   UNL     1      32.695  -5.156 -28.348  0.00  0.00    +0.003 C 
ATOM     13  C   UNL     1      31.813  -5.950 -22.761  0.00  0.00    -0.046 C 
ATOM     14  C   UNL     1      30.819  -4.941 -23.274  0.00  0.00    +0.022 C 
ATOM     15  C   UNL     1      33.795  -7.502 -23.174  0.00  0.00    +0.007 C 
ATOM     16  C   UNL     1      33.279  -8.271 -21.964  0.00  0.00    +0.034 C 
ATOM     17  C   UNL     1      31.879  -6.251 -21.452  0.00  0.00    -0.006 C 
ATOM     18  C   UNL     1      32.777  -7.312 -20.888  0.00  0.00    +0.132 C 
ENDROOT
BRANCH   6  19
ATOM     19  O   UNL     1      34.349  -3.345 -29.627  0.00  0.00    -0.375 OA
ATOM     20  H   UNL     1      35.309  -3.358 -29.764  0.00  0.00    +0.211 HD
ENDBRANCH   6  19
BRANCH  18  21
ATOM     21  O   UNL     1      32.069  -8.079 -19.917  0.00  0.00    -0.380 OA
ATOM     22  H   UNL     1      32.063  -7.603 -19.072  0.00  0.00    +0.211 HD
ENDBRANCH  18  21
BRANCH   6  23
ATOM     23  C   UNL     1      35.249  -2.339 -27.705  0.00  0.00    -0.053 C 
ATOM     24  C   UNL     1      36.210  -1.786 -27.245  0.00  0.00    -0.012 C 
ENDBRANCH   6  23
TORSDOF 3
ENDMDL
MODEL 6
REMARK VINA RESULT:      -6.7      2.453      3.391
REMARK  Name = 14687
REMARK  3 active torsions:
REMARK  status: ('A' for Active; 'I' for Inactive)
REMARK    1  A    between atoms: C_6  and  O_19
REMARK    2  A    between atoms: C_6  and  C_23
REMARK    3  A    between atoms: C_18  and  O_21
REMARK                            x       y       z     vdW  Elec       q    Type
REMARK                         _______ _______ _______ _____ _____    ______ ____
ROOT
ATOM      1  C   UNL     1      36.793 -23.593 -15.084  0.00  0.00    +0.003 C 
ATOM      2  C   UNL     1      36.043 -24.839 -14.562  0.00  0.00    +0.033 C 
ATOM      3  C   UNL     1      36.487 -23.289 -16.554  0.00  0.00    +0.001 C 
ATOM      4  C   UNL     1      34.957 -23.041 -16.712  0.00  0.00    +0.004 C 
ATOM      5  C   UNL     1      34.531 -24.571 -14.675  0.00  0.00    +0.003 C 
ATOM      6  C   UNL     1      36.639 -24.947 -13.126  0.00  0.00    +0.142 C 
ATOM      7  C   UNL     1      38.241 -23.849 -14.676  0.00  0.00    +0.004 C 
ATOM      8  C   UNL     1      34.118 -24.198 -16.111  0.00  0.00    +0.000 C 
ATOM      9  C   UNL     1      34.590 -22.750 -18.198  0.00  0.00    +0.018 C 
ATOM     10  C   UNL     1      38.142 -24.629 -13.349  0.00  0.00    +0.039 C 
ATOM     11  C   UNL     1      37.272 -22.072 -17.063  0.00  0.00    +0.004 C 
ATOM     12  C   UNL     1      36.369 -26.141 -15.354  0.00  0.00    +0.003 C 
ATOM     13  C   UNL     1      35.475 -21.649 -18.768  0.00  0.00    -0.046 C 
ATOM     14  C   UNL     1      36.956 -21.796 -18.530  0.00  0.00    +0.022 C 
ATOM     15  C   UNL     1      33.085 -22.430 -18.342  0.00  0.00    +0.007 C 
ATOM     16  C   UNL     1      32.768 -21.764 -19.675  0.00  0.00    +0.034 C 
ATOM     17  C   UNL     1      34.988 -20.610 -19.469  0.00  0.00    -0.006 C 
ATOM     18  C   UNL     1      33.539 -20.455 -19.823  0.00  0.00    +0.132 C 
ENDROOT
BRANCH   6  19
ATOM     19  O   UNL     1      36.482 -26.254 -12.592  0.00  0.00    -0.375 OA
ATOM     20  H   UNL     1      37.280 -26.501 -12.100  0.00  0.00    +0.211 HD
ENDBRANCH   6  19
BRANCH  18  21
ATOM     21  O   UNL     1      33.415 -20.026 -21.177  0.00  0.00    -0.380 OA
ATOM     22  H   UNL     1      33.767 -20.711 -21.766  0.00  0.00    +0.211 HD
ENDBRANCH  18  21
BRANCH   6  23
ATOM     23  C   UNL     1      36.054 -23.984 -12.172  0.00  0.00    -0.053 C 
ATOM     24  C   UNL     1      35.580 -23.201 -11.395  0.00  0.00    -0.012 C 
ENDBRANCH   6  23
TORSDOF 3
ENDMDL
MODEL 7
REMARK VINA RESULT:      -6.5      2.088      3.892
REMARK  Name = 14687
REMARK  3 active torsions:
REMARK  status: ('A' for Active; 'I' for Inactive)
REMARK    1  A    between atoms: C_6  and  O_19
REMARK    2  A    between atoms: C_6  and  C_23
REMARK    3  A    between atoms: C_18  and  O_21
REMARK                            x       y       z     vdW  Elec       q    Type
REMARK                         _______ _______ _______ _____ _____    ______ ____
ROOT
ATOM      1  C   UNL     1      36.384 -24.467 -14.319  0.00  0.00    +0.003 C 
ATOM      2  C   UNL     1      37.687 -23.728 -13.935  0.00  0.00    +0.033 C 
ATOM      3  C   UNL     1      35.398 -23.577 -15.082  0.00  0.00    +0.001 C 
ATOM      4  C   UNL     1      36.079 -23.073 -16.389  0.00  0.00    +0.004 C 
ATOM      5  C   UNL     1      38.380 -23.274 -15.233  0.00  0.00    +0.003 C 
ATOM      6  C   UNL     1      38.400 -24.831 -13.097  0.00  0.00    +0.142 C 
ATOM      7  C   UNL     1      35.933 -25.102 -13.007  0.00  0.00    +0.004 C 
ATOM      8  C   UNL     1      37.453 -22.412 -16.109  0.00  0.00    +0.000 C 
ATOM      9  C   UNL     1      35.123 -22.141 -17.191  0.00  0.00    +0.018 C 
ATOM     10  C   UNL     1      37.241 -25.440 -12.263  0.00  0.00    +0.039 C 
ATOM     11  C   UNL     1      34.097 -24.318 -15.417  0.00  0.00    +0.004 C 
ATOM     12  C   UNL     1      37.451 -22.474 -13.042  0.00  0.00    +0.003 C 
ATOM     13  C   UNL     1      33.766 -22.803 -17.394  0.00  0.00    -0.046 C 
ATOM     14  C   UNL     1      33.130 -23.408 -16.168  0.00  0.00    +0.022 C 
ATOM     15  C   UNL     1      35.770 -21.702 -18.525  0.00  0.00    +0.007 C 
ATOM     16  C   UNL     1      34.744 -21.134 -19.497  0.00  0.00    +0.034 C 
ATOM     17  C   UNL     1      33.140 -22.834 -18.584  0.00  0.00    -0.006 C 
ATOM     18  C   UNL     1      33.671 -22.170 -19.819  0.00  0.00    +0.132 C 
ENDROOT
BRANCH   6  19
ATOM     19  O   UNL     1      39.390 -24.277 -12.241  0.00  0.00    -0.375 OA
ATOM     20  H   UNL     1      39.591 -24.905 -11.529  0.00  0.00    +0.211 HD
ENDBRANCH   6  19
BRANCH  18  21
ATOM     21  O   UNL     1      32.612 -21.504 -20.503  0.00  0.00    -0.380 OA
ATOM     22  H   UNL     1      32.774 -20.548 -20.496  0.00  0.00    +0.211 HD
ENDBRANCH  18  21
BRANCH   6  23
ATOM     23  C   UNL     1      39.036 -25.879 -13.921  0.00  0.00    -0.053 C 
ATOM     24  C   UNL     1      39.553 -26.729 -14.592  0.00  0.00    -0.012 C 
ENDBRANCH   6  23
TORSDOF 3
ENDMDL
MODEL 8
REMARK VINA RESULT:      -6.5      5.401      8.496
REMARK  Name = 14687
REMARK  3 active torsions:
REMARK  status: ('A' for Active; 'I' for Inactive)
REMARK    1  A    between atoms: C_6  and  O_19
REMARK    2  A    between atoms: C_6  and  C_23
REMARK    3  A    between atoms: C_18  and  O_21
REMARK                            x       y       z     vdW  Elec       q    Type
REMARK                         _______ _______ _______ _____ _____    ______ ____
ROOT
ATOM      1  C   UNL     1      35.691 -19.696 -21.393  0.00  0.00    +0.003 C 
ATOM      2  C   UNL     1      34.504 -18.832 -21.876  0.00  0.00    +0.033 C 
ATOM      3  C   UNL     1      35.536 -20.160 -19.941  0.00  0.00    +0.001 C 
ATOM      4  C   UNL     1      34.232 -21.003 -19.816  0.00  0.00    +0.004 C 
ATOM      5  C   UNL     1      33.225 -19.684 -21.795  0.00  0.00    +0.003 C 
ATOM      6  C   UNL     1      35.005 -18.435 -23.298  0.00  0.00    +0.142 C 
ATOM      7  C   UNL     1      36.915 -18.867 -21.769  0.00  0.00    +0.004 C 
ATOM      8  C   UNL     1      33.000 -20.252 -20.382  0.00  0.00    +0.000 C 
ATOM      9  C   UNL     1      34.015 -21.479 -18.348  0.00  0.00    +0.018 C 
ATOM     10  C   UNL     1      36.510 -18.136 -23.066  0.00  0.00    +0.039 C 
ATOM     11  C   UNL     1      36.742 -20.983 -19.470  0.00  0.00    +0.004 C 
ATOM     12  C   UNL     1      34.287 -17.543 -21.028  0.00  0.00    +0.003 C 
ATOM     13  C   UNL     1      35.268 -22.159 -17.809  0.00  0.00    -0.046 C 
ATOM     14  C   UNL     1      36.567 -21.424 -18.019  0.00  0.00    +0.022 C 
ATOM     15  C   UNL     1      32.763 -22.378 -18.238  0.00  0.00    +0.007 C 
ATOM     16  C   UNL     1      32.741 -23.171 -16.938  0.00  0.00    +0.034 C 
ATOM     17  C   UNL     1      35.237 -23.335 -17.157  0.00  0.00    -0.006 C 
ATOM     18  C   UNL     1      33.970 -24.069 -16.831  0.00  0.00    +0.132 C 
ENDROOT
BRANCH   6  19
ATOM     19  O   UNL     1      34.338 -17.277 -23.781  0.00  0.00    -0.375 OA
ATOM     20  H   UNL     1      34.193 -17.361 -24.736  0.00  0.00    +0.211 HD
ENDBRANCH   6  19
BRANCH  18  21
ATOM     21  O   UNL     1      34.031 -24.569 -15.498  0.00  0.00    -0.380 OA
ATOM     22  H   UNL     1      33.235 -25.089 -15.311  0.00  0.00    +0.211 HD
ENDBRANCH  18  21
BRANCH   6  23
ATOM     23  C   UNL     1      34.850 -19.510 -24.298  0.00  0.00    -0.053 C 
ATOM     24  C   UNL     1      34.724 -20.383 -25.112  0.00  0.00    -0.012 C 
ENDBRANCH   6  23
TORSDOF 3
ENDMDL
MODEL 9
REMARK VINA RESULT:      -6.3     13.858     16.665
REMARK  Name = 14687
REMARK  3 active torsions:
REMARK  status: ('A' for Active; 'I' for Inactive)
REMARK    1  A    between atoms: C_6  and  O_19
REMARK    2  A    between atoms: C_6  and  C_23
REMARK    3  A    between atoms: C_18  and  O_21
REMARK                            x       y       z     vdW  Elec       q    Type
REMARK                         _______ _______ _______ _____ _____    ______ ____
ROOT
ATOM      1  C   UNL     1      32.345  -8.451 -22.107  0.00  0.00    +0.003 C 
ATOM      2  C   UNL     1      31.987  -8.202 -23.590  0.00  0.00    +0.033 C 
ATOM      3  C   UNL     1      31.800  -9.781 -21.579  0.00  0.00    +0.001 C 
ATOM      4  C   UNL     1      32.395 -10.944 -22.429  0.00  0.00    +0.004 C 
ATOM      5  C   UNL     1      32.618  -9.327 -24.431  0.00  0.00    +0.003 C 
ATOM      6  C   UNL     1      32.561  -6.765 -23.782  0.00  0.00    +0.142 C 
ATOM      7  C   UNL     1      31.919  -7.159 -21.415  0.00  0.00    +0.004 C 
ATOM      8  C   UNL     1      32.179 -10.722 -23.947  0.00  0.00    +0.000 C 
ATOM      9  C   UNL     1      31.851 -12.322 -21.945  0.00  0.00    +0.018 C 
ATOM     10  C   UNL     1      32.164  -6.053 -22.461  0.00  0.00    +0.039 C 
ATOM     11  C   UNL     1      32.132  -9.989 -20.096  0.00  0.00    +0.004 C 
ATOM     12  C   UNL     1      30.454  -8.185 -23.867  0.00  0.00    +0.003 C 
ATOM     13  C   UNL     1      32.028 -12.476 -20.440  0.00  0.00    -0.046 C 
ATOM     14  C   UNL     1      31.571 -11.316 -19.593  0.00  0.00    +0.022 C 
ATOM     15  C   UNL     1      32.499 -13.480 -22.738  0.00  0.00    +0.007 C 
ATOM     16  C   UNL     1      32.304 -14.823 -22.047  0.00  0.00    +0.034 C 
ATOM     17  C   UNL     1      32.538 -13.586 -19.876  0.00  0.00    -0.006 C 
ATOM     18  C   UNL     1      32.922 -14.810 -20.652  0.00  0.00    +0.132 C 
ENDROOT
BRANCH   6  19
ATOM     19  O   UNL     1      31.969  -6.112 -24.896  0.00  0.00    -0.375 OA
ATOM     20  H   UNL     1      31.009  -6.063 -24.770  0.00  0.00    +0.211 HD
ENDBRANCH   6  19
BRANCH  18  21
ATOM     21  O   UNL     1      32.477 -15.977 -19.966  0.00  0.00    -0.380 OA
ATOM     22  H   UNL     1      31.578 -16.199 -20.255  0.00  0.00    +0.211 HD
ENDBRANCH  18  21
BRANCH   6  23
ATOM     23  C   UNL     1      34.027  -6.735 -23.953  0.00  0.00    -0.053 C 
ATOM     24  C   UNL     1      35.220  -6.712 -24.093  0.00  0.00    -0.012 C 
ENDBRANCH   6  23
TORSDOF 3
ENDMDL
