MODEL 1
REMARK VINA RESULT:     -10.0      0.000      0.000
REMARK  Name = 6102686
REMARK  8 active torsions:
REMARK  status: ('A' for Active; 'I' for Inactive)
REMARK    1  A    between atoms: S_1  and  C_5
REMARK    2  A    between atoms: S_1  and  N_18
REMARK    3  A    between atoms: C_6  and  C_11
REMARK    4  A    between atoms: C_12  and  C_13
REMARK    5  A    between atoms: C_13  and  N_14
REMARK    6  A    between atoms: N_18  and  C_28
REMARK    7  A    between atoms: C_26  and  C_31
REMARK    8  A    between atoms: C_31  and  O_32
REMARK                            x       y       z     vdW  Elec       q    Type
REMARK                         _______ _______ _______ _____ _____    ______ ____
ROOT
ATOM      1  S   UNL     1      33.284 -14.524 -21.926  0.00  0.00    +0.074 S 
ATOM      2  O   UNL     1      34.445 -13.779 -21.478  0.00  0.00    -0.150 OA
ATOM      3  O   UNL     1      32.506 -15.290 -20.971  0.00  0.00    -0.150 OA
ENDROOT
BRANCH   1   5
ATOM      4  F   UNL     1      35.081 -18.144 -26.198  0.00  0.00    -0.204 F 
ATOM      5  C   UNL     1      33.842 -15.636 -23.185  0.00  0.00    +0.125 C 
ATOM      6  C   UNL     1      34.628 -16.734 -22.875  0.00  0.00    +0.021 C 
ATOM      7  C   UNL     1      33.466 -15.367 -24.493  0.00  0.00    +0.022 C 
ATOM      8  C   UNL     1      35.049 -17.585 -23.896  0.00  0.00    +0.031 C 
ATOM      9  C   UNL     1      33.886 -16.218 -25.514  0.00  0.00    +0.031 C 
ATOM     10  C   UNL     1      34.677 -17.328 -25.217  0.00  0.00    +0.140 C 
BRANCH   6  11
ATOM     11  C   UNL     1      35.040 -17.041 -21.511  0.00  0.00    -0.005 C 
ATOM     12  C   UNL     1      34.725 -18.161 -20.824  0.00  0.00    -0.049 C 
BRANCH  12  13
ATOM     13  C   UNL     1      33.886 -19.272 -21.381  0.00  0.00    -0.050 C 
BRANCH  13  14
ATOM     14  N   UNL     1      34.240 -20.558 -20.789  0.00  0.00    +0.387 N 
ATOM     15  C   UNL     1      35.593 -20.514 -20.234  0.00  0.00    -0.100 C 
ATOM     16  C   UNL     1      33.276 -20.931 -19.752  0.00  0.00    -0.100 C 
ATOM     17  H   UNL     1      34.214 -21.265 -21.524  0.00  0.00    -0.079 HD
ENDBRANCH  13  14
ENDBRANCH  12  13
ENDBRANCH   6  11
ENDBRANCH   1   5
BRANCH   1  18
ATOM     18  N   UNL     1      32.254 -13.470 -22.815  0.00  0.00    -0.215 N 
ATOM     19  H   UNL     1      31.406 -13.798 -23.193  0.00  0.00    +0.174 HD
BRANCH  18  28
ATOM     20  C   UNL     1      32.844  -7.400 -21.458  0.00  0.00    +0.005 C 
ATOM     21  C   UNL     1      32.056  -8.707 -21.400  0.00  0.00    +0.026 C 
ATOM     22  C   UNL     1      33.084  -6.987 -22.904  0.00  0.00    +0.005 C 
ATOM     23  C   UNL     1      32.598  -9.770 -22.323  0.00  0.00    -0.019 C 
ATOM     24  C   UNL     1      33.928  -8.036 -23.625  0.00  0.00    +0.026 C 
ATOM     25  C   UNL     1      33.448  -9.448 -23.397  0.00  0.00    -0.026 C 
ATOM     26  C   UNL     1      32.196 -11.102 -22.138  0.00  0.00    +0.086 C 
ATOM     27  C   UNL     1      33.908 -10.469 -24.242  0.00  0.00    -0.003 C 
ATOM     28  C   UNL     1      32.652 -12.106 -22.992  0.00  0.00    +0.071 C 
ATOM     29  C   UNL     1      33.510 -11.790 -24.041  0.00  0.00    +0.016 C 
BRANCH  26  31
ATOM     30  O   UNL     1      31.618 -11.741 -19.906  0.00  0.00    -0.245 OA
ATOM     31  C   UNL     1      31.280 -11.461 -21.056  0.00  0.00    +0.339 C 
BRANCH  31  32
ATOM     32  O   UNL     1      29.983 -11.455 -21.459  0.00  0.00    -0.477 OA
ATOM     33  H   UNL     1      29.429 -12.186 -21.268  0.00  0.00    +0.295 HD
ENDBRANCH  31  32
ENDBRANCH  26  31
ENDBRANCH  18  28
ENDBRANCH   1  18
TORSDOF 8
ENDMDL
MODEL 2
REMARK VINA RESULT:      -9.8      4.002      6.506
REMARK  Name = 6102686
REMARK  8 active torsions:
REMARK  status: ('A' for Active; 'I' for Inactive)
REMARK    1  A    between atoms: S_1  and  C_5
REMARK    2  A    between atoms: S_1  and  N_18
REMARK    3  A    between atoms: C_6  and  C_11
REMARK    4  A    between atoms: C_12  and  C_13
REMARK    5  A    between atoms: C_13  and  N_14
REMARK    6  A    between atoms: N_18  and  C_28
REMARK    7  A    between atoms: C_26  and  C_31
REMARK    8  A    between atoms: C_31  and  O_32
REMARK                            x       y       z     vdW  Elec       q    Type
REMARK                         _______ _______ _______ _____ _____    ______ ____
ROOT
ATOM      1  S   UNL     1      32.858  -9.415 -23.199  0.00  0.00    +0.074 S 
ATOM      2  O   UNL     1      31.684  -9.293 -24.043  0.00  0.00    -0.150 OA
ATOM      3  O   UNL     1      33.941 -10.296 -23.593  0.00  0.00    -0.150 OA
ENDROOT
BRANCH   1   5
ATOM      4  F   UNL     1      30.993 -11.022 -17.858  0.00  0.00    -0.204 F 
ATOM      5  C   UNL     1      32.291  -9.935 -21.606  0.00  0.00    +0.125 C 
ATOM      6  C   UNL     1      31.848 -11.230 -21.388  0.00  0.00    +0.021 C 
ATOM      7  C   UNL     1      32.303  -8.999 -20.582  0.00  0.00    +0.022 C 
ATOM      8  C   UNL     1      31.409 -11.599 -20.118  0.00  0.00    +0.031 C 
ATOM      9  C   UNL     1      31.863  -9.368 -19.312  0.00  0.00    +0.031 C 
ATOM     10  C   UNL     1      31.416 -10.668 -19.078  0.00  0.00    +0.140 C 
BRANCH   6  11
ATOM     11  C   UNL     1      31.823 -12.235 -22.443  0.00  0.00    -0.005 C 
ATOM     12  C   UNL     1      32.393 -13.459 -22.384  0.00  0.00    -0.049 C 
BRANCH  12  13
ATOM     13  C   UNL     1      33.151 -13.968 -21.193  0.00  0.00    -0.050 C 
BRANCH  13  14
ATOM     14  N   UNL     1      34.407 -14.597 -21.588  0.00  0.00    +0.387 N 
ATOM     15  C   UNL     1      34.604 -15.853 -20.862  0.00  0.00    -0.100 C 
ATOM     16  C   UNL     1      34.433 -14.834 -23.032  0.00  0.00    -0.100 C 
ATOM     17  H   UNL     1      35.170 -13.962 -21.350  0.00  0.00    -0.079 HD
ENDBRANCH  13  14
ENDBRANCH  12  13
ENDBRANCH   6  11
ENDBRANCH   1   5
BRANCH   1  18
ATOM     18  N   UNL     1      33.468  -7.842 -22.864  0.00  0.00    -0.215 N 
ATOM     19  H   UNL     1      33.864  -7.634 -21.986  0.00  0.00    +0.174 HD
BRANCH  18  28
ATOM     20  C   UNL     1      31.414  -2.719 -25.790  0.00  0.00    +0.005 C 
ATOM     21  C   UNL     1      31.165  -3.933 -24.898  0.00  0.00    +0.026 C 
ATOM     22  C   UNL     1      31.929  -3.157 -27.155  0.00  0.00    +0.005 C 
ATOM     23  C   UNL     1      32.307  -4.919 -24.902  0.00  0.00    -0.019 C 
ATOM     24  C   UNL     1      33.271  -3.875 -27.012  0.00  0.00    +0.026 C 
ATOM     25  C   UNL     1      33.276  -4.917 -25.921  0.00  0.00    -0.026 C 
ATOM     26  C   UNL     1      32.367  -5.895 -23.895  0.00  0.00    +0.086 C 
ATOM     27  C   UNL     1      34.307  -5.868 -25.893  0.00  0.00    -0.003 C 
ATOM     28  C   UNL     1      33.391  -6.841 -23.885  0.00  0.00    +0.071 C 
ATOM     29  C   UNL     1      34.362  -6.826 -24.881  0.00  0.00    +0.016 C 
BRANCH  26  31
ATOM     30  O   UNL     1      30.295  -6.578 -22.913  0.00  0.00    -0.245 OA
ATOM     31  C   UNL     1      31.350  -5.948 -22.846  0.00  0.00    +0.339 C 
BRANCH  31  32
ATOM     32  O   UNL     1      31.697  -5.211 -21.758  0.00  0.00    -0.477 OA
ATOM     33  H   UNL     1      31.679  -5.598 -20.905  0.00  0.00    +0.295 HD
ENDBRANCH  31  32
ENDBRANCH  26  31
ENDBRANCH  18  28
ENDBRANCH   1  18
TORSDOF 8
ENDMDL
MODEL 3
REMARK VINA RESULT:      -9.7      1.179      2.162
REMARK  Name = 6102686
REMARK  8 active torsions:
REMARK  status: ('A' for Active; 'I' for Inactive)
REMARK    1  A    between atoms: S_1  and  C_5
REMARK    2  A    between atoms: S_1  and  N_18
REMARK    3  A    between atoms: C_6  and  C_11
REMARK    4  A    between atoms: C_12  and  C_13
REMARK    5  A    between atoms: C_13  and  N_14
REMARK    6  A    between atoms: N_18  and  C_28
REMARK    7  A    between atoms: C_26  and  C_31
REMARK    8  A    between atoms: C_31  and  O_32
REMARK                            x       y       z     vdW  Elec       q    Type
REMARK                         _______ _______ _______ _____ _____    ______ ____
ROOT
ATOM      1  S   UNL     1      32.995 -14.550 -21.807  0.00  0.00    +0.074 S 
ATOM      2  O   UNL     1      34.101 -13.839 -21.194  0.00  0.00    -0.150 OA
ATOM      3  O   UNL     1      32.149 -15.405 -20.997  0.00  0.00    -0.150 OA
ENDROOT
BRANCH   1   5
ATOM      4  F   UNL     1      35.210 -17.767 -26.205  0.00  0.00    -0.204 F 
ATOM      5  C   UNL     1      33.680 -15.541 -23.104  0.00  0.00    +0.125 C 
ATOM      6  C   UNL     1      34.527 -16.602 -22.826  0.00  0.00    +0.021 C 
ATOM      7  C   UNL     1      33.339 -15.216 -24.409  0.00  0.00    +0.022 C 
ATOM      8  C   UNL     1      35.046 -17.357 -23.877  0.00  0.00    +0.031 C 
ATOM      9  C   UNL     1      33.858 -15.971 -25.460  0.00  0.00    +0.031 C 
ATOM     10  C   UNL     1      34.711 -17.042 -25.195  0.00  0.00    +0.140 C 
BRANCH   6  11
ATOM     11  C   UNL     1      34.904 -16.966 -21.466  0.00  0.00    -0.005 C 
ATOM     12  C   UNL     1      34.963 -18.223 -20.972  0.00  0.00    -0.049 C 
BRANCH  12  13
ATOM     13  C   UNL     1      34.640 -19.449 -21.774  0.00  0.00    -0.050 C 
BRANCH  13  14
ATOM     14  N   UNL     1      34.094 -20.509 -20.933  0.00  0.00    +0.387 N 
ATOM     15  C   UNL     1      35.051 -20.885 -19.891  0.00  0.00    -0.100 C 
ATOM     16  C   UNL     1      32.827 -20.089 -20.333  0.00  0.00    -0.100 C 
ATOM     17  H   UNL     1      33.919 -21.324 -21.521  0.00  0.00    -0.079 HD
ENDBRANCH  13  14
ENDBRANCH  12  13
ENDBRANCH   6  11
ENDBRANCH   1   5
BRANCH   1  18
ATOM     18  N   UNL     1      32.031 -13.429 -22.687  0.00  0.00    -0.215 N 
ATOM     19  H   UNL     1      31.495 -13.725 -23.458  0.00  0.00    +0.174 HD
BRANCH  18  28
ATOM     20  C   UNL     1      33.121  -7.287 -23.035  0.00  0.00    +0.005 C 
ATOM     21  C   UNL     1      33.519  -8.730 -23.341  0.00  0.00    +0.026 C 
ATOM     22  C   UNL     1      33.013  -7.071 -21.532  0.00  0.00    +0.005 C 
ATOM     23  C   UNL     1      32.713  -9.745 -22.569  0.00  0.00    -0.019 C 
ATOM     24  C   UNL     1      31.918  -7.958 -20.943  0.00  0.00    +0.026 C 
ATOM     25  C   UNL     1      31.991  -9.389 -21.416  0.00  0.00    -0.026 C 
ATOM     26  C   UNL     1      32.732 -11.086 -22.983  0.00  0.00    +0.086 C 
ATOM     27  C   UNL     1      31.274 -10.374 -20.720  0.00  0.00    -0.003 C 
ATOM     28  C   UNL     1      32.024 -12.057 -22.277  0.00  0.00    +0.071 C 
ATOM     29  C   UNL     1      31.293 -11.701 -21.148  0.00  0.00    +0.016 C 
BRANCH  26  31
ATOM     30  O   UNL     1      33.213 -11.238 -25.322  0.00  0.00    -0.245 OA
ATOM     31  C   UNL     1      33.507 -11.494 -24.154  0.00  0.00    +0.339 C 
BRANCH  31  32
ATOM     32  O   UNL     1      34.614 -12.203 -23.815  0.00  0.00    -0.477 OA
ATOM     33  H   UNL     1      34.542 -13.114 -23.606  0.00  0.00    +0.295 HD
ENDBRANCH  31  32
ENDBRANCH  26  31
ENDBRANCH  18  28
ENDBRANCH   1  18
TORSDOF 8
ENDMDL
MODEL 4
REMARK VINA RESULT:      -9.6      3.332      9.241
REMARK  Name = 6102686
REMARK  8 active torsions:
REMARK  status: ('A' for Active; 'I' for Inactive)
REMARK    1  A    between atoms: S_1  and  C_5
REMARK    2  A    between atoms: S_1  and  N_18
REMARK    3  A    between atoms: C_6  and  C_11
REMARK    4  A    between atoms: C_12  and  C_13
REMARK    5  A    between atoms: C_13  and  N_14
REMARK    6  A    between atoms: N_18  and  C_28
REMARK    7  A    between atoms: C_26  and  C_31
REMARK    8  A    between atoms: C_31  and  O_32
REMARK                            x       y       z     vdW  Elec       q    Type
REMARK                         _______ _______ _______ _____ _____    ______ ____
ROOT
ATOM      1  S   UNL     1      35.970 -18.282 -21.630  0.00  0.00    +0.074 S 
ATOM      2  O   UNL     1      35.533 -17.550 -20.457  0.00  0.00    -0.150 OA
ATOM      3  O   UNL     1      37.384 -18.360 -21.946  0.00  0.00    -0.150 OA
ENDROOT
BRANCH   1   5
ATOM      4  F   UNL     1      33.236 -16.007 -26.314  0.00  0.00    -0.204 F 
ATOM      5  C   UNL     1      35.144 -17.563 -23.021  0.00  0.00    +0.125 C 
ATOM      6  C   UNL     1      34.688 -16.255 -22.987  0.00  0.00    +0.021 C 
ATOM      7  C   UNL     1      34.968 -18.357 -24.144  0.00  0.00    +0.022 C 
ATOM      8  C   UNL     1      34.041 -15.727 -24.104  0.00  0.00    +0.031 C 
ATOM      9  C   UNL     1      34.322 -17.829 -25.261  0.00  0.00    +0.031 C 
ATOM     10  C   UNL     1      33.858 -16.514 -25.242  0.00  0.00    +0.140 C 
BRANCH   6  11
ATOM     11  C   UNL     1      34.857 -15.397 -21.822  0.00  0.00    -0.005 C 
ATOM     12  C   UNL     1      33.882 -14.687 -21.215  0.00  0.00    -0.049 C 
BRANCH  12  13
ATOM     13  C   UNL     1      32.451 -14.681 -21.667  0.00  0.00    -0.050 C 
BRANCH  13  14
ATOM     14  N   UNL     1      31.934 -13.322 -21.786  0.00  0.00    +0.387 N 
ATOM     15  C   UNL     1      32.074 -12.604 -20.519  0.00  0.00    -0.100 C 
ATOM     16  C   UNL     1      32.622 -12.601 -22.858  0.00  0.00    -0.100 C 
ATOM     17  H   UNL     1      30.942 -13.377 -22.019  0.00  0.00    -0.079 HD
ENDBRANCH  13  14
ENDBRANCH  12  13
ENDBRANCH   6  11
ENDBRANCH   1   5
BRANCH   1  18
ATOM     18  N   UNL     1      35.287 -19.861 -21.588  0.00  0.00    -0.215 N 
ATOM     19  H   UNL     1      34.848 -20.240 -22.384  0.00  0.00    +0.174 HD
BRANCH  18  28
ATOM     20  C   UNL     1      33.328 -23.482 -16.889  0.00  0.00    +0.005 C 
ATOM     21  C   UNL     1      33.067 -22.400 -17.935  0.00  0.00    +0.026 C 
ATOM     22  C   UNL     1      34.446 -23.055 -15.948  0.00  0.00    +0.005 C 
ATOM     23  C   UNL     1      34.327 -21.878 -18.578  0.00  0.00    -0.019 C 
ATOM     24  C   UNL     1      35.751 -22.871 -16.719  0.00  0.00    +0.026 C 
ATOM     25  C   UNL     1      35.588 -22.065 -17.984  0.00  0.00    -0.026 C 
ATOM     26  C   UNL     1      34.229 -21.139 -19.767  0.00  0.00    +0.086 C 
ATOM     27  C   UNL     1      36.730 -21.541 -18.610  0.00  0.00    -0.003 C 
ATOM     28  C   UNL     1      35.370 -20.615 -20.374  0.00  0.00    +0.071 C 
ATOM     29  C   UNL     1      36.620 -20.818 -19.797  0.00  0.00    +0.016 C 
BRANCH  26  31
ATOM     30  O   UNL     1      32.190 -21.759 -20.855  0.00  0.00    -0.245 OA
ATOM     31  C   UNL     1      32.927 -20.892 -20.387  0.00  0.00    +0.339 C 
BRANCH  31  32
ATOM     32  O   UNL     1      32.604 -19.573 -20.392  0.00  0.00    -0.477 OA
ATOM     33  H   UNL     1      33.049 -18.979 -19.820  0.00  0.00    +0.295 HD
ENDBRANCH  31  32
ENDBRANCH  26  31
ENDBRANCH  18  28
ENDBRANCH   1  18
TORSDOF 8
ENDMDL
MODEL 5
REMARK VINA RESULT:      -9.3      2.910      7.898
REMARK  Name = 6102686
REMARK  8 active torsions:
REMARK  status: ('A' for Active; 'I' for Inactive)
REMARK    1  A    between atoms: S_1  and  C_5
REMARK    2  A    between atoms: S_1  and  N_18
REMARK    3  A    between atoms: C_6  and  C_11
REMARK    4  A    between atoms: C_12  and  C_13
REMARK    5  A    between atoms: C_13  and  N_14
REMARK    6  A    between atoms: N_18  and  C_28
REMARK    7  A    between atoms: C_26  and  C_31
REMARK    8  A    between atoms: C_31  and  O_32
REMARK                            x       y       z     vdW  Elec       q    Type
REMARK                         _______ _______ _______ _____ _____    ______ ____
ROOT
ATOM      1  S   UNL     1      33.155 -12.945 -24.149  0.00  0.00    +0.074 S 
ATOM      2  O   UNL     1      33.124 -13.213 -25.574  0.00  0.00    -0.150 OA
ATOM      3  O   UNL     1      31.989 -13.233 -23.335  0.00  0.00    -0.150 OA
ENDROOT
BRANCH   1   5
ATOM      4  F   UNL     1      34.521  -7.251 -23.594  0.00  0.00    -0.204 F 
ATOM      5  C   UNL     1      33.534 -11.226 -23.959  0.00  0.00    +0.125 C 
ATOM      6  C   UNL     1      32.703 -10.383 -23.240  0.00  0.00    +0.021 C 
ATOM      7  C   UNL     1      34.692 -10.754 -24.559  0.00  0.00    +0.022 C 
ATOM      8  C   UNL     1      33.037  -9.035 -23.116  0.00  0.00    +0.031 C 
ATOM      9  C   UNL     1      35.027  -9.407 -24.435  0.00  0.00    +0.031 C 
ATOM     10  C   UNL     1      34.200  -8.546 -23.713  0.00  0.00    +0.140 C 
BRANCH   6  11
ATOM     11  C   UNL     1      31.479 -10.849 -22.600  0.00  0.00    -0.005 C 
ATOM     12  C   UNL     1      31.334 -11.138 -21.289  0.00  0.00    -0.049 C 
BRANCH  12  13
ATOM     13  C   UNL     1      32.438 -11.016 -20.281  0.00  0.00    -0.050 C 
BRANCH  13  14
ATOM     14  N   UNL     1      32.079 -10.104 -19.201  0.00  0.00    +0.387 N 
ATOM     15  C   UNL     1      32.093  -8.718 -19.671  0.00  0.00    -0.100 C 
ATOM     16  C   UNL     1      30.764 -10.442 -18.656  0.00  0.00    -0.100 C 
ATOM     17  H   UNL     1      32.772 -10.201 -18.458  0.00  0.00    -0.079 HD
ENDBRANCH  13  14
ENDBRANCH  12  13
ENDBRANCH   6  11
ENDBRANCH   1   5
BRANCH   1  18
ATOM     18  N   UNL     1      34.548 -13.693 -23.470  0.00  0.00    -0.215 N 
ATOM     19  H   UNL     1      35.292 -13.149 -23.126  0.00  0.00    +0.174 HD
BRANCH  18  28
ATOM     20  C   UNL     1      33.985 -19.406 -21.006  0.00  0.00    +0.005 C 
ATOM     21  C   UNL     1      34.281 -17.915 -20.858  0.00  0.00    +0.026 C 
ATOM     22  C   UNL     1      34.954 -20.047 -21.991  0.00  0.00    +0.005 C 
ATOM     23  C   UNL     1      34.463 -17.211 -22.180  0.00  0.00    -0.019 C 
ATOM     24  C   UNL     1      34.788 -19.430 -23.379  0.00  0.00    +0.026 C 
ATOM     25  C   UNL     1      34.742 -17.923 -23.360  0.00  0.00    -0.026 C 
ATOM     26  C   UNL     1      34.409 -15.809 -22.217  0.00  0.00    +0.086 C 
ATOM     27  C   UNL     1      34.925 -17.220 -24.561  0.00  0.00    -0.003 C 
ATOM     28  C   UNL     1      34.603 -15.123 -23.415  0.00  0.00    +0.071 C 
ATOM     29  C   UNL     1      34.858 -15.828 -24.587  0.00  0.00    +0.016 C 
BRANCH  26  31
ATOM     30  O   UNL     1      35.022 -14.711 -20.182  0.00  0.00    -0.245 OA
ATOM     31  C   UNL     1      34.162 -15.039 -20.998  0.00  0.00    +0.339 C 
BRANCH  31  32
ATOM     32  O   UNL     1      32.851 -14.713 -20.854  0.00  0.00    -0.477 OA
ATOM     33  H   UNL     1      32.393 -14.293 -21.555  0.00  0.00    +0.295 HD
ENDBRANCH  31  32
ENDBRANCH  26  31
ENDBRANCH  18  28
ENDBRANCH   1  18
TORSDOF 8
ENDMDL
MODEL 6
REMARK VINA RESULT:      -9.1      3.188      9.291
REMARK  Name = 6102686
REMARK  8 active torsions:
REMARK  status: ('A' for Active; 'I' for Inactive)
REMARK    1  A    between atoms: S_1  and  C_5
REMARK    2  A    between atoms: S_1  and  N_18
REMARK    3  A    between atoms: C_6  and  C_11
REMARK    4  A    between atoms: C_12  and  C_13
REMARK    5  A    between atoms: C_13  and  N_14
REMARK    6  A    between atoms: N_18  and  C_28
REMARK    7  A    between atoms: C_26  and  C_31
REMARK    8  A    between atoms: C_31  and  O_32
REMARK                            x       y       z     vdW  Elec       q    Type
REMARK                         _______ _______ _______ _____ _____    ______ ____
ROOT
ATOM      1  S   UNL     1      35.569 -18.173 -21.713  0.00  0.00    +0.074 S 
ATOM      2  O   UNL     1      34.933 -17.601 -20.541  0.00  0.00    -0.150 OA
ATOM      3  O   UNL     1      37.015 -18.161 -21.827  0.00  0.00    -0.150 OA
ENDROOT
BRANCH   1   5
ATOM      4  F   UNL     1      33.379 -15.465 -26.453  0.00  0.00    -0.204 F 
ATOM      5  C   UNL     1      34.909 -17.324 -23.119  0.00  0.00    +0.125 C 
ATOM      6  C   UNL     1      34.578 -15.981 -23.056  0.00  0.00    +0.021 C 
ATOM      7  C   UNL     1      34.733 -18.054 -24.285  0.00  0.00    +0.022 C 
ATOM      8  C   UNL     1      34.059 -15.350 -24.186  0.00  0.00    +0.031 C 
ATOM      9  C   UNL     1      34.215 -17.423 -25.415  0.00  0.00    +0.031 C 
ATOM     10  C   UNL     1      33.877 -16.071 -25.367  0.00  0.00    +0.140 C 
BRANCH   6  11
ATOM     11  C   UNL     1      34.750 -15.188 -21.845  0.00  0.00    -0.005 C 
ATOM     12  C   UNL     1      33.777 -14.508 -21.200  0.00  0.00    -0.049 C 
BRANCH  12  13
ATOM     13  C   UNL     1      32.346 -14.472 -21.650  0.00  0.00    -0.050 C 
BRANCH  13  14
ATOM     14  N   UNL     1      31.856 -13.103 -21.767  0.00  0.00    +0.387 N 
ATOM     15  C   UNL     1      31.953 -12.411 -20.481  0.00  0.00    -0.100 C 
ATOM     16  C   UNL     1      32.602 -12.374 -22.794  0.00  0.00    -0.100 C 
ATOM     17  H   UNL     1      30.874 -13.138 -22.043  0.00  0.00    -0.079 HD
ENDBRANCH  13  14
ENDBRANCH  12  13
ENDBRANCH   6  11
ENDBRANCH   1   5
BRANCH   1  18
ATOM     18  N   UNL     1      34.972 -19.769 -21.948  0.00  0.00    -0.215 N 
ATOM     19  H   UNL     1      35.009 -20.193 -22.836  0.00  0.00    +0.174 HD
BRANCH  18  28
ATOM     20  C   UNL     1      34.915 -22.773 -16.471  0.00  0.00    +0.005 C 
ATOM     21  C   UNL     1      35.608 -22.407 -17.782  0.00  0.00    +0.026 C 
ATOM     22  C   UNL     1      33.593 -23.477 -16.745  0.00  0.00    +0.005 C 
ATOM     23  C   UNL     1      34.686 -21.747 -18.777  0.00  0.00    -0.019 C 
ATOM     24  C   UNL     1      32.640 -22.549 -17.496  0.00  0.00    +0.026 C 
ATOM     25  C   UNL     1      33.288 -21.848 -18.664  0.00  0.00    -0.026 C 
ATOM     26  C   UNL     1      35.242 -21.066 -19.872  0.00  0.00    +0.086 C 
ATOM     27  C   UNL     1      32.473 -21.235 -19.628  0.00  0.00    -0.003 C 
ATOM     28  C   UNL     1      34.421 -20.470 -20.828  0.00  0.00    +0.071 C 
ATOM     29  C   UNL     1      33.037 -20.552 -20.705  0.00  0.00    +0.016 C 
BRANCH  26  31
ATOM     30  O   UNL     1      37.392 -21.823 -20.598  0.00  0.00    -0.245 OA
ATOM     31  C   UNL     1      36.692 -20.979 -20.038  0.00  0.00    +0.339 C 
BRANCH  31  32
ATOM     32  O   UNL     1      37.203 -19.843 -19.498  0.00  0.00    -0.477 OA
ATOM     33  H   UNL     1      37.413 -19.810 -18.586  0.00  0.00    +0.295 HD
ENDBRANCH  31  32
ENDBRANCH  26  31
ENDBRANCH  18  28
ENDBRANCH   1  18
TORSDOF 8
ENDMDL
MODEL 7
REMARK VINA RESULT:      -9.1      7.321     10.920
REMARK  Name = 6102686
REMARK  8 active torsions:
REMARK  status: ('A' for Active; 'I' for Inactive)
REMARK    1  A    between atoms: S_1  and  C_5
REMARK    2  A    between atoms: S_1  and  N_18
REMARK    3  A    between atoms: C_6  and  C_11
REMARK    4  A    between atoms: C_12  and  C_13
REMARK    5  A    between atoms: C_13  and  N_14
REMARK    6  A    between atoms: N_18  and  C_28
REMARK    7  A    between atoms: C_26  and  C_31
REMARK    8  A    between atoms: C_31  and  O_32
REMARK                            x       y       z     vdW  Elec       q    Type
REMARK                         _______ _______ _______ _____ _____    ______ ____
ROOT
ATOM      1  S   UNL     1      35.960 -22.562 -16.429  0.00  0.00    +0.074 S 
ATOM      2  O   UNL     1      37.065 -23.498 -16.354  0.00  0.00    -0.150 OA
ATOM      3  O   UNL     1      36.159 -21.178 -16.041  0.00  0.00    -0.150 OA
ENDROOT
BRANCH   1   5
ATOM      4  F   UNL     1      31.561 -24.763 -13.205  0.00  0.00    -0.204 F 
ATOM      5  C   UNL     1      34.659 -23.222 -15.427  0.00  0.00    +0.125 C 
ATOM      6  C   UNL     1      34.843 -23.455 -14.074  0.00  0.00    +0.021 C 
ATOM      7  C   UNL     1      33.449 -23.499 -16.046  0.00  0.00    +0.022 C 
ATOM      8  C   UNL     1      33.793 -23.978 -13.320  0.00  0.00    +0.031 C 
ATOM      9  C   UNL     1      32.399 -24.021 -15.292  0.00  0.00    +0.031 C 
ATOM     10  C   UNL     1      32.570 -24.261 -13.929  0.00  0.00    +0.140 C 
BRANCH   6  11
ATOM     11  C   UNL     1      36.103 -23.175 -13.396  0.00  0.00    -0.005 C 
ATOM     12  C   UNL     1      37.060 -24.081 -13.101  0.00  0.00    -0.049 C 
BRANCH  12  13
ATOM     13  C   UNL     1      36.959 -25.540 -13.438  0.00  0.00    -0.050 C 
BRANCH  13  14
ATOM     14  N   UNL     1      37.517 -25.825 -14.755  0.00  0.00    +0.387 N 
ATOM     15  C   UNL     1      38.954 -26.086 -14.661  0.00  0.00    -0.100 C 
ATOM     16  C   UNL     1      36.832 -26.964 -15.369  0.00  0.00    -0.100 C 
ATOM     17  H   UNL     1      37.374 -25.006 -15.346  0.00  0.00    -0.079 HD
ENDBRANCH  13  14
ENDBRANCH  12  13
ENDBRANCH   6  11
ENDBRANCH   1   5
BRANCH   1  18
ATOM     18  N   UNL     1      35.270 -22.639 -18.004  0.00  0.00    -0.215 N 
ATOM     19  H   UNL     1      34.657 -23.370 -18.248  0.00  0.00    +0.174 HD
BRANCH  18  28
ATOM     20  C   UNL     1      34.301 -18.058 -22.140  0.00  0.00    +0.005 C 
ATOM     21  C   UNL     1      33.871 -19.362 -21.472  0.00  0.00    +0.026 C 
ATOM     22  C   UNL     1      35.659 -18.225 -22.809  0.00  0.00    +0.005 C 
ATOM     23  C   UNL     1      34.960 -19.992 -20.639  0.00  0.00    -0.019 C 
ATOM     24  C   UNL     1      36.729 -18.555 -21.769  0.00  0.00    +0.026 C 
ATOM     25  C   UNL     1      36.311 -19.641 -20.808  0.00  0.00    -0.026 C 
ATOM     26  C   UNL     1      34.618 -20.993 -19.716  0.00  0.00    +0.086 C 
ATOM     27  C   UNL     1      37.290 -20.271 -20.025  0.00  0.00    -0.003 C 
ATOM     28  C   UNL     1      35.602 -21.618 -18.952  0.00  0.00    +0.071 C 
ATOM     29  C   UNL     1      36.937 -21.256 -19.104  0.00  0.00    +0.016 C 
BRANCH  26  31
ATOM     30  O   UNL     1      32.290 -20.655 -19.283  0.00  0.00    -0.245 OA
ATOM     31  C   UNL     1      33.227 -21.409 -19.548  0.00  0.00    +0.339 C 
BRANCH  31  32
ATOM     32  O   UNL     1      33.067 -22.746 -19.719  0.00  0.00    -0.477 OA
ATOM     33  H   UNL     1      33.325 -23.150 -20.524  0.00  0.00    +0.295 HD
ENDBRANCH  31  32
ENDBRANCH  26  31
ENDBRANCH  18  28
ENDBRANCH   1  18
TORSDOF 8
ENDMDL
MODEL 8
REMARK VINA RESULT:      -9.1      3.005      8.685
REMARK  Name = 6102686
REMARK  8 active torsions:
REMARK  status: ('A' for Active; 'I' for Inactive)
REMARK    1  A    between atoms: S_1  and  C_5
REMARK    2  A    between atoms: S_1  and  N_18
REMARK    3  A    between atoms: C_6  and  C_11
REMARK    4  A    between atoms: C_12  and  C_13
REMARK    5  A    between atoms: C_13  and  N_14
REMARK    6  A    between atoms: N_18  and  C_28
REMARK    7  A    between atoms: C_26  and  C_31
REMARK    8  A    between atoms: C_31  and  O_32
REMARK                            x       y       z     vdW  Elec       q    Type
REMARK                         _______ _______ _______ _____ _____    ______ ____
ROOT
ATOM      1  S   UNL     1      33.207 -12.678 -23.789  0.00  0.00    +0.074 S 
ATOM      2  O   UNL     1      33.794 -11.655 -24.633  0.00  0.00    -0.150 OA
ATOM      3  O   UNL     1      32.245 -13.609 -24.347  0.00  0.00    -0.150 OA
ENDROOT
BRANCH   1   5
ATOM      4  F   UNL     1      30.622 -10.014 -19.227  0.00  0.00    -0.204 F 
ATOM      5  C   UNL     1      32.429 -11.843 -22.437  0.00  0.00    +0.125 C 
ATOM      6  C   UNL     1      32.153 -10.487 -22.494  0.00  0.00    +0.021 C 
ATOM      7  C   UNL     1      32.108 -12.595 -21.316  0.00  0.00    +0.022 C 
ATOM      8  C   UNL     1      31.540  -9.866 -21.406  0.00  0.00    +0.031 C 
ATOM      9  C   UNL     1      31.495 -11.975 -20.229  0.00  0.00    +0.031 C 
ATOM     10  C   UNL     1      31.210 -10.610 -20.273  0.00  0.00    +0.140 C 
BRANCH   6  11
ATOM     11  C   UNL     1      32.479  -9.670 -23.657  0.00  0.00    -0.005 C 
ATOM     12  C   UNL     1      33.003  -8.426 -23.627  0.00  0.00    -0.049 C 
BRANCH  12  13
ATOM     13  C   UNL     1      33.332  -7.690 -22.361  0.00  0.00    -0.050 C 
BRANCH  13  14
ATOM     14  N   UNL     1      32.576  -6.447 -22.253  0.00  0.00    +0.387 N 
ATOM     15  C   UNL     1      31.514  -6.401 -23.259  0.00  0.00    -0.100 C 
ATOM     16  C   UNL     1      32.010  -6.303 -20.910  0.00  0.00    -0.100 C 
ATOM     17  H   UNL     1      33.214  -5.669 -22.420  0.00  0.00    -0.079 HD
ENDBRANCH  13  14
ENDBRANCH  12  13
ENDBRANCH   6  11
ENDBRANCH   1   5
BRANCH   1  18
ATOM     18  N   UNL     1      34.470 -13.539 -22.997  0.00  0.00    -0.215 N 
ATOM     19  H   UNL     1      35.118 -13.066 -22.427  0.00  0.00    +0.174 HD
BRANCH  18  28
ATOM     20  C   UNL     1      34.170 -19.592 -21.482  0.00  0.00    +0.005 C 
ATOM     21  C   UNL     1      34.443 -18.137 -21.106  0.00  0.00    +0.026 C 
ATOM     22  C   UNL     1      35.094 -20.034 -22.610  0.00  0.00    +0.005 C 
ATOM     23  C   UNL     1      34.534 -17.221 -22.302  0.00  0.00    -0.019 C 
ATOM     24  C   UNL     1      34.835 -19.204 -23.866  0.00  0.00    +0.026 C 
ATOM     25  C   UNL     1      34.759 -17.721 -23.596  0.00  0.00    -0.026 C 
ATOM     26  C   UNL     1      34.448 -15.834 -22.104  0.00  0.00    +0.086 C 
ATOM     27  C   UNL     1      34.857 -16.827 -24.673  0.00  0.00    -0.003 C 
ATOM     28  C   UNL     1      34.558 -14.956 -23.181  0.00  0.00    +0.071 C 
ATOM     29  C   UNL     1      34.759 -15.452 -24.466  0.00  0.00    +0.016 C 
BRANCH  26  31
ATOM     30  O   UNL     1      35.126 -14.721 -20.097  0.00  0.00    -0.245 OA
ATOM     31  C   UNL     1      34.255 -15.282 -20.764  0.00  0.00    +0.339 C 
BRANCH  31  32
ATOM     32  O   UNL     1      32.985 -15.454 -20.315  0.00  0.00    -0.477 OA
ATOM     33  H   UNL     1      32.264 -15.380 -20.909  0.00  0.00    +0.295 HD
ENDBRANCH  31  32
ENDBRANCH  26  31
ENDBRANCH  18  28
ENDBRANCH   1  18
TORSDOF 8
ENDMDL
MODEL 9
REMARK VINA RESULT:      -8.8      3.879      6.458
REMARK  Name = 6102686
REMARK  8 active torsions:
REMARK  status: ('A' for Active; 'I' for Inactive)
REMARK    1  A    between atoms: S_1  and  C_5
REMARK    2  A    between atoms: S_1  and  N_18
REMARK    3  A    between atoms: C_6  and  C_11
REMARK    4  A    between atoms: C_12  and  C_13
REMARK    5  A    between atoms: C_13  and  N_14
REMARK    6  A    between atoms: N_18  and  C_28
REMARK    7  A    between atoms: C_26  and  C_31
REMARK    8  A    between atoms: C_31  and  O_32
REMARK                            x       y       z     vdW  Elec       q    Type
REMARK                         _______ _______ _______ _____ _____    ______ ____
ROOT
ATOM      1  S   UNL     1      35.843 -19.508 -20.960  0.00  0.00    +0.074 S 
ATOM      2  O   UNL     1      35.796 -19.996 -22.325  0.00  0.00    -0.150 OA
ATOM      3  O   UNL     1      37.113 -19.437 -20.263  0.00  0.00    -0.150 OA
ENDROOT
BRANCH   1   5
ATOM      4  F   UNL     1      32.149 -22.878 -17.862  0.00  0.00    -0.204 F 
ATOM      5  C   UNL     1      34.762 -20.539 -20.010  0.00  0.00    +0.125 C 
ATOM      6  C   UNL     1      35.262 -21.472 -19.116  0.00  0.00    +0.021 C 
ATOM      7  C   UNL     1      33.396 -20.379 -20.194  0.00  0.00    +0.022 C 
ATOM      8  C   UNL     1      34.376 -22.265 -18.388  0.00  0.00    +0.031 C 
ATOM      9  C   UNL     1      32.511 -21.172 -19.465  0.00  0.00    +0.031 C 
ATOM     10  C   UNL     1      33.000 -22.115 -18.561  0.00  0.00    +0.140 C 
BRANCH   6  11
ATOM     11  C   UNL     1      36.691 -21.663 -18.902  0.00  0.00    -0.005 C 
ATOM     12  C   UNL     1      37.297 -21.817 -17.705  0.00  0.00    -0.049 C 
BRANCH  12  13
ATOM     13  C   UNL     1      36.567 -21.813 -16.394  0.00  0.00    -0.050 C 
BRANCH  13  14
ATOM     14  N   UNL     1      36.495 -23.151 -15.818  0.00  0.00    +0.387 N 
ATOM     15  C   UNL     1      37.810 -23.575 -15.333  0.00  0.00    -0.100 C 
ATOM     16  C   UNL     1      35.515 -23.192 -14.731  0.00  0.00    -0.100 C 
ATOM     17  H   UNL     1      36.196 -23.797 -16.548  0.00  0.00    -0.079 HD
ENDBRANCH  13  14
ENDBRANCH  12  13
ENDBRANCH   6  11
ENDBRANCH   1   5
BRANCH   1  18
ATOM     18  N   UNL     1      35.042 -17.987 -20.884  0.00  0.00    -0.215 N 
ATOM     19  H   UNL     1      34.822 -17.578 -20.016  0.00  0.00    +0.174 HD
BRANCH  18  28
ATOM     20  C   UNL     1      33.420 -13.272 -24.648  0.00  0.00    +0.005 C 
ATOM     21  C   UNL     1      33.373 -13.968 -23.290  0.00  0.00    +0.026 C 
ATOM     22  C   UNL     1      32.863 -14.184 -25.734  0.00  0.00    +0.005 C 
ATOM     23  C   UNL     1      33.908 -15.379 -23.325  0.00  0.00    -0.019 C 
ATOM     24  C   UNL     1      33.718 -15.444 -25.861  0.00  0.00    +0.026 C 
ATOM     25  C   UNL     1      34.032 -16.088 -24.533  0.00  0.00    -0.026 C 
ATOM     26  C   UNL     1      34.234 -16.013 -22.116  0.00  0.00    +0.086 C 
ATOM     27  C   UNL     1      34.514 -17.406 -24.512  0.00  0.00    -0.003 C 
ATOM     28  C   UNL     1      34.702 -17.327 -22.108  0.00  0.00    +0.071 C 
ATOM     29  C   UNL     1      34.845 -18.021 -23.305  0.00  0.00    +0.016 C 
BRANCH  26  31
ATOM     30  O   UNL     1      34.966 -14.696 -20.258  0.00  0.00    -0.245 OA
ATOM     31  C   UNL     1      34.076 -15.315 -20.841  0.00  0.00    +0.339 C 
BRANCH  31  32
ATOM     32  O   UNL     1      32.814 -15.422 -20.351  0.00  0.00    -0.477 OA
ATOM     33  H   UNL     1      32.295 -14.652 -20.224  0.00  0.00    +0.295 HD
ENDBRANCH  31  32
ENDBRANCH  26  31
ENDBRANCH  18  28
ENDBRANCH   1  18
TORSDOF 8
ENDMDL
