MODEL 1
REMARK VINA RESULT:      -5.6      0.000      0.000
REMARK  Name = 643798
REMARK  4 active torsions:
REMARK  status: ('A' for Active; 'I' for Inactive)
REMARK    1  A    between atoms: C_1  and  C_5
REMARK    2  A    between atoms: C_3  and  C_9
REMARK    3  A    between atoms: C_5  and  O_6
REMARK    4  A    between atoms: C_9  and  O_10
REMARK                            x       y       z     vdW  Elec       q    Type
REMARK                         _______ _______ _______ _____ _____    ______ ____
ROOT
ATOM      1  C   UNL     1      37.314 -25.145 -14.939  0.00  0.00    +0.060 C 
ATOM      2  C   UNL     1      36.127 -24.234 -15.047  0.00  0.00    +0.038 C 
ATOM      3  C   UNL     1      38.604 -24.786 -14.822  0.00  0.00    +0.084 C 
ENDROOT
BRANCH   1   5
ATOM      4  O   UNL     1      36.879 -27.256 -16.031  0.00  0.00    -0.245 OA
ATOM      5  C   UNL     1      37.073 -26.614 -15.011  0.00  0.00    +0.334 C 
BRANCH   5   6
ATOM      6  O   UNL     1      37.109 -27.160 -13.772  0.00  0.00    -0.477 OA
ATOM      7  H   UNL     1      37.004 -28.084 -13.664  0.00  0.00    +0.295 HD
ENDBRANCH   5   6
ENDBRANCH   1   5
BRANCH   3   9
ATOM      8  O   UNL     1      40.122 -26.362 -13.791  0.00  0.00    -0.245 OA
ATOM      9  C   UNL     1      39.732 -25.742 -14.765  0.00  0.00    +0.338 C 
BRANCH   9  10
ATOM     10  O   UNL     1      40.274 -25.838 -16.003  0.00  0.00    -0.477 OA
ATOM     11  H   UNL     1      40.283 -25.091 -16.570  0.00  0.00    +0.295 HD
ENDBRANCH   9  10
ENDBRANCH   3   9
TORSDOF 4
ENDMDL
MODEL 2
REMARK VINA RESULT:      -5.4      1.408      2.065
REMARK  Name = 643798
REMARK  4 active torsions:
REMARK  status: ('A' for Active; 'I' for Inactive)
REMARK    1  A    between atoms: C_1  and  C_5
REMARK    2  A    between atoms: C_3  and  C_9
REMARK    3  A    between atoms: C_5  and  O_6
REMARK    4  A    between atoms: C_9  and  O_10
REMARK                            x       y       z     vdW  Elec       q    Type
REMARK                         _______ _______ _______ _____ _____    ______ ____
ROOT
ATOM      1  C   UNL     1      38.532 -25.199 -13.493  0.00  0.00    +0.060 C 
ATOM      2  C   UNL     1      37.752 -24.347 -12.535  0.00  0.00    +0.038 C 
ATOM      3  C   UNL     1      39.860 -25.181 -13.697  0.00  0.00    +0.084 C 
ENDROOT
BRANCH   1   5
ATOM      4  O   UNL     1      37.486 -27.297 -14.074  0.00  0.00    -0.245 OA
ATOM      5  C   UNL     1      37.774 -26.145 -14.358  0.00  0.00    +0.334 C 
BRANCH   5   6
ATOM      6  O   UNL     1      37.427 -25.547 -15.523  0.00  0.00    -0.477 OA
ATOM      7  H   UNL     1      36.561 -25.208 -15.636  0.00  0.00    +0.295 HD
ENDBRANCH   5   6
ENDBRANCH   1   5
BRANCH   3   9
ATOM      8  O   UNL     1      40.502 -25.924 -15.908  0.00  0.00    -0.245 OA
ATOM      9  C   UNL     1      40.560 -26.021 -14.694  0.00  0.00    +0.338 C 
BRANCH   9  10
ATOM     10  O   UNL     1      41.310 -26.934 -14.033  0.00  0.00    -0.477 OA
ATOM     11  H   UNL     1      41.642 -27.685 -14.487  0.00  0.00    +0.295 HD
ENDBRANCH   9  10
ENDBRANCH   3   9
TORSDOF 4
ENDMDL
MODEL 3
REMARK VINA RESULT:      -5.3      2.884      3.663
REMARK  Name = 643798
REMARK  4 active torsions:
REMARK  status: ('A' for Active; 'I' for Inactive)
REMARK    1  A    between atoms: C_1  and  C_5
REMARK    2  A    between atoms: C_3  and  C_9
REMARK    3  A    between atoms: C_5  and  O_6
REMARK    4  A    between atoms: C_9  and  O_10
REMARK                            x       y       z     vdW  Elec       q    Type
REMARK                         _______ _______ _______ _____ _____    ______ ____
ROOT
ATOM      1  C   UNL     1      36.563 -24.823 -13.526  0.00  0.00    +0.060 C 
ATOM      2  C   UNL     1      35.807 -25.156 -14.778  0.00  0.00    +0.038 C 
ATOM      3  C   UNL     1      36.557 -23.654 -12.863  0.00  0.00    +0.084 C 
ENDROOT
BRANCH   1   5
ATOM      4  O   UNL     1      38.610 -26.086 -13.306  0.00  0.00    -0.245 OA
ATOM      5  C   UNL     1      37.461 -25.865 -12.957  0.00  0.00    +0.334 C 
BRANCH   5   6
ATOM      6  O   UNL     1      36.830 -26.546 -11.970  0.00  0.00    -0.477 OA
ATOM      7  H   UNL     1      36.043 -27.019 -12.157  0.00  0.00    +0.295 HD
ENDBRANCH   5   6
ENDBRANCH   1   5
BRANCH   3   9
ATOM      8  O   UNL     1      38.452 -22.829 -11.606  0.00  0.00    -0.245 OA
ATOM      9  C   UNL     1      37.365 -23.378 -11.654  0.00  0.00    +0.338 C 
BRANCH   9  10
ATOM     10  O   UNL     1      36.685 -23.830 -10.573  0.00  0.00    -0.477 OA
ATOM     11  H   UNL     1      37.013 -23.664  -9.711  0.00  0.00    +0.295 HD
ENDBRANCH   9  10
ENDBRANCH   3   9
TORSDOF 4
ENDMDL
MODEL 4
REMARK VINA RESULT:      -5.2     10.833     11.834
REMARK  Name = 643798
REMARK  4 active torsions:
REMARK  status: ('A' for Active; 'I' for Inactive)
REMARK    1  A    between atoms: C_1  and  C_5
REMARK    2  A    between atoms: C_3  and  C_9
REMARK    3  A    between atoms: C_5  and  O_6
REMARK    4  A    between atoms: C_9  and  O_10
REMARK                            x       y       z     vdW  Elec       q    Type
REMARK                         _______ _______ _______ _____ _____    ______ ____
ROOT
ATOM      1  C   UNL     1      41.181 -14.308 -15.392  0.00  0.00    +0.060 C 
ATOM      2  C   UNL     1      40.775 -13.729 -14.069  0.00  0.00    +0.038 C 
ATOM      3  C   UNL     1      41.441 -13.636 -16.526  0.00  0.00    +0.084 C 
ENDROOT
BRANCH   1   5
ATOM      4  O   UNL     1      42.301 -16.438 -15.613  0.00  0.00    -0.245 OA
ATOM      5  C   UNL     1      41.270 -15.792 -15.505  0.00  0.00    +0.334 C 
BRANCH   5   6
ATOM      6  O   UNL     1      40.035 -16.345 -15.460  0.00  0.00    -0.477 OA
ATOM      7  H   UNL     1      39.930 -17.267 -15.584  0.00  0.00    +0.295 HD
ENDBRANCH   5   6
ENDBRANCH   1   5
BRANCH   3   9
ATOM      8  O   UNL     1      41.034 -14.584 -18.714  0.00  0.00    -0.245 OA
ATOM      9  C   UNL     1      41.794 -14.277 -17.812  0.00  0.00    +0.338 C 
BRANCH   9  10
ATOM     10  O   UNL     1      43.135 -14.463 -17.843  0.00  0.00    -0.477 OA
ATOM     11  H   UNL     1      43.573 -14.583 -18.664  0.00  0.00    +0.295 HD
ENDBRANCH   9  10
ENDBRANCH   3   9
TORSDOF 4
ENDMDL
MODEL 5
REMARK VINA RESULT:      -5.1      1.914      2.311
REMARK  Name = 643798
REMARK  4 active torsions:
REMARK  status: ('A' for Active; 'I' for Inactive)
REMARK    1  A    between atoms: C_1  and  C_5
REMARK    2  A    between atoms: C_3  and  C_9
REMARK    3  A    between atoms: C_5  and  O_6
REMARK    4  A    between atoms: C_9  and  O_10
REMARK                            x       y       z     vdW  Elec       q    Type
REMARK                         _______ _______ _______ _____ _____    ______ ____
ROOT
ATOM      1  C   UNL     1      37.957 -24.334 -13.540  0.00  0.00    +0.060 C 
ATOM      2  C   UNL     1      37.099 -23.561 -12.583  0.00  0.00    +0.038 C 
ATOM      3  C   UNL     1      39.070 -25.029 -13.252  0.00  0.00    +0.084 C 
ENDROOT
BRANCH   1   5
ATOM      4  O   UNL     1      36.690 -24.960 -15.500  0.00  0.00    -0.245 OA
ATOM      5  C   UNL     1      37.586 -24.310 -14.983  0.00  0.00    +0.334 C 
BRANCH   5   6
ATOM      6  O   UNL     1      38.379 -23.447 -15.662  0.00  0.00    -0.477 OA
ATOM      7  H   UNL     1      39.212 -23.202 -15.311  0.00  0.00    +0.295 HD
ENDBRANCH   5   6
ENDBRANCH   1   5
BRANCH   3   9
ATOM      8  O   UNL     1      39.709 -26.850 -14.711  0.00  0.00    -0.245 OA
ATOM      9  C   UNL     1      39.896 -25.734 -14.258  0.00  0.00    +0.338 C 
BRANCH   9  10
ATOM     10  O   UNL     1      40.915 -24.919 -14.621  0.00  0.00    -0.477 OA
ATOM     11  H   UNL     1      40.735 -24.118 -15.073  0.00  0.00    +0.295 HD
ENDBRANCH   9  10
ENDBRANCH   3   9
TORSDOF 4
ENDMDL
MODEL 6
REMARK VINA RESULT:      -5.1     11.106     12.203
REMARK  Name = 643798
REMARK  4 active torsions:
REMARK  status: ('A' for Active; 'I' for Inactive)
REMARK    1  A    between atoms: C_1  and  C_5
REMARK    2  A    between atoms: C_3  and  C_9
REMARK    3  A    between atoms: C_5  and  O_6
REMARK    4  A    between atoms: C_9  and  O_10
REMARK                            x       y       z     vdW  Elec       q    Type
REMARK                         _______ _______ _______ _____ _____    ______ ____
ROOT
ATOM      1  C   UNL     1      41.962 -13.605 -16.754  0.00  0.00    +0.060 C 
ATOM      2  C   UNL     1      42.314 -12.157 -16.929  0.00  0.00    +0.038 C 
ATOM      3  C   UNL     1      41.720 -14.246 -15.598  0.00  0.00    +0.084 C 
ENDROOT
BRANCH   1   5
ATOM      4  O   UNL     1      40.940 -14.617 -18.695  0.00  0.00    -0.245 OA
ATOM      5  C   UNL     1      41.912 -14.462 -17.972  0.00  0.00    +0.334 C 
BRANCH   5   6
ATOM      6  O   UNL     1      43.112 -15.051 -18.186  0.00  0.00    -0.477 OA
ATOM      7  H   UNL     1      43.518 -14.996 -19.028  0.00  0.00    +0.295 HD
ENDBRANCH   5   6
ENDBRANCH   1   5
BRANCH   3   9
ATOM      8  O   UNL     1      42.201 -16.617 -15.647  0.00  0.00    -0.245 OA
ATOM      9  C   UNL     1      41.422 -15.692 -15.495  0.00  0.00    +0.338 C 
BRANCH   9  10
ATOM     10  O   UNL     1      40.113 -15.837 -15.180  0.00  0.00    -0.477 OA
ATOM     11  H   UNL     1      39.595 -16.486 -15.617  0.00  0.00    +0.295 HD
ENDBRANCH   9  10
ENDBRANCH   3   9
TORSDOF 4
ENDMDL
MODEL 7
REMARK VINA RESULT:      -5.0      1.828      3.160
REMARK  Name = 643798
REMARK  4 active torsions:
REMARK  status: ('A' for Active; 'I' for Inactive)
REMARK    1  A    between atoms: C_1  and  C_5
REMARK    2  A    between atoms: C_3  and  C_9
REMARK    3  A    between atoms: C_5  and  O_6
REMARK    4  A    between atoms: C_9  and  O_10
REMARK                            x       y       z     vdW  Elec       q    Type
REMARK                         _______ _______ _______ _____ _____    ______ ____
ROOT
ATOM      1  C   UNL     1      36.361 -24.420 -15.104  0.00  0.00    +0.060 C 
ATOM      2  C   UNL     1      35.361 -23.486 -15.718  0.00  0.00    +0.038 C 
ATOM      3  C   UNL     1      36.231 -25.746 -14.929  0.00  0.00    +0.084 C 
ENDROOT
BRANCH   1   5
ATOM      4  O   UNL     1      37.785 -23.342 -13.478  0.00  0.00    -0.245 OA
ATOM      5  C   UNL     1      37.629 -23.838 -14.582  0.00  0.00    +0.334 C 
BRANCH   5   6
ATOM      6  O   UNL     1      38.613 -23.941 -15.507  0.00  0.00    -0.477 OA
ATOM      7  H   UNL     1      39.441 -23.529 -15.359  0.00  0.00    +0.295 HD
ENDBRANCH   5   6
ENDBRANCH   1   5
BRANCH   3   9
ATOM      8  O   UNL     1      38.269 -27.039 -14.765  0.00  0.00    -0.245 OA
ATOM      9  C   UNL     1      37.243 -26.603 -14.272  0.00  0.00    +0.338 C 
BRANCH   9  10
ATOM     10  O   UNL     1      36.853 -26.824 -12.994  0.00  0.00    -0.477 OA
ATOM     11  H   UNL     1      36.249 -26.238 -12.581  0.00  0.00    +0.295 HD
ENDBRANCH   9  10
ENDBRANCH   3   9
TORSDOF 4
ENDMDL
MODEL 8
REMARK VINA RESULT:      -5.0      2.254      2.869
REMARK  Name = 643798
REMARK  4 active torsions:
REMARK  status: ('A' for Active; 'I' for Inactive)
REMARK    1  A    between atoms: C_1  and  C_5
REMARK    2  A    between atoms: C_3  and  C_9
REMARK    3  A    between atoms: C_5  and  O_6
REMARK    4  A    between atoms: C_9  and  O_10
REMARK                            x       y       z     vdW  Elec       q    Type
REMARK                         _______ _______ _______ _____ _____    ______ ____
ROOT
ATOM      1  C   UNL     1      37.519 -24.343 -12.800  0.00  0.00    +0.060 C 
ATOM      2  C   UNL     1      37.606 -23.078 -12.000  0.00  0.00    +0.038 C 
ATOM      3  C   UNL     1      38.115 -24.601 -13.977  0.00  0.00    +0.084 C 
ENDROOT
BRANCH   1   5
ATOM      4  O   UNL     1      37.033 -26.437 -11.697  0.00  0.00    -0.245 OA
ATOM      5  C   UNL     1      36.649 -25.436 -12.282  0.00  0.00    +0.334 C 
BRANCH   5   6
ATOM      6  O   UNL     1      35.347 -25.166 -12.539  0.00  0.00    -0.477 OA
ATOM      7  H   UNL     1      34.688 -25.400 -11.916  0.00  0.00    +0.295 HD
ENDBRANCH   5   6
ENDBRANCH   1   5
BRANCH   3   9
ATOM      8  O   UNL     1      38.608 -26.879 -14.624  0.00  0.00    -0.245 OA
ATOM      9  C   UNL     1      37.949 -25.860 -14.736  0.00  0.00    +0.338 C 
BRANCH   9  10
ATOM     10  O   UNL     1      36.910 -25.710 -15.592  0.00  0.00    -0.477 OA
ATOM     11  H   UNL     1      36.904 -24.998 -16.201  0.00  0.00    +0.295 HD
ENDBRANCH   9  10
ENDBRANCH   3   9
TORSDOF 4
ENDMDL
MODEL 9
REMARK VINA RESULT:      -5.0      2.055      3.299
REMARK  Name = 643798
REMARK  4 active torsions:
REMARK  status: ('A' for Active; 'I' for Inactive)
REMARK    1  A    between atoms: C_1  and  C_5
REMARK    2  A    between atoms: C_3  and  C_9
REMARK    3  A    between atoms: C_5  and  O_6
REMARK    4  A    between atoms: C_9  and  O_10
REMARK                            x       y       z     vdW  Elec       q    Type
REMARK                         _______ _______ _______ _____ _____    ______ ____
ROOT
ATOM      1  C   UNL     1      38.995 -25.442 -13.891  0.00  0.00    +0.060 C 
ATOM      2  C   UNL     1      40.420 -25.396 -14.360  0.00  0.00    +0.038 C 
ATOM      3  C   UNL     1      38.499 -24.924 -12.755  0.00  0.00    +0.084 C 
ENDROOT
BRANCH   1   5
ATOM      4  O   UNL     1      37.832 -27.382 -14.741  0.00  0.00    -0.245 OA
ATOM      5  C   UNL     1      38.008 -26.174 -14.734  0.00  0.00    +0.334 C 
BRANCH   5   6
ATOM      6  O   UNL     1      37.307 -25.305 -15.502  0.00  0.00    -0.477 OA
ATOM      7  H   UNL     1      37.757 -24.723 -16.081  0.00  0.00    +0.295 HD
ENDBRANCH   5   6
ENDBRANCH   1   5
BRANCH   3   9
ATOM      8  O   UNL     1      36.596 -25.928 -11.649  0.00  0.00    -0.245 OA
ATOM      9  C   UNL     1      37.086 -25.046 -12.333  0.00  0.00    +0.338 C 
BRANCH   9  10
ATOM     10  O   UNL     1      36.399 -23.987 -12.824  0.00  0.00    -0.477 OA
ATOM     11  H   UNL     1      36.807 -23.410 -13.441  0.00  0.00    +0.295 HD
ENDBRANCH   9  10
ENDBRANCH   3   9
TORSDOF 4
ENDMDL
