MODEL 1
REMARK VINA RESULT:      -9.2      0.000      0.000
REMARK  Name = 6623
REMARK  4 active torsions:
REMARK  status: ('A' for Active; 'I' for Inactive)
REMARK    1  A    between atoms: C_1  and  C_4
REMARK    2  A    between atoms: C_1  and  C_12
REMARK    3  A    between atoms: C_9  and  O_10
REMARK    4  A    between atoms: C_17  and  O_18
REMARK                            x       y       z     vdW  Elec       q    Type
REMARK                         _______ _______ _______ _____ _____    ______ ____
ROOT
ATOM      1  C   UNL     1      35.415 -18.580 -22.200  0.00  0.00    +0.038 C 
ATOM      2  C   UNL     1      35.319 -18.929 -23.734  0.00  0.00    +0.009 C 
ATOM      3  C   UNL     1      36.959 -18.599 -21.914  0.00  0.00    +0.009 C 
ENDROOT
BRANCH   1   4
ATOM      4  C   UNL     1      34.750 -19.543 -21.276  0.00  0.00    -0.019 C 
ATOM      5  C   UNL     1      33.359 -19.571 -21.180  0.00  0.00    -0.001 C 
ATOM      6  C   UNL     1      35.520 -20.416 -20.508  0.00  0.00    -0.001 C 
ATOM      7  C   UNL     1      32.738 -20.472 -20.314  0.00  0.00    +0.036 C 
ATOM      8  C   UNL     1      34.900 -21.317 -19.642  0.00  0.00    +0.036 C 
ATOM      9  C   UNL     1      33.508 -21.346 -19.546  0.00  0.00    +0.134 C 
BRANCH   9  10
ATOM     10  O   UNL     1      32.902 -22.224 -18.702  0.00  0.00    -0.506 OA
ATOM     11  H   UNL     1      32.918 -22.072 -17.777  0.00  0.00    +0.292 HD
ENDBRANCH   9  10
ENDBRANCH   1   4
BRANCH   1  12
ATOM     12  C   UNL     1      34.821 -17.136 -22.086  0.00  0.00    -0.019 C 
ATOM     13  C   UNL     1      34.352 -16.564 -23.227  0.00  0.00    -0.001 C 
ATOM     14  C   UNL     1      34.818 -16.558 -20.856  0.00  0.00    -0.001 C 
ATOM     15  C   UNL     1      33.823 -15.277 -23.125  0.00  0.00    +0.036 C 
ATOM     16  C   UNL     1      34.289 -15.272 -20.755  0.00  0.00    +0.036 C 
ATOM     17  C   UNL     1      33.791 -14.631 -21.889  0.00  0.00    +0.134 C 
BRANCH  17  18
ATOM     18  O   UNL     1      33.275 -13.375 -21.792  0.00  0.00    -0.506 OA
ATOM     19  H   UNL     1      33.760 -12.702 -21.355  0.00  0.00    +0.292 HD
ENDBRANCH  17  18
ENDBRANCH   1  12
TORSDOF 4
ENDMDL
MODEL 2
REMARK VINA RESULT:      -9.1      0.071      5.590
REMARK  Name = 6623
REMARK  4 active torsions:
REMARK  status: ('A' for Active; 'I' for Inactive)
REMARK    1  A    between atoms: C_1  and  C_4
REMARK    2  A    between atoms: C_1  and  C_12
REMARK    3  A    between atoms: C_9  and  O_10
REMARK    4  A    between atoms: C_17  and  O_18
REMARK                            x       y       z     vdW  Elec       q    Type
REMARK                         _______ _______ _______ _____ _____    ______ ____
ROOT
ATOM      1  C   UNL     1      35.398 -18.503 -22.199  0.00  0.00    +0.038 C 
ATOM      2  C   UNL     1      36.935 -18.614 -21.870  0.00  0.00    +0.009 C 
ATOM      3  C   UNL     1      35.310 -18.954 -23.700  0.00  0.00    +0.009 C 
ENDROOT
BRANCH   1   4
ATOM      4  C   UNL     1      34.808 -17.139 -22.080  0.00  0.00    -0.019 C 
ATOM      5  C   UNL     1      34.780 -16.497 -20.842  0.00  0.00    -0.001 C 
ATOM      6  C   UNL     1      34.284 -16.505 -23.206  0.00  0.00    -0.001 C 
ATOM      7  C   UNL     1      34.228 -15.221 -20.730  0.00  0.00    +0.036 C 
ATOM      8  C   UNL     1      33.732 -15.229 -23.096  0.00  0.00    +0.036 C 
ATOM      9  C   UNL     1      33.704 -14.586 -21.857  0.00  0.00    +0.134 C 
BRANCH   9  10
ATOM     10  O   UNL     1      33.165 -13.341 -21.748  0.00  0.00    -0.506 OA
ATOM     11  H   UNL     1      33.310 -12.708 -22.424  0.00  0.00    +0.292 HD
ENDBRANCH   9  10
ENDBRANCH   1   4
BRANCH   1  12
ATOM     12  C   UNL     1      34.714 -19.535 -21.241  0.00  0.00    -0.019 C 
ATOM     13  C   UNL     1      35.529 -20.357 -20.527  0.00  0.00    -0.001 C 
ATOM     14  C   UNL     1      33.355 -19.537 -21.193  0.00  0.00    -0.001 C 
ATOM     15  C   UNL     1      34.920 -21.277 -19.674  0.00  0.00    +0.036 C 
ATOM     16  C   UNL     1      32.747 -20.457 -20.340  0.00  0.00    +0.036 C 
ATOM     17  C   UNL     1      33.529 -21.327 -19.580  0.00  0.00    +0.134 C 
BRANCH  17  18
ATOM     18  O   UNL     1      32.935 -22.226 -18.747  0.00  0.00    -0.506 OA
ATOM     19  H   UNL     1      32.721 -23.083 -19.060  0.00  0.00    +0.292 HD
ENDBRANCH  17  18
ENDBRANCH   1  12
TORSDOF 4
ENDMDL
MODEL 3
REMARK VINA RESULT:      -8.2      2.032      3.508
REMARK  Name = 6623
REMARK  4 active torsions:
REMARK  status: ('A' for Active; 'I' for Inactive)
REMARK    1  A    between atoms: C_1  and  C_4
REMARK    2  A    between atoms: C_1  and  C_12
REMARK    3  A    between atoms: C_9  and  O_10
REMARK    4  A    between atoms: C_17  and  O_18
REMARK                            x       y       z     vdW  Elec       q    Type
REMARK                         _______ _______ _______ _____ _____    ______ ____
ROOT
ATOM      1  C   UNL     1      33.836 -16.109 -21.487  0.00  0.00    +0.038 C 
ATOM      2  C   UNL     1      34.685 -14.935 -20.866  0.00  0.00    +0.009 C 
ATOM      3  C   UNL     1      32.435 -15.956 -20.794  0.00  0.00    +0.009 C 
ENDROOT
BRANCH   1   4
ATOM      4  C   UNL     1      34.347 -17.485 -21.223  0.00  0.00    -0.019 C 
ATOM      5  C   UNL     1      35.720 -17.727 -21.199  0.00  0.00    -0.001 C 
ATOM      6  C   UNL     1      33.451 -18.530 -21.000  0.00  0.00    -0.001 C 
ATOM      7  C   UNL     1      36.197 -19.014 -20.954  0.00  0.00    +0.036 C 
ATOM      8  C   UNL     1      33.927 -19.818 -20.754  0.00  0.00    +0.036 C 
ATOM      9  C   UNL     1      35.301 -20.060 -20.730  0.00  0.00    +0.134 C 
BRANCH   9  10
ATOM     10  O   UNL     1      35.767 -21.316 -20.490  0.00  0.00    -0.506 OA
ATOM     11  H   UNL     1      35.258 -22.060 -20.747  0.00  0.00    +0.292 HD
ENDBRANCH   9  10
ENDBRANCH   1   4
BRANCH   1  12
ATOM     12  C   UNL     1      33.768 -15.780 -23.015  0.00  0.00    -0.019 C 
ATOM     13  C   UNL     1      33.162 -14.617 -23.376  0.00  0.00    -0.001 C 
ATOM     14  C   UNL     1      34.317 -16.681 -23.873  0.00  0.00    -0.001 C 
ATOM     15  C   UNL     1      33.100 -14.325 -24.738  0.00  0.00    +0.036 C 
ATOM     16  C   UNL     1      34.256 -16.387 -25.234  0.00  0.00    +0.036 C 
ATOM     17  C   UNL     1      33.647 -15.210 -25.668  0.00  0.00    +0.134 C 
BRANCH  17  18
ATOM     18  O   UNL     1      33.586 -14.923 -26.997  0.00  0.00    -0.506 OA
ATOM     19  H   UNL     1      32.784 -14.621 -27.375  0.00  0.00    +0.292 HD
ENDBRANCH  17  18
ENDBRANCH   1  12
TORSDOF 4
ENDMDL
MODEL 4
REMARK VINA RESULT:      -8.2      2.034      6.020
REMARK  Name = 6623
REMARK  4 active torsions:
REMARK  status: ('A' for Active; 'I' for Inactive)
REMARK    1  A    between atoms: C_1  and  C_4
REMARK    2  A    between atoms: C_1  and  C_12
REMARK    3  A    between atoms: C_9  and  O_10
REMARK    4  A    between atoms: C_17  and  O_18
REMARK                            x       y       z     vdW  Elec       q    Type
REMARK                         _______ _______ _______ _____ _____    ______ ____
ROOT
ATOM      1  C   UNL     1      33.821 -16.109 -21.495  0.00  0.00    +0.038 C 
ATOM      2  C   UNL     1      32.452 -16.033 -20.717  0.00  0.00    +0.009 C 
ATOM      3  C   UNL     1      34.705 -15.019 -20.791  0.00  0.00    +0.009 C 
ENDROOT
BRANCH   1   4
ATOM      4  C   UNL     1      33.754 -15.796 -22.951  0.00  0.00    -0.019 C 
ATOM      5  C   UNL     1      34.286 -16.688 -23.881  0.00  0.00    -0.001 C 
ATOM      6  C   UNL     1      33.159 -14.611 -23.382  0.00  0.00    -0.001 C 
ATOM      7  C   UNL     1      34.224 -16.395 -25.244  0.00  0.00    +0.036 C 
ATOM      8  C   UNL     1      33.096 -14.316 -24.745  0.00  0.00    +0.036 C 
ATOM      9  C   UNL     1      33.629 -15.210 -25.676  0.00  0.00    +0.134 C 
BRANCH   9  10
ATOM     10  O   UNL     1      33.568 -14.923 -27.005  0.00  0.00    -0.506 OA
ATOM     11  H   UNL     1      34.063 -14.207 -27.352  0.00  0.00    +0.292 HD
ENDBRANCH   9  10
ENDBRANCH   1   4
BRANCH   1  12
ATOM     12  C   UNL     1      34.352 -17.555 -21.219  0.00  0.00    -0.019 C 
ATOM     13  C   UNL     1      33.426 -18.528 -21.000  0.00  0.00    -0.001 C 
ATOM     14  C   UNL     1      35.699 -17.736 -21.215  0.00  0.00    -0.001 C 
ATOM     15  C   UNL     1      33.900 -19.816 -20.753  0.00  0.00    +0.036 C 
ATOM     16  C   UNL     1      36.171 -19.024 -20.969  0.00  0.00    +0.036 C 
ATOM     17  C   UNL     1      35.272 -20.065 -20.738  0.00  0.00    +0.134 C 
BRANCH  17  18
ATOM     18  O   UNL     1      35.733 -21.323 -20.496  0.00  0.00    -0.506 OA
ATOM     19  H   UNL     1      35.346 -21.841 -19.818  0.00  0.00    +0.292 HD
ENDBRANCH  17  18
ENDBRANCH   1  12
TORSDOF 4
ENDMDL
MODEL 5
REMARK VINA RESULT:      -7.3      7.372      9.428
REMARK  Name = 6623
REMARK  4 active torsions:
REMARK  status: ('A' for Active; 'I' for Inactive)
REMARK    1  A    between atoms: C_1  and  C_4
REMARK    2  A    between atoms: C_1  and  C_12
REMARK    3  A    between atoms: C_9  and  O_10
REMARK    4  A    between atoms: C_17  and  O_18
REMARK                            x       y       z     vdW  Elec       q    Type
REMARK                         _______ _______ _______ _____ _____    ______ ____
ROOT
ATOM      1  C   UNL     1      31.383 -23.868 -14.299  0.00  0.00    +0.038 C 
ATOM      2  C   UNL     1      31.510 -25.310 -13.678  0.00  0.00    +0.009 C 
ATOM      3  C   UNL     1      31.152 -22.947 -13.049  0.00  0.00    +0.009 C 
ENDROOT
BRANCH   1   4
ATOM      4  C   UNL     1      30.250 -23.672 -15.248  0.00  0.00    -0.019 C 
ATOM      5  C   UNL     1      29.742 -22.393 -15.474  0.00  0.00    -0.001 C 
ATOM      6  C   UNL     1      29.698 -24.768 -15.911  0.00  0.00    -0.001 C 
ATOM      7  C   UNL     1      28.681 -22.210 -16.361  0.00  0.00    +0.036 C 
ATOM      8  C   UNL     1      28.637 -24.586 -16.799  0.00  0.00    +0.036 C 
ATOM      9  C   UNL     1      28.129 -23.306 -17.024  0.00  0.00    +0.134 C 
BRANCH   9  10
ATOM     10  O   UNL     1      27.095 -23.128 -17.890  0.00  0.00    -0.506 OA
ATOM     11  H   UNL     1      27.182 -22.530 -18.607  0.00  0.00    +0.292 HD
ENDBRANCH   9  10
ENDBRANCH   1   4
BRANCH   1  12
ATOM     12  C   UNL     1      32.774 -23.602 -14.967  0.00  0.00    -0.019 C 
ATOM     13  C   UNL     1      33.867 -23.622 -14.159  0.00  0.00    -0.001 C 
ATOM     14  C   UNL     1      32.789 -23.369 -16.306  0.00  0.00    -0.001 C 
ATOM     15  C   UNL     1      35.106 -23.385 -14.754  0.00  0.00    +0.036 C 
ATOM     16  C   UNL     1      34.028 -23.132 -16.900  0.00  0.00    +0.036 C 
ATOM     17  C   UNL     1      35.187 -23.139 -16.125  0.00  0.00    +0.134 C 
BRANCH  17  18
ATOM     18  O   UNL     1      36.396 -22.907 -16.704  0.00  0.00    -0.506 OA
ATOM     19  H   UNL     1      36.779 -23.554 -17.264  0.00  0.00    +0.292 HD
ENDBRANCH  17  18
ENDBRANCH   1  12
TORSDOF 4
ENDMDL
MODEL 6
REMARK VINA RESULT:      -7.3      7.286      9.435
REMARK  Name = 6623
REMARK  4 active torsions:
REMARK  status: ('A' for Active; 'I' for Inactive)
REMARK    1  A    between atoms: C_1  and  C_4
REMARK    2  A    between atoms: C_1  and  C_12
REMARK    3  A    between atoms: C_9  and  O_10
REMARK    4  A    between atoms: C_17  and  O_18
REMARK                            x       y       z     vdW  Elec       q    Type
REMARK                         _______ _______ _______ _____ _____    ______ ____
ROOT
ATOM      1  C   UNL     1      31.527 -23.847 -14.314  0.00  0.00    +0.038 C 
ATOM      2  C   UNL     1      31.175 -22.930 -13.082  0.00  0.00    +0.009 C 
ATOM      3  C   UNL     1      31.580 -25.289 -13.696  0.00  0.00    +0.009 C 
ENDROOT
BRANCH   1   4
ATOM      4  C   UNL     1      32.834 -23.567 -14.975  0.00  0.00    -0.019 C 
ATOM      5  C   UNL     1      34.004 -23.530 -14.218  0.00  0.00    -0.001 C 
ATOM      6  C   UNL     1      32.885 -23.342 -16.350  0.00  0.00    -0.001 C 
ATOM      7  C   UNL     1      35.227 -23.267 -14.837  0.00  0.00    +0.036 C 
ATOM      8  C   UNL     1      34.107 -23.079 -16.970  0.00  0.00    +0.036 C 
ATOM      9  C   UNL     1      35.279 -23.042 -16.213  0.00  0.00    +0.134 C 
BRANCH   9  10
ATOM     10  O   UNL     1      36.471 -22.786 -16.817  0.00  0.00    -0.506 OA
ATOM     11  H   UNL     1      36.648 -21.932 -17.159  0.00  0.00    +0.292 HD
ENDBRANCH   9  10
ENDBRANCH   1   4
BRANCH   1  12
ATOM     12  C   UNL     1      30.316 -23.678 -15.291  0.00  0.00    -0.019 C 
ATOM     13  C   UNL     1      29.823 -24.803 -15.873  0.00  0.00    -0.001 C 
ATOM     14  C   UNL     1      29.844 -22.418 -15.488  0.00  0.00    -0.001 C 
ATOM     15  C   UNL     1      28.744 -24.652 -16.744  0.00  0.00    +0.036 C 
ATOM     16  C   UNL     1      28.765 -22.268 -16.359  0.00  0.00    +0.036 C 
ATOM     17  C   UNL     1      28.215 -23.384 -16.987  0.00  0.00    +0.134 C 
BRANCH  17  18
ATOM     18  O   UNL     1      27.162 -23.238 -17.838  0.00  0.00    -0.506 OA
ATOM     19  H   UNL     1      26.378 -23.733 -17.701  0.00  0.00    +0.292 HD
ENDBRANCH  17  18
ENDBRANCH   1  12
TORSDOF 4
ENDMDL
MODEL 7
REMARK VINA RESULT:      -7.2      8.590     10.908
REMARK  Name = 6623
REMARK  4 active torsions:
REMARK  status: ('A' for Active; 'I' for Inactive)
REMARK    1  A    between atoms: C_1  and  C_4
REMARK    2  A    between atoms: C_1  and  C_12
REMARK    3  A    between atoms: C_9  and  O_10
REMARK    4  A    between atoms: C_17  and  O_18
REMARK                            x       y       z     vdW  Elec       q    Type
REMARK                         _______ _______ _______ _____ _____    ______ ____
ROOT
ATOM      1  C   UNL     1      32.006  -9.200 -22.114  0.00  0.00    +0.038 C 
ATOM      2  C   UNL     1      32.368  -9.437 -20.599  0.00  0.00    +0.009 C 
ATOM      3  C   UNL     1      30.794 -10.169 -22.358  0.00  0.00    +0.009 C 
ENDROOT
BRANCH   1   4
ATOM      4  C   UNL     1      33.080  -9.530 -23.094  0.00  0.00    -0.019 C 
ATOM      5  C   UNL     1      34.051  -8.581 -23.410  0.00  0.00    -0.001 C 
ATOM      6  C   UNL     1      33.113 -10.788 -23.695  0.00  0.00    -0.001 C 
ATOM      7  C   UNL     1      35.056  -8.889 -24.328  0.00  0.00    +0.036 C 
ATOM      8  C   UNL     1      34.117 -11.098 -24.612  0.00  0.00    +0.036 C 
ATOM      9  C   UNL     1      35.090 -10.148 -24.928  0.00  0.00    +0.134 C 
BRANCH   9  10
ATOM     10  O   UNL     1      36.069 -10.449 -25.823  0.00  0.00    -0.506 OA
ATOM     11  H   UNL     1      36.170  -9.932 -26.599  0.00  0.00    +0.292 HD
ENDBRANCH   9  10
ENDBRANCH   1   4
BRANCH   1  12
ATOM     12  C   UNL     1      31.572  -7.698 -22.186  0.00  0.00    -0.019 C 
ATOM     13  C   UNL     1      31.805  -6.929 -21.088  0.00  0.00    -0.001 C 
ATOM     14  C   UNL     1      30.993  -7.270 -23.339  0.00  0.00    -0.001 C 
ATOM     15  C   UNL     1      31.418  -5.591 -21.153  0.00  0.00    +0.036 C 
ATOM     16  C   UNL     1      30.607  -5.932 -23.402  0.00  0.00    +0.036 C 
ATOM     17  C   UNL     1      30.819  -5.092 -22.310  0.00  0.00    +0.134 C 
BRANCH  17  18
ATOM     18  O   UNL     1      30.442  -3.785 -22.371  0.00  0.00    -0.506 OA
ATOM     19  H   UNL     1      31.092  -3.112 -22.419  0.00  0.00    +0.292 HD
ENDBRANCH  17  18
ENDBRANCH   1  12
TORSDOF 4
ENDMDL
MODEL 8
REMARK VINA RESULT:      -7.1      8.642     11.691
REMARK  Name = 6623
REMARK  4 active torsions:
REMARK  status: ('A' for Active; 'I' for Inactive)
REMARK    1  A    between atoms: C_1  and  C_4
REMARK    2  A    between atoms: C_1  and  C_12
REMARK    3  A    between atoms: C_9  and  O_10
REMARK    4  A    between atoms: C_17  and  O_18
REMARK                            x       y       z     vdW  Elec       q    Type
REMARK                         _______ _______ _______ _____ _____    ______ ____
ROOT
ATOM      1  C   UNL     1      31.957  -8.992 -22.116  0.00  0.00    +0.038 C 
ATOM      2  C   UNL     1      30.801 -10.028 -22.387  0.00  0.00    +0.009 C 
ATOM      3  C   UNL     1      32.365  -9.276 -20.627  0.00  0.00    +0.009 C 
ENDROOT
BRANCH   1   4
ATOM      4  C   UNL     1      31.577  -7.555 -22.237  0.00  0.00    -0.019 C 
ATOM      5  C   UNL     1      31.718  -6.701 -21.143  0.00  0.00    -0.001 C 
ATOM      6  C   UNL     1      31.080  -7.065 -23.445  0.00  0.00    -0.001 C 
ATOM      7  C   UNL     1      31.361  -5.357 -21.257  0.00  0.00    +0.036 C 
ATOM      8  C   UNL     1      30.724  -5.721 -23.559  0.00  0.00    +0.036 C 
ATOM      9  C   UNL     1      30.865  -4.866 -22.464  0.00  0.00    +0.134 C 
BRANCH   9  10
ATOM     10  O   UNL     1      30.517  -3.556 -22.575  0.00  0.00    -0.506 OA
ATOM     11  H   UNL     1      29.615  -3.316 -22.655  0.00  0.00    +0.292 HD
ENDBRANCH   9  10
ENDBRANCH   1   4
BRANCH   1  12
ATOM     12  C   UNL     1      33.091  -9.395 -23.116  0.00  0.00    -0.019 C 
ATOM     13  C   UNL     1      34.037  -8.459 -23.395  0.00  0.00    -0.001 C 
ATOM     14  C   UNL     1      33.049 -10.651 -23.634  0.00  0.00    -0.001 C 
ATOM     15  C   UNL     1      35.048  -8.818 -24.287  0.00  0.00    +0.036 C 
ATOM     16  C   UNL     1      34.060 -11.009 -24.525  0.00  0.00    +0.036 C 
ATOM     17  C   UNL     1      35.059 -10.093 -24.852  0.00  0.00    +0.134 C 
BRANCH  17  18
ATOM     18  O   UNL     1      36.046 -10.443 -25.723  0.00  0.00    -0.506 OA
ATOM     19  H   UNL     1      35.839 -10.937 -26.492  0.00  0.00    +0.292 HD
ENDBRANCH  17  18
ENDBRANCH   1  12
TORSDOF 4
ENDMDL
MODEL 9
REMARK VINA RESULT:      -7.1      3.081      7.053
REMARK  Name = 6623
REMARK  4 active torsions:
REMARK  status: ('A' for Active; 'I' for Inactive)
REMARK    1  A    between atoms: C_1  and  C_4
REMARK    2  A    between atoms: C_1  and  C_12
REMARK    3  A    between atoms: C_9  and  O_10
REMARK    4  A    between atoms: C_17  and  O_18
REMARK                            x       y       z     vdW  Elec       q    Type
REMARK                         _______ _______ _______ _____ _____    ______ ____
ROOT
ATOM      1  C   UNL     1      34.140 -22.272 -18.871  0.00  0.00    +0.038 C 
ATOM      2  C   UNL     1      34.161 -23.678 -19.582  0.00  0.00    +0.009 C 
ATOM      3  C   UNL     1      32.648 -22.116 -18.409  0.00  0.00    +0.009 C 
ENDROOT
BRANCH   1   4
ATOM      4  C   UNL     1      34.494 -21.108 -19.733  0.00  0.00    -0.019 C 
ATOM      5  C   UNL     1      35.830 -20.834 -20.022  0.00  0.00    -0.001 C 
ATOM      6  C   UNL     1      33.487 -20.292 -20.249  0.00  0.00    -0.001 C 
ATOM      7  C   UNL     1      36.160 -19.744 -20.828  0.00  0.00    +0.036 C 
ATOM      8  C   UNL     1      33.816 -19.201 -21.055  0.00  0.00    +0.036 C 
ATOM      9  C   UNL     1      35.154 -18.928 -21.345  0.00  0.00    +0.134 C 
BRANCH   9  10
ATOM     10  O   UNL     1      35.476 -17.865 -22.130  0.00  0.00    -0.506 OA
ATOM     11  H   UNL     1      35.835 -18.006 -22.984  0.00  0.00    +0.292 HD
ENDBRANCH   9  10
ENDBRANCH   1   4
BRANCH   1  12
ATOM     12  C   UNL     1      35.111 -22.431 -17.654  0.00  0.00    -0.019 C 
ATOM     13  C   UNL     1      34.629 -23.062 -16.550  0.00  0.00    -0.001 C 
ATOM     14  C   UNL     1      36.366 -21.925 -17.787  0.00  0.00    -0.001 C 
ATOM     15  C   UNL     1      35.494 -23.203 -15.466  0.00  0.00    +0.036 C 
ATOM     16  C   UNL     1      37.231 -22.067 -16.702  0.00  0.00    +0.036 C 
ATOM     17  C   UNL     1      36.795 -22.705 -15.541  0.00  0.00    +0.134 C 
BRANCH  17  18
ATOM     18  O   UNL     1      37.639 -22.843 -14.481  0.00  0.00    -0.506 OA
ATOM     19  H   UNL     1      37.401 -23.395 -13.763  0.00  0.00    +0.292 HD
ENDBRANCH  17  18
ENDBRANCH   1  12
TORSDOF 4
ENDMDL
