MODEL 1
REMARK VINA RESULT:      -4.9      0.000      0.000
REMARK  Name = 134490
REMARK  6 active torsions:
REMARK  status: ('A' for Active; 'I' for Inactive)
REMARK    1  A    between atoms: CA_1  and  N_2
REMARK    2  A    between atoms: CA_1  and  C_7
REMARK    3  A    between atoms: CA_1  and  C_10
REMARK    4  A    between atoms: C_7  and  O_8
REMARK    5  A    between atoms: C_10  and  C_11
REMARK    6  A    between atoms: C_11  and  N_12
REMARK                            x       y       z     vdW  Elec       q    Type
REMARK                         _______ _______ _______ _____ _____    ______ ____
ROOT
ATOM      1  CA  UNL     1      39.124 -25.126 -14.271  0.00  0.00    +0.034 C 
ENDROOT
BRANCH   1   2
ATOM      2  N   UNL     1      38.691 -24.376 -15.452  0.00  0.00    +0.389 N 
ATOM      3  H1  UNL     1      39.332 -24.558 -16.224  0.00  0.00    -0.088 HD
ATOM      4  H2  UNL     1      38.688 -23.378 -15.240  0.00  0.00    -0.088 HD
ATOM      5  H3  UNL     1      37.750 -24.670 -15.716  0.00  0.00    -0.088 HD
ENDBRANCH   1   2
BRANCH   1   7
ATOM      6  OXT UNL     1      41.055 -26.578 -13.945  0.00  0.00    -0.253 OA
ATOM      7  C   UNL     1      40.310 -25.971 -14.704  0.00  0.00    +0.293 C 
BRANCH   7   8
ATOM      8  O   UNL     1      40.483 -25.963 -16.052  0.00  0.00    -0.482 OA
ATOM      9  H   UNL     1      40.227 -26.707 -16.562  0.00  0.00    +0.295 HD
ENDBRANCH   7   8
ENDBRANCH   1   7
BRANCH   1  10
ATOM     10  C   UNL     1      37.970 -26.002 -13.769  0.00  0.00    -0.035 C 
BRANCH  10  11
ATOM     11  C   UNL     1      37.316 -26.817 -14.889  0.00  0.00    -0.088 C 
BRANCH  11  12
ATOM     12  N   UNL     1      35.887 -26.529 -14.953  0.00  0.00    +0.380 N 
ATOM     13  H   UNL     1      35.703 -25.622 -14.523  0.00  0.00    -0.089 HD
ATOM     14  H   UNL     1      35.371 -27.253 -14.452  0.00  0.00    -0.089 HD
ATOM     15  H   UNL     1      35.587 -26.510 -15.927  0.00  0.00    -0.089 HD
ENDBRANCH  11  12
ENDBRANCH  10  11
ENDBRANCH   1  10
TORSDOF 6
ENDMDL
MODEL 2
REMARK VINA RESULT:      -4.6      1.738      2.238
REMARK  Name = 134490
REMARK  6 active torsions:
REMARK  status: ('A' for Active; 'I' for Inactive)
REMARK    1  A    between atoms: CA_1  and  N_2
REMARK    2  A    between atoms: CA_1  and  C_7
REMARK    3  A    between atoms: CA_1  and  C_10
REMARK    4  A    between atoms: C_7  and  O_8
REMARK    5  A    between atoms: C_10  and  C_11
REMARK    6  A    between atoms: C_11  and  N_12
REMARK                            x       y       z     vdW  Elec       q    Type
REMARK                         _______ _______ _______ _____ _____    ______ ____
ROOT
ATOM      1  CA  UNL     1      38.655 -25.107 -14.478  0.00  0.00    +0.034 C 
ENDROOT
BRANCH   1   2
ATOM      2  N   UNL     1      37.898 -26.042 -15.314  0.00  0.00    +0.389 N 
ATOM      3  H1  UNL     1      37.591 -25.567 -16.163  0.00  0.00    -0.088 HD
ATOM      4  H2  UNL     1      37.084 -26.377 -14.799  0.00  0.00    -0.088 HD
ATOM      5  H3  UNL     1      38.492 -26.833 -15.563  0.00  0.00    -0.088 HD
ENDBRANCH   1   2
BRANCH   1   7
ATOM      6  OXT UNL     1      41.058 -24.736 -14.306  0.00  0.00    -0.253 OA
ATOM      7  C   UNL     1      40.107 -25.217 -14.910  0.00  0.00    +0.293 C 
BRANCH   7   8
ATOM      8  O   UNL     1      40.247 -25.896 -16.078  0.00  0.00    -0.482 OA
ATOM      9  H   UNL     1      39.664 -26.602 -16.282  0.00  0.00    +0.295 HD
ENDBRANCH   7   8
ENDBRANCH   1   7
BRANCH   1  10
ATOM     10  C   UNL     1      38.482 -25.485 -13.002  0.00  0.00    -0.035 C 
BRANCH  10  11
ATOM     11  C   UNL     1      38.087 -24.290 -12.128  0.00  0.00    -0.088 C 
BRANCH  11  12
ATOM     12  N   UNL     1      37.309 -23.333 -12.906  0.00  0.00    +0.380 N 
ATOM     13  H   UNL     1      37.325 -23.600 -13.890  0.00  0.00    -0.089 HD
ATOM     14  H   UNL     1      37.711 -22.401 -12.800  0.00  0.00    -0.089 HD
ATOM     15  H   UNL     1      36.345 -23.327 -12.571  0.00  0.00    -0.089 HD
ENDBRANCH  11  12
ENDBRANCH  10  11
ENDBRANCH   1  10
TORSDOF 6
ENDMDL
MODEL 3
REMARK VINA RESULT:      -4.5     10.649     11.718
REMARK  Name = 134490
REMARK  6 active torsions:
REMARK  status: ('A' for Active; 'I' for Inactive)
REMARK    1  A    between atoms: CA_1  and  N_2
REMARK    2  A    between atoms: CA_1  and  C_7
REMARK    3  A    between atoms: CA_1  and  C_10
REMARK    4  A    between atoms: C_7  and  O_8
REMARK    5  A    between atoms: C_10  and  C_11
REMARK    6  A    between atoms: C_11  and  N_12
REMARK                            x       y       z     vdW  Elec       q    Type
REMARK                         _______ _______ _______ _____ _____    ______ ____
ROOT
ATOM      1  CA  UNL     1      42.278 -15.531 -17.849  0.00  0.00    +0.034 C 
ENDROOT
BRANCH   1   2
ATOM      2  N   UNL     1      42.242 -16.241 -19.130  0.00  0.00    +0.389 N 
ATOM      3  H1  UNL     1      42.218 -15.565 -19.893  0.00  0.00    -0.088 HD
ATOM      4  H2  UNL     1      41.409 -16.829 -19.170  0.00  0.00    -0.088 HD
ATOM      5  H3  UNL     1      43.074 -16.825 -19.219  0.00  0.00    -0.088 HD
ENDBRANCH   1   2
BRANCH   1   7
ATOM      6  OXT UNL     1      41.460 -17.669 -17.010  0.00  0.00    -0.253 OA
ATOM      7  C   UNL     1      41.860 -16.533 -16.786  0.00  0.00    +0.293 C 
BRANCH   7   8
ATOM      8  O   UNL     1      41.951 -16.020 -15.531  0.00  0.00    -0.482 OA
ATOM      9  H   UNL     1      41.472 -16.414 -14.828  0.00  0.00    +0.295 HD
ENDBRANCH   7   8
ENDBRANCH   1   7
BRANCH   1  10
ATOM     10  C   UNL     1      41.318 -14.337 -17.898  0.00  0.00    -0.035 C 
BRANCH  10  11
ATOM     11  C   UNL     1      41.977 -13.030 -17.447  0.00  0.00    -0.088 C 
BRANCH  11  12
ATOM     12  N   UNL     1      42.024 -12.965 -15.990  0.00  0.00    +0.380 N 
ATOM     13  H   UNL     1      42.329 -12.036 -15.701  0.00  0.00    -0.089 HD
ATOM     14  H   UNL     1      42.680 -13.663 -15.639  0.00  0.00    -0.089 HD
ATOM     15  H   UNL     1      41.095 -13.152 -15.612  0.00  0.00    -0.089 HD
ENDBRANCH  11  12
ENDBRANCH  10  11
ENDBRANCH   1  10
TORSDOF 6
ENDMDL
MODEL 4
REMARK VINA RESULT:      -4.5      4.243      4.704
REMARK  Name = 134490
REMARK  6 active torsions:
REMARK  status: ('A' for Active; 'I' for Inactive)
REMARK    1  A    between atoms: CA_1  and  N_2
REMARK    2  A    between atoms: CA_1  and  C_7
REMARK    3  A    between atoms: CA_1  and  C_10
REMARK    4  A    between atoms: C_7  and  O_8
REMARK    5  A    between atoms: C_10  and  C_11
REMARK    6  A    between atoms: C_11  and  N_12
REMARK                            x       y       z     vdW  Elec       q    Type
REMARK                         _______ _______ _______ _____ _____    ______ ____
ROOT
ATOM      1  CA  UNL     1      36.763 -23.614 -12.052  0.00  0.00    +0.034 C 
ENDROOT
BRANCH   1   2
ATOM      2  N   UNL     1      38.139 -23.788 -11.582  0.00  0.00    +0.389 N 
ATOM      3  H1  UNL     1      38.694 -24.233 -12.313  0.00  0.00    -0.088 HD
ATOM      4  H2  UNL     1      38.143 -24.374 -10.748  0.00  0.00    -0.088 HD
ATOM      5  H3  UNL     1      38.540 -22.876 -11.359  0.00  0.00    -0.088 HD
ENDBRANCH   1   2
BRANCH   1   7
ATOM      6  OXT UNL     1      36.019 -24.220  -9.811  0.00  0.00    -0.253 OA
ATOM      7  C   UNL     1      35.866 -24.284 -11.024  0.00  0.00    +0.293 C 
BRANCH   7   8
ATOM      8  O   UNL     1      34.867 -25.001 -11.601  0.00  0.00    -0.482 OA
ATOM      9  H   UNL     1      34.432 -25.674 -11.115  0.00  0.00    +0.295 HD
ENDBRANCH   7   8
ENDBRANCH   1   7
BRANCH   1  10
ATOM     10  C   UNL     1      36.607 -24.262 -13.433  0.00  0.00    -0.035 C 
BRANCH  10  11
ATOM     11  C   UNL     1      37.592 -25.413 -13.661  0.00  0.00    -0.088 C 
BRANCH  11  12
ATOM     12  N   UNL     1      36.946 -26.691 -13.383  0.00  0.00    +0.380 N 
ATOM     13  H   UNL     1      37.176 -26.991 -12.436  0.00  0.00    -0.089 HD
ATOM     14  H   UNL     1      37.273 -27.390 -14.050  0.00  0.00    -0.089 HD
ATOM     15  H   UNL     1      35.935 -26.587 -13.470  0.00  0.00    -0.089 HD
ENDBRANCH  11  12
ENDBRANCH  10  11
ENDBRANCH   1  10
TORSDOF 6
ENDMDL
MODEL 5
REMARK VINA RESULT:      -4.5     10.608     11.483
REMARK  Name = 134490
REMARK  6 active torsions:
REMARK  status: ('A' for Active; 'I' for Inactive)
REMARK    1  A    between atoms: CA_1  and  N_2
REMARK    2  A    between atoms: CA_1  and  C_7
REMARK    3  A    between atoms: CA_1  and  C_10
REMARK    4  A    between atoms: C_7  and  O_8
REMARK    5  A    between atoms: C_10  and  C_11
REMARK    6  A    between atoms: C_11  and  N_12
REMARK                            x       y       z     vdW  Elec       q    Type
REMARK                         _______ _______ _______ _____ _____    ______ ____
ROOT
ATOM      1  CA  UNL     1      41.276 -14.445 -16.411  0.00  0.00    +0.034 C 
ENDROOT
BRANCH   1   2
ATOM      2  N   UNL     1      41.653 -13.411 -15.445  0.00  0.00    +0.389 N 
ATOM      3  H1  UNL     1      41.197 -13.596 -14.552  0.00  0.00    -0.088 HD
ATOM      4  H2  UNL     1      41.362 -12.497 -15.793  0.00  0.00    -0.088 HD
ATOM      5  H3  UNL     1      42.666 -13.418 -15.317  0.00  0.00    -0.088 HD
ENDBRANCH   1   2
BRANCH   1   7
ATOM      6  OXT UNL     1      42.223 -16.518 -15.547  0.00  0.00    -0.253 OA
ATOM      7  C   UNL     1      41.265 -15.762 -15.654  0.00  0.00    +0.293 C 
BRANCH   7   8
ATOM      8  O   UNL     1      40.049 -16.038 -15.116  0.00  0.00    -0.482 OA
ATOM      9  H   UNL     1      39.283 -15.604 -15.441  0.00  0.00    +0.295 HD
ENDBRANCH   7   8
ENDBRANCH   1   7
BRANCH   1  10
ATOM     10  C   UNL     1      42.292 -14.469 -17.559  0.00  0.00    -0.035 C 
BRANCH  10  11
ATOM     11  C   UNL     1      41.814 -15.301 -18.753  0.00  0.00    -0.088 C 
BRANCH  11  12
ATOM     12  N   UNL     1      42.527 -16.574 -18.798  0.00  0.00    +0.380 N 
ATOM     13  H   UNL     1      42.207 -17.115 -19.601  0.00  0.00    -0.089 HD
ATOM     14  H   UNL     1      42.346 -17.096 -17.941  0.00  0.00    -0.089 HD
ATOM     15  H   UNL     1      43.529 -16.399 -18.883  0.00  0.00    -0.089 HD
ENDBRANCH  11  12
ENDBRANCH  10  11
ENDBRANCH   1  10
TORSDOF 6
ENDMDL
MODEL 6
REMARK VINA RESULT:      -4.5      9.798     10.309
REMARK  Name = 134490
REMARK  6 active torsions:
REMARK  status: ('A' for Active; 'I' for Inactive)
REMARK    1  A    between atoms: CA_1  and  N_2
REMARK    2  A    between atoms: CA_1  and  C_7
REMARK    3  A    between atoms: CA_1  and  C_10
REMARK    4  A    between atoms: C_7  and  O_8
REMARK    5  A    between atoms: C_10  and  C_11
REMARK    6  A    between atoms: C_11  and  N_12
REMARK                            x       y       z     vdW  Elec       q    Type
REMARK                         _______ _______ _______ _____ _____    ______ ____
ROOT
ATOM      1  CA  UNL     1      29.865 -23.415 -16.337  0.00  0.00    +0.034 C 
ENDROOT
BRANCH   1   2
ATOM      2  N   UNL     1      30.863 -22.575 -17.004  0.00  0.00    +0.389 N 
ATOM      3  H1  UNL     1      30.761 -21.611 -16.689  0.00  0.00    -0.088 HD
ATOM      4  H2  UNL     1      30.725 -22.620 -18.014  0.00  0.00    -0.088 HD
ATOM      5  H3  UNL     1      31.798 -22.911 -16.774  0.00  0.00    -0.088 HD
ENDBRANCH   1   2
BRANCH   1   7
ATOM      6  OXT UNL     1      28.058 -21.827 -16.729  0.00  0.00    -0.253 OA
ATOM      7  C   UNL     1      28.507 -22.961 -16.844  0.00  0.00    +0.293 C 
BRANCH   7   8
ATOM      8  O   UNL     1      27.811 -23.970 -17.429  0.00  0.00    -0.482 OA
ATOM      9  H   UNL     1      27.538 -24.709 -16.919  0.00  0.00    +0.295 HD
ENDBRANCH   7   8
ENDBRANCH   1   7
BRANCH   1  10
ATOM     10  C   UNL     1      29.981 -23.240 -14.818  0.00  0.00    -0.035 C 
BRANCH  10  11
ATOM     11  C   UNL     1      30.314 -24.549 -14.096  0.00  0.00    -0.088 C 
BRANCH  11  12
ATOM     12  N   UNL     1      29.321 -25.569 -14.417  0.00  0.00    +0.380 N 
ATOM     13  H   UNL     1      29.633 -26.472 -14.059  0.00  0.00    -0.089 HD
ATOM     14  H   UNL     1      29.206 -25.625 -15.428  0.00  0.00    -0.089 HD
ATOM     15  H   UNL     1      28.430 -25.323 -13.986  0.00  0.00    -0.089 HD
ENDBRANCH  11  12
ENDBRANCH  10  11
ENDBRANCH   1  10
TORSDOF 6
ENDMDL
MODEL 7
REMARK VINA RESULT:      -4.4      9.499     10.519
REMARK  Name = 134490
REMARK  6 active torsions:
REMARK  status: ('A' for Active; 'I' for Inactive)
REMARK    1  A    between atoms: CA_1  and  N_2
REMARK    2  A    between atoms: CA_1  and  C_7
REMARK    3  A    between atoms: CA_1  and  C_10
REMARK    4  A    between atoms: C_7  and  O_8
REMARK    5  A    between atoms: C_10  and  C_11
REMARK    6  A    between atoms: C_11  and  N_12
REMARK                            x       y       z     vdW  Elec       q    Type
REMARK                         _______ _______ _______ _____ _____    ______ ____
ROOT
ATOM      1  CA  UNL     1      28.840 -23.598 -15.477  0.00  0.00    +0.034 C 
ENDROOT
BRANCH   1   2
ATOM      2  N   UNL     1      29.208 -25.014 -15.538  0.00  0.00    +0.389 N 
ATOM      3  H1  UNL     1      29.873 -25.161 -16.297  0.00  0.00    -0.088 HD
ATOM      4  H2  UNL     1      28.373 -25.576 -15.705  0.00  0.00    -0.088 HD
ATOM      5  H3  UNL     1      29.634 -25.294 -14.654  0.00  0.00    -0.088 HD
ENDBRANCH   1   2
BRANCH   1   7
ATOM      6  OXT UNL     1      27.676 -24.057 -17.569  0.00  0.00    -0.253 OA
ATOM      7  C   UNL     1      28.215 -23.254 -16.819  0.00  0.00    +0.293 C 
BRANCH   7   8
ATOM      8  O   UNL     1      28.342 -21.936 -17.123  0.00  0.00    -0.482 OA
ATOM      9  H   UNL     1      29.176 -21.514 -17.045  0.00  0.00    +0.295 HD
ENDBRANCH   7   8
ENDBRANCH   1   7
BRANCH   1  10
ATOM     10  C   UNL     1      30.093 -22.754 -15.213  0.00  0.00    -0.035 C 
BRANCH  10  11
ATOM     11  C   UNL     1      31.329 -23.288 -15.944  0.00  0.00    -0.088 C 
BRANCH  11  12
ATOM     12  N   UNL     1      31.511 -22.582 -17.208  0.00  0.00    +0.380 N 
ATOM     13  H   UNL     1      31.859 -21.641 -17.025  0.00  0.00    -0.089 HD
ATOM     14  H   UNL     1      30.618 -22.524 -17.697  0.00  0.00    -0.089 HD
ATOM     15  H   UNL     1      32.183 -23.087 -17.785  0.00  0.00    -0.089 HD
ENDBRANCH  11  12
ENDBRANCH  10  11
ENDBRANCH   1  10
TORSDOF 6
ENDMDL
MODEL 8
REMARK VINA RESULT:      -4.3      2.680      3.595
REMARK  Name = 134490
REMARK  6 active torsions:
REMARK  status: ('A' for Active; 'I' for Inactive)
REMARK    1  A    between atoms: CA_1  and  N_2
REMARK    2  A    between atoms: CA_1  and  C_7
REMARK    3  A    between atoms: CA_1  and  C_10
REMARK    4  A    between atoms: C_7  and  O_8
REMARK    5  A    between atoms: C_10  and  C_11
REMARK    6  A    between atoms: C_11  and  N_12
REMARK                            x       y       z     vdW  Elec       q    Type
REMARK                         _______ _______ _______ _____ _____    ______ ____
ROOT
ATOM      1  CA  UNL     1      36.793 -25.414 -14.123  0.00  0.00    +0.034 C 
ENDROOT
BRANCH   1   2
ATOM      2  N   UNL     1      35.335 -25.272 -14.114  0.00  0.00    +0.389 N 
ATOM      3  H1  UNL     1      34.956 -25.598 -15.002  0.00  0.00    -0.088 HD
ATOM      4  H2  UNL     1      35.089 -24.291 -13.978  0.00  0.00    -0.088 HD
ATOM      5  H3  UNL     1      34.944 -25.828 -13.352  0.00  0.00    -0.088 HD
ENDBRANCH   1   2
BRANCH   1   7
ATOM      6  OXT UNL     1      36.385 -26.999 -15.929  0.00  0.00    -0.253 OA
ATOM      7  C   UNL     1      37.108 -26.593 -15.029  0.00  0.00    +0.293 C 
BRANCH   7   8
ATOM      8  O   UNL     1      38.291 -27.182 -14.715  0.00  0.00    -0.482 OA
ATOM      9  H   UNL     1      38.378 -27.662 -13.914  0.00  0.00    +0.295 HD
ENDBRANCH   7   8
ENDBRANCH   1   7
BRANCH   1  10
ATOM     10  C   UNL     1      37.293 -25.660 -12.695  0.00  0.00    -0.035 C 
BRANCH  10  11
ATOM     11  C   UNL     1      38.112 -24.488 -12.145  0.00  0.00    -0.088 C 
BRANCH  11  12
ATOM     12  N   UNL     1      37.304 -23.697 -11.223  0.00  0.00    +0.380 N 
ATOM     13  H   UNL     1      37.534 -23.956 -10.263  0.00  0.00    -0.089 HD
ATOM     14  H   UNL     1      36.316 -23.877 -11.396  0.00  0.00    -0.089 HD
ATOM     15  H   UNL     1      37.499 -22.706 -11.364  0.00  0.00    -0.089 HD
ENDBRANCH  11  12
ENDBRANCH  10  11
ENDBRANCH   1  10
TORSDOF 6
ENDMDL
MODEL 9
REMARK VINA RESULT:      -4.3     12.270     12.924
REMARK  Name = 134490
REMARK  6 active torsions:
REMARK  status: ('A' for Active; 'I' for Inactive)
REMARK    1  A    between atoms: CA_1  and  N_2
REMARK    2  A    between atoms: CA_1  and  C_7
REMARK    3  A    between atoms: CA_1  and  C_10
REMARK    4  A    between atoms: C_7  and  O_8
REMARK    5  A    between atoms: C_10  and  C_11
REMARK    6  A    between atoms: C_11  and  N_12
REMARK                            x       y       z     vdW  Elec       q    Type
REMARK                         _______ _______ _______ _____ _____    ______ ____
ROOT
ATOM      1  CA  UNL     1      34.681 -18.150 -23.766  0.00  0.00    +0.034 C 
ENDROOT
BRANCH   1   2
ATOM      2  N   UNL     1      34.606 -19.230 -24.751  0.00  0.00    +0.389 N 
ATOM      3  H1  UNL     1      34.575 -18.833 -25.690  0.00  0.00    -0.088 HD
ATOM      4  H2  UNL     1      33.764 -19.783 -24.588  0.00  0.00    -0.088 HD
ATOM      5  H3  UNL     1      35.428 -19.829 -24.663  0.00  0.00    -0.088 HD
ENDBRANCH   1   2
BRANCH   1   7
ATOM      6  OXT UNL     1      34.797 -16.722 -25.738  0.00  0.00    -0.253 OA
ATOM      7  C   UNL     1      34.987 -16.878 -24.539  0.00  0.00    +0.293 C 
BRANCH   7   8
ATOM      8  O   UNL     1      35.532 -15.915 -23.750  0.00  0.00    -0.482 OA
ATOM      9  H   UNL     1      36.023 -16.155 -22.988  0.00  0.00    +0.295 HD
ENDBRANCH   7   8
ENDBRANCH   1   7
BRANCH   1  10
ATOM     10  C   UNL     1      35.783 -18.462 -22.746  0.00  0.00    -0.035 C 
BRANCH  10  11
ATOM     11  C   UNL     1      35.266 -18.482 -21.305  0.00  0.00    -0.088 C 
BRANCH  11  12
ATOM     12  N   UNL     1      35.163 -17.122 -20.787  0.00  0.00    +0.380 N 
ATOM     13  H   UNL     1      35.148 -17.147 -19.767  0.00  0.00    -0.089 HD
ATOM     14  H   UNL     1      34.305 -16.691 -21.129  0.00  0.00    -0.089 HD
ATOM     15  H   UNL     1      35.966 -16.577 -21.101  0.00  0.00    -0.089 HD
ENDBRANCH  11  12
ENDBRANCH  10  11
ENDBRANCH   1  10
TORSDOF 6
ENDMDL
