MODEL 1
REMARK VINA RESULT:      -7.8      0.000      0.000
REMARK  Name = 57509244
REMARK  7 active torsions:
REMARK  status: ('A' for Active; 'I' for Inactive)
REMARK    1  A    between atoms: C_1  and  C_8
REMARK    2  A    between atoms: C_2  and  O_11
REMARK    3  A    between atoms: O_11  and  C_13
REMARK    4  A    between atoms: C_13  and  O_14
REMARK    5  A    between atoms: O_14  and  C_15
REMARK    6  A    between atoms: C_15  and  C_16
REMARK    7  A    between atoms: C_16  and  O_18
REMARK                            x       y       z     vdW  Elec       q    Type
REMARK                         _______ _______ _______ _____ _____    ______ ____
ROOT
ATOM      1  C   UNL     1      35.268 -16.760 -22.298  0.00  0.00    +0.040 C 
ATOM      2  C   UNL     1      34.199 -16.209 -23.257  0.00  0.00    +0.172 C 
ATOM      3  C   UNL     1      34.725 -16.842 -20.866  0.00  0.00    +0.004 C 
ATOM      4  C   UNL     1      33.098 -14.962 -21.341  0.00  0.00    +0.004 C 
ATOM      5  C   UNL     1      33.642 -14.870 -22.770  0.00  0.00    +0.044 C 
ATOM      6  C   UNL     1      34.172 -15.501 -20.389  0.00  0.00    +0.000 C 
ATOM      7  C   UNL     1      32.592 -13.600 -20.867  0.00  0.00    +0.000 C 
ENDROOT
BRANCH   1   8
ATOM      8  C   UNL     1      35.775 -18.129 -22.754  0.00  0.00    +0.003 C 
ATOM      9  C   UNL     1      36.846 -18.647 -21.798  0.00  0.00    +0.000 C 
ATOM     10  C   UNL     1      34.618 -19.120 -22.855  0.00  0.00    +0.000 C 
ENDBRANCH   1   8
BRANCH   2  11
ATOM     11  O   UNL     1      34.774 -16.025 -24.548  0.00  0.00    -0.422 OA
BRANCH  11  13
ATOM     12  O   UNL     1      33.602 -17.642 -25.700  0.00  0.00    -0.203 OA
ATOM     13  C   UNL     1      34.044 -16.506 -25.598  0.00  0.00    +0.512 C 
BRANCH  13  14
ATOM     14  O   UNL     1      33.894 -15.503 -26.508  0.00  0.00    -0.415 OA
BRANCH  14  15
ATOM     15  C   UNL     1      32.810 -14.603 -26.261  0.00  0.00    +0.241 C 
BRANCH  15  16
ATOM     16  C   UNL     1      33.113 -13.267 -26.928  0.00  0.00    +0.154 C 
ATOM     17  C   UNL     1      33.647 -12.254 -25.928  0.00  0.00    +0.036 C 
BRANCH  16  18
ATOM     18  O   UNL     1      34.098 -13.485 -27.937  0.00  0.00    -0.381 OA
ATOM     19  H   UNL     1      33.727 -13.264 -28.805  0.00  0.00    +0.210 HD
ENDBRANCH  16  18
ENDBRANCH  15  16
ENDBRANCH  14  15
ENDBRANCH  13  14
ENDBRANCH  11  13
ENDBRANCH   2  11
TORSDOF 7
ENDMDL
MODEL 2
REMARK VINA RESULT:      -7.4      7.655      9.530
REMARK  Name = 57509244
REMARK  7 active torsions:
REMARK  status: ('A' for Active; 'I' for Inactive)
REMARK    1  A    between atoms: C_1  and  C_8
REMARK    2  A    between atoms: C_2  and  O_11
REMARK    3  A    between atoms: O_11  and  C_13
REMARK    4  A    between atoms: C_13  and  O_14
REMARK    5  A    between atoms: O_14  and  C_15
REMARK    6  A    between atoms: C_15  and  C_16
REMARK    7  A    between atoms: C_16  and  O_18
REMARK                            x       y       z     vdW  Elec       q    Type
REMARK                         _______ _______ _______ _____ _____    ______ ____
ROOT
ATOM      1  C   UNL     1      34.381 -23.267 -15.424  0.00  0.00    +0.040 C 
ATOM      2  C   UNL     1      33.783 -23.438 -16.831  0.00  0.00    +0.172 C 
ATOM      3  C   UNL     1      33.464 -23.889 -14.363  0.00  0.00    +0.004 C 
ATOM      4  C   UNL     1      31.446 -23.522 -15.845  0.00  0.00    +0.004 C 
ATOM      5  C   UNL     1      32.356 -22.892 -16.906  0.00  0.00    +0.044 C 
ATOM      6  C   UNL     1      32.043 -23.339 -14.445  0.00  0.00    +0.000 C 
ATOM      7  C   UNL     1      30.042 -22.924 -15.916  0.00  0.00    +0.000 C 
ENDROOT
BRANCH   1   8
ATOM      8  C   UNL     1      35.784 -23.873 -15.336  0.00  0.00    +0.003 C 
ATOM      9  C   UNL     1      36.592 -23.188 -14.237  0.00  0.00    +0.000 C 
ATOM     10  C   UNL     1      35.701 -25.376 -15.088  0.00  0.00    +0.000 C 
ENDBRANCH   1   8
BRANCH   2  11
ATOM     11  O   UNL     1      34.592 -22.740 -17.774  0.00  0.00    -0.422 OA
BRANCH  11  13
ATOM     12  O   UNL     1      33.982 -23.883 -19.681  0.00  0.00    -0.203 OA
ATOM     13  C   UNL     1      34.203 -22.841 -19.080  0.00  0.00    +0.512 C 
BRANCH  13  14
ATOM     14  O   UNL     1      34.104 -21.583 -19.594  0.00  0.00    -0.415 OA
BRANCH  14  15
ATOM     15  C   UNL     1      35.346 -20.941 -19.899  0.00  0.00    +0.241 C 
BRANCH  15  16
ATOM     16  C   UNL     1      35.102 -19.864 -20.948  0.00  0.00    +0.154 C 
ATOM     17  C   UNL     1      33.629 -19.491 -21.030  0.00  0.00    +0.036 C 
BRANCH  16  18
ATOM     18  O   UNL     1      35.852 -18.706 -20.585  0.00  0.00    -0.381 OA
ATOM     19  H   UNL     1      36.016 -18.713 -19.629  0.00  0.00    +0.210 HD
ENDBRANCH  16  18
ENDBRANCH  15  16
ENDBRANCH  14  15
ENDBRANCH  13  14
ENDBRANCH  11  13
ENDBRANCH   2  11
TORSDOF 7
ENDMDL
MODEL 3
REMARK VINA RESULT:      -7.2      1.909      5.186
REMARK  Name = 57509244
REMARK  7 active torsions:
REMARK  status: ('A' for Active; 'I' for Inactive)
REMARK    1  A    between atoms: C_1  and  C_8
REMARK    2  A    between atoms: C_2  and  O_11
REMARK    3  A    between atoms: O_11  and  C_13
REMARK    4  A    between atoms: C_13  and  O_14
REMARK    5  A    between atoms: O_14  and  C_15
REMARK    6  A    between atoms: C_15  and  C_16
REMARK    7  A    between atoms: C_16  and  O_18
REMARK                            x       y       z     vdW  Elec       q    Type
REMARK                         _______ _______ _______ _____ _____    ______ ____
ROOT
ATOM      1  C   UNL     1      33.945 -14.910 -22.930  0.00  0.00    +0.040 C 
ATOM      2  C   UNL     1      33.926 -15.920 -24.090  0.00  0.00    +0.172 C 
ATOM      3  C   UNL     1      32.874 -13.830 -23.130  0.00  0.00    +0.004 C 
ATOM      4  C   UNL     1      32.977 -14.149 -25.639  0.00  0.00    +0.004 C 
ATOM      5  C   UNL     1      34.052 -15.222 -25.446  0.00  0.00    +0.044 C 
ATOM      6  C   UNL     1      33.008 -13.140 -24.485  0.00  0.00    +0.000 C 
ATOM      7  C   UNL     1      33.157 -13.440 -26.980  0.00  0.00    +0.000 C 
ENDROOT
BRANCH   1   8
ATOM      8  C   UNL     1      33.753 -15.606 -21.580  0.00  0.00    +0.003 C 
ATOM      9  C   UNL     1      34.768 -15.089 -20.565  0.00  0.00    +0.000 C 
ATOM     10  C   UNL     1      32.329 -15.400 -21.072  0.00  0.00    +0.000 C 
ENDBRANCH   1   8
BRANCH   2  11
ATOM     11  O   UNL     1      35.013 -16.831 -23.939  0.00  0.00    -0.422 OA
BRANCH  11  13
ATOM     12  O   UNL     1      34.364 -18.441 -25.456  0.00  0.00    -0.203 OA
ATOM     13  C   UNL     1      34.777 -18.111 -24.353  0.00  0.00    +0.512 C 
BRANCH  13  14
ATOM     14  O   UNL     1      35.080 -18.954 -23.326  0.00  0.00    -0.415 OA
BRANCH  14  15
ATOM     15  C   UNL     1      36.064 -18.475 -22.404  0.00  0.00    +0.241 C 
BRANCH  15  16
ATOM     16  C   UNL     1      35.572 -18.718 -20.983  0.00  0.00    +0.154 C 
ATOM     17  C   UNL     1      34.246 -19.463 -20.974  0.00  0.00    +0.036 C 
BRANCH  16  18
ATOM     18  O   UNL     1      36.547 -19.504 -20.300  0.00  0.00    -0.381 OA
ATOM     19  H   UNL     1      36.223 -19.722 -19.412  0.00  0.00    +0.210 HD
ENDBRANCH  16  18
ENDBRANCH  15  16
ENDBRANCH  14  15
ENDBRANCH  13  14
ENDBRANCH  11  13
ENDBRANCH   2  11
TORSDOF 7
ENDMDL
MODEL 4
REMARK VINA RESULT:      -7.2      3.598      6.912
REMARK  Name = 57509244
REMARK  7 active torsions:
REMARK  status: ('A' for Active; 'I' for Inactive)
REMARK    1  A    between atoms: C_1  and  C_8
REMARK    2  A    between atoms: C_2  and  O_11
REMARK    3  A    between atoms: O_11  and  C_13
REMARK    4  A    between atoms: C_13  and  O_14
REMARK    5  A    between atoms: O_14  and  C_15
REMARK    6  A    between atoms: C_15  and  C_16
REMARK    7  A    between atoms: C_16  and  O_18
REMARK                            x       y       z     vdW  Elec       q    Type
REMARK                         _______ _______ _______ _____ _____    ______ ____
ROOT
ATOM      1  C   UNL     1      34.947 -16.633 -22.532  0.00  0.00    +0.040 C 
ATOM      2  C   UNL     1      34.638 -18.019 -21.940  0.00  0.00    +0.172 C 
ATOM      3  C   UNL     1      34.314 -16.480 -23.920  0.00  0.00    +0.004 C 
ATOM      4  C   UNL     1      34.411 -18.984 -24.276  0.00  0.00    +0.004 C 
ATOM      5  C   UNL     1      35.050 -19.143 -22.893  0.00  0.00    +0.044 C 
ATOM      6  C   UNL     1      34.732 -17.605 -24.864  0.00  0.00    +0.000 C 
ATOM      7  C   UNL     1      34.877 -20.093 -25.217  0.00  0.00    +0.000 C 
ENDROOT
BRANCH   1   8
ATOM      8  C   UNL     1      34.473 -15.512 -21.604  0.00  0.00    +0.003 C 
ATOM      9  C   UNL     1      34.416 -14.186 -22.358  0.00  0.00    +0.000 C 
ATOM     10  C   UNL     1      33.111 -15.853 -21.008  0.00  0.00    +0.000 C 
ENDBRANCH   1   8
BRANCH   2  11
ATOM     11  O   UNL     1      35.344 -18.175 -20.712  0.00  0.00    -0.422 OA
BRANCH  11  13
ATOM     12  O   UNL     1      37.374 -18.878 -21.550  0.00  0.00    -0.203 OA
ATOM     13  C   UNL     1      36.446 -18.980 -20.759  0.00  0.00    +0.512 C 
BRANCH  13  14
ATOM     14  O   UNL     1      36.334 -19.915 -19.774  0.00  0.00    -0.415 OA
BRANCH  14  15
ATOM     15  C   UNL     1      35.898 -21.210 -20.198  0.00  0.00    +0.241 C 
BRANCH  15  16
ATOM     16  C   UNL     1      34.690 -21.623 -19.365  0.00  0.00    +0.154 C 
ATOM     17  C   UNL     1      33.412 -20.985 -19.886  0.00  0.00    +0.036 C 
BRANCH  16  18
ATOM     18  O   UNL     1      34.561 -23.041 -19.437  0.00  0.00    -0.381 OA
ATOM     19  H   UNL     1      33.845 -23.332 -18.851  0.00  0.00    +0.210 HD
ENDBRANCH  16  18
ENDBRANCH  15  16
ENDBRANCH  14  15
ENDBRANCH  13  14
ENDBRANCH  11  13
ENDBRANCH   2  11
TORSDOF 7
ENDMDL
MODEL 5
REMARK VINA RESULT:      -7.1      1.926      4.125
REMARK  Name = 57509244
REMARK  7 active torsions:
REMARK  status: ('A' for Active; 'I' for Inactive)
REMARK    1  A    between atoms: C_1  and  C_8
REMARK    2  A    between atoms: C_2  and  O_11
REMARK    3  A    between atoms: O_11  and  C_13
REMARK    4  A    between atoms: C_13  and  O_14
REMARK    5  A    between atoms: O_14  and  C_15
REMARK    6  A    between atoms: C_15  and  C_16
REMARK    7  A    between atoms: C_16  and  O_18
REMARK                            x       y       z     vdW  Elec       q    Type
REMARK                         _______ _______ _______ _____ _____    ______ ____
ROOT
ATOM      1  C   UNL     1      33.178 -13.996 -21.505  0.00  0.00    +0.040 C 
ATOM      2  C   UNL     1      32.789 -13.607 -22.941  0.00  0.00    +0.172 C 
ATOM      3  C   UNL     1      32.154 -13.457 -20.498  0.00  0.00    +0.004 C 
ATOM      4  C   UNL     1      31.554 -11.568 -22.071  0.00  0.00    +0.004 C 
ATOM      5  C   UNL     1      32.580 -12.097 -23.078  0.00  0.00    +0.044 C 
ATOM      6  C   UNL     1      31.953 -11.951 -20.642  0.00  0.00    +0.000 C 
ATOM      7  C   UNL     1      31.401 -10.053 -22.202  0.00  0.00    +0.000 C 
ENDROOT
BRANCH   1   8
ATOM      8  C   UNL     1      33.322 -15.513 -21.358  0.00  0.00    +0.003 C 
ATOM      9  C   UNL     1      34.647 -15.859 -20.684  0.00  0.00    +0.000 C 
ATOM     10  C   UNL     1      32.149 -16.085 -20.567  0.00  0.00    +0.000 C 
ENDBRANCH   1   8
BRANCH   2  11
ATOM     11  O   UNL     1      33.823 -14.010 -23.836  0.00  0.00    -0.422 OA
BRANCH  11  13
ATOM     12  O   UNL     1      33.007 -14.009 -25.992  0.00  0.00    -0.203 OA
ATOM     13  C   UNL     1      33.409 -14.597 -24.997  0.00  0.00    +0.512 C 
BRANCH  13  14
ATOM     14  O   UNL     1      33.520 -15.948 -24.856  0.00  0.00    -0.415 OA
BRANCH  14  15
ATOM     15  C   UNL     1      34.853 -16.443 -24.693  0.00  0.00    +0.241 C 
BRANCH  15  16
ATOM     16  C   UNL     1      34.806 -17.731 -23.880  0.00  0.00    +0.154 C 
ATOM     17  C   UNL     1      34.468 -18.929 -24.755  0.00  0.00    +0.036 C 
BRANCH  16  18
ATOM     18  O   UNL     1      36.088 -17.937 -23.292  0.00  0.00    -0.381 OA
ATOM     19  H   UNL     1      36.222 -18.883 -23.126  0.00  0.00    +0.210 HD
ENDBRANCH  16  18
ENDBRANCH  15  16
ENDBRANCH  14  15
ENDBRANCH  13  14
ENDBRANCH  11  13
ENDBRANCH   2  11
TORSDOF 7
ENDMDL
MODEL 6
REMARK VINA RESULT:      -7.0      2.561      4.309
REMARK  Name = 57509244
REMARK  7 active torsions:
REMARK  status: ('A' for Active; 'I' for Inactive)
REMARK    1  A    between atoms: C_1  and  C_8
REMARK    2  A    between atoms: C_2  and  O_11
REMARK    3  A    between atoms: O_11  and  C_13
REMARK    4  A    between atoms: C_13  and  O_14
REMARK    5  A    between atoms: O_14  and  C_15
REMARK    6  A    between atoms: C_15  and  C_16
REMARK    7  A    between atoms: C_16  and  O_18
REMARK                            x       y       z     vdW  Elec       q    Type
REMARK                         _______ _______ _______ _____ _____    ______ ____
ROOT
ATOM      1  C   UNL     1      34.441 -18.743 -22.656  0.00  0.00    +0.040 C 
ATOM      2  C   UNL     1      34.609 -17.255 -22.308  0.00  0.00    +0.172 C 
ATOM      3  C   UNL     1      34.983 -19.039 -24.060  0.00  0.00    +0.004 C 
ATOM      4  C   UNL     1      34.533 -16.652 -24.771  0.00  0.00    +0.004 C 
ATOM      5  C   UNL     1      33.984 -16.352 -23.373  0.00  0.00    +0.044 C 
ATOM      6  C   UNL     1      34.352 -18.135 -25.116  0.00  0.00    +0.000 C 
ATOM      7  C   UNL     1      33.857 -15.768 -25.818  0.00  0.00    +0.000 C 
ENDROOT
BRANCH   1   8
ATOM      8  C   UNL     1      35.124 -19.640 -21.622  0.00  0.00    +0.003 C 
ATOM      9  C   UNL     1      36.317 -18.921 -20.998  0.00  0.00    +0.000 C 
ATOM     10  C   UNL     1      34.130 -20.068 -20.547  0.00  0.00    +0.000 C 
ENDBRANCH   1   8
BRANCH   2  11
ATOM     11  O   UNL     1      33.982 -16.990 -21.055  0.00  0.00    -0.422 OA
BRANCH  11  13
ATOM     12  O   UNL     1      35.036 -15.099 -20.262  0.00  0.00    -0.203 OA
ATOM     13  C   UNL     1      34.032 -15.694 -20.628  0.00  0.00    +0.512 C 
BRANCH  13  14
ATOM     14  O   UNL     1      32.771 -15.179 -20.683  0.00  0.00    -0.415 OA
BRANCH  14  15
ATOM     15  C   UNL     1      32.683 -13.753 -20.596  0.00  0.00    +0.241 C 
BRANCH  15  16
ATOM     16  C   UNL     1      32.159 -13.208 -21.918  0.00  0.00    +0.154 C 
ATOM     17  C   UNL     1      31.457 -11.872 -21.731  0.00  0.00    +0.036 C 
BRANCH  16  18
ATOM     18  O   UNL     1      33.267 -13.028 -22.798  0.00  0.00    -0.381 OA
ATOM     19  H   UNL     1      33.835 -12.317 -22.463  0.00  0.00    +0.210 HD
ENDBRANCH  16  18
ENDBRANCH  15  16
ENDBRANCH  14  15
ENDBRANCH  13  14
ENDBRANCH  11  13
ENDBRANCH   2  11
TORSDOF 7
ENDMDL
MODEL 7
REMARK VINA RESULT:      -7.0      8.359     10.604
REMARK  Name = 57509244
REMARK  7 active torsions:
REMARK  status: ('A' for Active; 'I' for Inactive)
REMARK    1  A    between atoms: C_1  and  C_8
REMARK    2  A    between atoms: C_2  and  O_11
REMARK    3  A    between atoms: O_11  and  C_13
REMARK    4  A    between atoms: C_13  and  O_14
REMARK    5  A    between atoms: O_14  and  C_15
REMARK    6  A    between atoms: C_15  and  C_16
REMARK    7  A    between atoms: C_16  and  O_18
REMARK                            x       y       z     vdW  Elec       q    Type
REMARK                         _______ _______ _______ _____ _____    ______ ____
ROOT
ATOM      1  C   UNL     1      32.986 -24.207 -15.053  0.00  0.00    +0.040 C 
ATOM      2  C   UNL     1      33.921 -23.433 -15.997  0.00  0.00    +0.172 C 
ATOM      3  C   UNL     1      33.266 -23.844 -13.589  0.00  0.00    +0.004 C 
ATOM      4  C   UNL     1      35.662 -23.262 -14.160  0.00  0.00    +0.004 C 
ATOM      5  C   UNL     1      35.391 -23.631 -15.622  0.00  0.00    +0.044 C 
ATOM      6  C   UNL     1      34.735 -24.046 -13.224  0.00  0.00    +0.000 C 
ATOM      7  C   UNL     1      37.127 -23.514 -13.803  0.00  0.00    +0.000 C 
ENDROOT
BRANCH   1   8
ATOM      8  C   UNL     1      31.515 -23.954 -15.392  0.00  0.00    +0.003 C 
ATOM      9  C   UNL     1      30.642 -25.084 -14.853  0.00  0.00    +0.000 C 
ATOM     10  C   UNL     1      31.063 -22.609 -14.832  0.00  0.00    +0.000 C 
ENDBRANCH   1   8
BRANCH   2  11
ATOM     11  O   UNL     1      33.723 -23.887 -17.334  0.00  0.00    -0.422 OA
BRANCH  11  13
ATOM     12  O   UNL     1      32.483 -22.229 -18.348  0.00  0.00    -0.203 OA
ATOM     13  C   UNL     1      33.493 -22.914 -18.264  0.00  0.00    +0.512 C 
BRANCH  13  14
ATOM     14  O   UNL     1      34.582 -22.838 -19.079  0.00  0.00    -0.415 OA
BRANCH  14  15
ATOM     15  C   UNL     1      35.460 -21.734 -18.836  0.00  0.00    +0.241 C 
BRANCH  15  16
ATOM     16  C   UNL     1      35.634 -20.945 -20.127  0.00  0.00    +0.154 C 
ATOM     17  C   UNL     1      34.353 -20.224 -20.516  0.00  0.00    +0.036 C 
BRANCH  16  18
ATOM     18  O   UNL     1      36.665 -19.980 -19.927  0.00  0.00    -0.381 OA
ATOM     19  H   UNL     1      37.228 -19.938 -20.715  0.00  0.00    +0.210 HD
ENDBRANCH  16  18
ENDBRANCH  15  16
ENDBRANCH  14  15
ENDBRANCH  13  14
ENDBRANCH  11  13
ENDBRANCH   2  11
TORSDOF 7
ENDMDL
MODEL 8
REMARK VINA RESULT:      -6.9      2.203      5.504
REMARK  Name = 57509244
REMARK  7 active torsions:
REMARK  status: ('A' for Active; 'I' for Inactive)
REMARK    1  A    between atoms: C_1  and  C_8
REMARK    2  A    between atoms: C_2  and  O_11
REMARK    3  A    between atoms: O_11  and  C_13
REMARK    4  A    between atoms: C_13  and  O_14
REMARK    5  A    between atoms: O_14  and  C_15
REMARK    6  A    between atoms: C_15  and  C_16
REMARK    7  A    between atoms: C_16  and  O_18
REMARK                            x       y       z     vdW  Elec       q    Type
REMARK                         _______ _______ _______ _____ _____    ______ ____
ROOT
ATOM      1  C   UNL     1      33.038 -11.672 -24.182  0.00  0.00    +0.040 C 
ATOM      2  C   UNL     1      33.044 -12.816 -23.154  0.00  0.00    +0.172 C 
ATOM      3  C   UNL     1      33.100 -10.309 -23.482  0.00  0.00    +0.004 C 
ATOM      4  C   UNL     1      32.004 -11.284 -21.419  0.00  0.00    +0.004 C 
ATOM      5  C   UNL     1      31.932 -12.646 -22.116  0.00  0.00    +0.044 C 
ATOM      6  C   UNL     1      31.987 -10.149 -22.449  0.00  0.00    +0.000 C 
ATOM      7  C   UNL     1      30.855 -11.127 -20.423  0.00  0.00    +0.000 C 
ENDROOT
BRANCH   1   8
ATOM      8  C   UNL     1      34.191 -11.811 -25.179  0.00  0.00    +0.003 C 
ATOM      9  C   UNL     1      33.665 -12.236 -26.547  0.00  0.00    +0.000 C 
ATOM     10  C   UNL     1      34.966 -10.501 -25.282  0.00  0.00    +0.000 C 
ENDBRANCH   1   8
BRANCH   2  11
ATOM     11  O   UNL     1      32.857 -14.058 -23.829  0.00  0.00    -0.422 OA
BRANCH  11  13
ATOM     12  O   UNL     1      34.888 -14.830 -23.059  0.00  0.00    -0.203 OA
ATOM     13  C   UNL     1      33.919 -14.915 -23.801  0.00  0.00    +0.512 C 
BRANCH  13  14
ATOM     14  O   UNL     1      33.713 -15.880 -24.741  0.00  0.00    -0.415 OA
BRANCH  14  15
ATOM     15  C   UNL     1      34.817 -16.760 -24.975  0.00  0.00    +0.241 C 
BRANCH  15  16
ATOM     16  C   UNL     1      34.820 -17.845 -23.906  0.00  0.00    +0.154 C 
ATOM     17  C   UNL     1      34.699 -19.231 -24.519  0.00  0.00    +0.036 C 
BRANCH  16  18
ATOM     18  O   UNL     1      36.051 -17.763 -23.188  0.00  0.00    -0.381 OA
ATOM     19  H   UNL     1      36.778 -17.603 -23.809  0.00  0.00    +0.210 HD
ENDBRANCH  16  18
ENDBRANCH  15  16
ENDBRANCH  14  15
ENDBRANCH  13  14
ENDBRANCH  11  13
ENDBRANCH   2  11
TORSDOF 7
ENDMDL
MODEL 9
REMARK VINA RESULT:      -6.9      9.321     12.281
REMARK  Name = 57509244
REMARK  7 active torsions:
REMARK  status: ('A' for Active; 'I' for Inactive)
REMARK    1  A    between atoms: C_1  and  C_8
REMARK    2  A    between atoms: C_2  and  O_11
REMARK    3  A    between atoms: O_11  and  C_13
REMARK    4  A    between atoms: C_13  and  O_14
REMARK    5  A    between atoms: O_14  and  C_15
REMARK    6  A    between atoms: C_15  and  C_16
REMARK    7  A    between atoms: C_16  and  O_18
REMARK                            x       y       z     vdW  Elec       q    Type
REMARK                         _______ _______ _______ _____ _____    ______ ____
ROOT
ATOM      1  C   UNL     1      33.359 -23.310 -17.378  0.00  0.00    +0.040 C 
ATOM      2  C   UNL     1      34.192 -23.091 -16.103  0.00  0.00    +0.172 C 
ATOM      3  C   UNL     1      31.956 -22.710 -17.221  0.00  0.00    +0.004 C 
ATOM      4  C   UNL     1      32.073 -23.013 -14.711  0.00  0.00    +0.004 C 
ATOM      5  C   UNL     1      33.471 -23.620 -14.862  0.00  0.00    +0.044 C 
ATOM      6  C   UNL     1      31.245 -23.243 -15.981  0.00  0.00    +0.000 C 
ATOM      7  C   UNL     1      31.361 -23.593 -13.490  0.00  0.00    +0.000 C 
ENDROOT
BRANCH   1   8
ATOM      8  C   UNL     1      34.055 -22.722 -18.607  0.00  0.00    +0.003 C 
ATOM      9  C   UNL     1      34.172 -23.773 -19.707  0.00  0.00    +0.000 C 
ATOM     10  C   UNL     1      33.301 -21.495 -19.111  0.00  0.00    +0.000 C 
ENDBRANCH   1   8
BRANCH   2  11
ATOM     11  O   UNL     1      35.440 -23.770 -16.233  0.00  0.00    -0.422 OA
BRANCH  11  13
ATOM     12  O   UNL     1      36.981 -22.056 -16.197  0.00  0.00    -0.203 OA
ATOM     13  C   UNL     1      36.531 -23.104 -15.754  0.00  0.00    +0.512 C 
BRANCH  13  14
ATOM     14  O   UNL     1      37.030 -23.807 -14.699  0.00  0.00    -0.415 OA
BRANCH  14  15
ATOM     15  C   UNL     1      38.229 -24.544 -14.960  0.00  0.00    +0.241 C 
BRANCH  15  16
ATOM     16  C   UNL     1      37.959 -26.025 -14.731  0.00  0.00    +0.154 C 
ATOM     17  C   UNL     1      37.194 -26.258 -13.438  0.00  0.00    +0.036 C 
BRANCH  16  18
ATOM     18  O   UNL     1      37.181 -26.512 -15.822  0.00  0.00    -0.381 OA
ATOM     19  H   UNL     1      36.689 -25.779 -16.223  0.00  0.00    +0.210 HD
ENDBRANCH  16  18
ENDBRANCH  15  16
ENDBRANCH  14  15
ENDBRANCH  13  14
ENDBRANCH  11  13
ENDBRANCH   2  11
TORSDOF 7
ENDMDL
