MODEL 1
REMARK VINA RESULT:     -12.1      0.000      0.000
REMARK  Name = 24780387
REMARK  3 active torsions:
REMARK  status: ('A' for Active; 'I' for Inactive)
REMARK    1  A    between atoms: N_3  and  C_25
REMARK    2  A    between atoms: C_18  and  O_23
REMARK    3  A    between atoms: C_25  and  N_26
REMARK                            x       y       z     vdW  Elec       q    Type
REMARK                         _______ _______ _______ _____ _____    ______ ____
ROOT
ATOM      1  O   UNL     1      32.517 -22.301 -18.978  0.00  0.00    -0.270 OA
ATOM      2  O   UNL     1      36.676 -22.731 -17.013  0.00  0.00    -0.270 OA
ATOM      3  N   UNL     1      34.778 -22.411 -18.346  0.00  0.00    -0.244 N 
ATOM      4  N   UNL     1      33.728 -23.999 -12.857  0.00  0.00    -0.353 N 
ATOM      5  C   UNL     1      32.058 -23.098 -16.085  0.00  0.00    -0.020 A 
ATOM      6  C   UNL     1      32.142 -23.486 -14.740  0.00  0.00    -0.010 A 
ATOM      7  C   UNL     1      33.213 -22.879 -16.785  0.00  0.00    +0.054 A 
ATOM      8  C   UNL     1      30.635 -23.036 -16.535  0.00  0.00    +0.027 C 
ATOM      9  C   UNL     1      30.770 -23.725 -14.174  0.00  0.00    +0.028 C 
ATOM     10  C   UNL     1      33.399 -23.630 -14.136  0.00  0.00    +0.052 A 
ATOM     11  C   UNL     1      34.462 -23.017 -16.180  0.00  0.00    +0.059 A 
ATOM     12  C   UNL     1      29.896 -22.977 -15.190  0.00  0.00    +0.009 C 
ATOM     13  C   UNL     1      34.601 -23.397 -14.831  0.00  0.00    +0.024 A 
ATOM     14  C   UNL     1      33.416 -22.492 -18.180  0.00  0.00    +0.253 C 
ATOM     15  C   UNL     1      35.474 -22.712 -17.192  0.00  0.00    +0.253 C 
ATOM     16  C   UNL     1      35.670 -23.635 -13.902  0.00  0.00    +0.051 A 
ATOM     17  C   UNL     1      35.091 -24.007 -12.686  0.00  0.00    +0.060 A 
ATOM     18  C   UNL     1      37.080 -23.575 -13.962  0.00  0.00    +0.140 C 
ATOM     19  C   UNL     1      35.840 -24.319 -11.543  0.00  0.00    +0.017 C 
ATOM     20  C   UNL     1      37.844 -23.883 -12.829  0.00  0.00    +0.037 C 
ATOM     21  C   UNL     1      37.230 -24.249 -11.636  0.00  0.00    +0.005 C 
ATOM     22  H   UNL     1      33.076 -24.227 -12.155  0.00  0.00    +0.166 HD
ENDROOT
BRANCH  18  23
ATOM     23  O   UNL     1      37.806 -23.222 -15.065  0.00  0.00    -0.471 OA
ATOM     24  C   UNL     1      38.920 -24.047 -15.394  0.00  0.00    +0.252 C 
ENDBRANCH  18  23
BRANCH   3  25
ATOM     25  C   UNL     1      35.429 -22.053 -19.592  0.00  0.00    +0.028 C 
BRANCH  25  26
ATOM     26  N   UNL     1      35.193 -20.637 -19.865  0.00  0.00    +0.396 N 
ATOM     27  N   UNL     1      34.947 -18.360 -21.629  0.00  0.00    +0.383 N 
ATOM     28  C   UNL     1      36.373 -20.022 -20.486  0.00  0.00    -0.098 C 
ATOM     29  C   UNL     1      34.014 -20.461 -20.721  0.00  0.00    -0.098 C 
ATOM     30  C   UNL     1      36.127 -18.537 -20.774  0.00  0.00    -0.101 C 
ATOM     31  C   UNL     1      33.767 -18.975 -21.008  0.00  0.00    -0.101 C 
ATOM     32  C   UNL     1      34.711 -16.943 -21.900  0.00  0.00    -0.101 C 
ATOM     33  H   UNL     1      35.019 -20.170 -18.975  0.00  0.00    -0.077 HD
ATOM     34  H   UNL     1      35.121 -18.826 -22.519  0.00  0.00    -0.080 HD
ENDBRANCH  25  26
ENDBRANCH   3  25
TORSDOF 3
ENDMDL
MODEL 2
REMARK VINA RESULT:     -11.3      1.445      4.499
REMARK  Name = 24780387
REMARK  3 active torsions:
REMARK  status: ('A' for Active; 'I' for Inactive)
REMARK    1  A    between atoms: N_3  and  C_25
REMARK    2  A    between atoms: C_18  and  O_23
REMARK    3  A    between atoms: C_25  and  N_26
REMARK                            x       y       z     vdW  Elec       q    Type
REMARK                         _______ _______ _______ _____ _____    ______ ____
ROOT
ATOM      1  O   UNL     1      36.659 -21.744 -18.932  0.00  0.00    -0.270 OA
ATOM      2  O   UNL     1      32.135 -22.469 -18.335  0.00  0.00    -0.270 OA
ATOM      3  N   UNL     1      34.320 -21.965 -19.008  0.00  0.00    -0.244 N 
ATOM      4  N   UNL     1      33.811 -24.169 -13.657  0.00  0.00    -0.353 N 
ATOM      5  C   UNL     1      36.305 -22.934 -16.162  0.00  0.00    -0.020 A 
ATOM      6  C   UNL     1      35.852 -23.463 -14.944  0.00  0.00    -0.010 A 
ATOM      7  C   UNL     1      35.391 -22.627 -17.133  0.00  0.00    +0.054 A 
ATOM      8  C   UNL     1      37.789 -22.757 -16.149  0.00  0.00    +0.027 C 
ATOM      9  C   UNL     1      37.004 -23.679 -14.003  0.00  0.00    +0.028 C 
ATOM     10  C   UNL     1      34.481 -23.677 -14.748  0.00  0.00    +0.052 A 
ATOM     11  C   UNL     1      34.027 -22.848 -16.936  0.00  0.00    +0.059 A 
ATOM     12  C   UNL     1      38.190 -23.666 -14.978  0.00  0.00    +0.009 C 
ATOM     13  C   UNL     1      33.523 -23.382 -15.735  0.00  0.00    +0.024 A 
ATOM     14  C   UNL     1      35.579 -22.056 -18.465  0.00  0.00    +0.253 C 
ATOM     15  C   UNL     1      33.337 -22.420 -18.153  0.00  0.00    +0.253 C 
ATOM     16  C   UNL     1      32.241 -23.732 -15.188  0.00  0.00    +0.051 A 
ATOM     17  C   UNL     1      32.459 -24.218 -13.895  0.00  0.00    +0.060 A 
ATOM     18  C   UNL     1      30.908 -23.688 -15.652  0.00  0.00    +0.140 C 
ATOM     19  C   UNL     1      31.426 -24.655 -13.056  0.00  0.00    +0.017 C 
ATOM     20  C   UNL     1      29.863 -24.122 -14.827  0.00  0.00    +0.037 C 
ATOM     21  C   UNL     1      30.121 -24.599 -13.546  0.00  0.00    +0.005 C 
ATOM     22  H   UNL     1      34.241 -24.451 -12.817  0.00  0.00    +0.166 HD
ENDROOT
BRANCH  18  23
ATOM     23  O   UNL     1      30.520 -23.252 -16.888  0.00  0.00    -0.471 OA
ATOM     24  C   UNL     1      29.152 -22.885 -17.041  0.00  0.00    +0.252 C 
ENDBRANCH  18  23
BRANCH   3  25
ATOM     25  C   UNL     1      34.038 -21.447 -20.334  0.00  0.00    +0.028 C 
BRANCH  25  26
ATOM     26  N   UNL     1      34.289 -20.008 -20.348  0.00  0.00    +0.396 N 
ATOM     27  N   UNL     1      34.533 -17.447 -21.670  0.00  0.00    +0.383 N 
ATOM     28  C   UNL     1      35.453 -19.689 -21.186  0.00  0.00    -0.098 C 
ATOM     29  C   UNL     1      33.105 -19.276 -20.816  0.00  0.00    -0.098 C 
ATOM     30  C   UNL     1      35.716 -18.179 -21.203  0.00  0.00    -0.101 C 
ATOM     31  C   UNL     1      33.369 -17.766 -20.832  0.00  0.00    -0.101 C 
ATOM     32  C   UNL     1      34.785 -16.008 -21.682  0.00  0.00    -0.101 C 
ATOM     33  H   UNL     1      34.492 -19.714 -19.393  0.00  0.00    -0.077 HD
ATOM     34  H   UNL     1      34.330 -17.740 -22.625  0.00  0.00    -0.080 HD
ENDBRANCH  25  26
ENDBRANCH   3  25
TORSDOF 3
ENDMDL
MODEL 3
REMARK VINA RESULT:      -9.3      2.565      7.349
REMARK  Name = 24780387
REMARK  3 active torsions:
REMARK  status: ('A' for Active; 'I' for Inactive)
REMARK    1  A    between atoms: N_3  and  C_25
REMARK    2  A    between atoms: C_18  and  O_23
REMARK    3  A    between atoms: C_25  and  N_26
REMARK                            x       y       z     vdW  Elec       q    Type
REMARK                         _______ _______ _______ _____ _____    ______ ____
ROOT
ATOM      1  O   UNL     1      37.018 -23.081 -15.911  0.00  0.00    -0.270 OA
ATOM      2  O   UNL     1      33.249 -24.252 -13.508  0.00  0.00    -0.270 OA
ATOM      3  N   UNL     1      35.365 -23.788 -14.396  0.00  0.00    -0.244 N 
ATOM      4  N   UNL     1      30.879 -22.527 -17.865  0.00  0.00    -0.353 N 
ATOM      5  C   UNL     1      34.615 -22.419 -17.644  0.00  0.00    -0.020 A 
ATOM      6  C   UNL     1      33.351 -22.240 -18.224  0.00  0.00    -0.010 A 
ATOM      7  C   UNL     1      34.698 -22.958 -16.388  0.00  0.00    +0.054 A 
ATOM      8  C   UNL     1      35.699 -22.002 -18.584  0.00  0.00    +0.027 C 
ATOM      9  C   UNL     1      33.484 -21.689 -19.617  0.00  0.00    +0.028 C 
ATOM     10  C   UNL     1      32.201 -22.602 -17.509  0.00  0.00    +0.052 A 
ATOM     11  C   UNL     1      33.551 -23.310 -15.677  0.00  0.00    +0.059 A 
ATOM     12  C   UNL     1      34.915 -21.135 -19.580  0.00  0.00    +0.009 C 
ATOM     13  C   UNL     1      32.260 -23.144 -16.212  0.00  0.00    +0.024 A 
ATOM     14  C   UNL     1      35.866 -23.268 -15.566  0.00  0.00    +0.253 C 
ATOM     15  C   UNL     1      33.987 -23.846 -14.386  0.00  0.00    +0.253 C 
ATOM     16  C   UNL     1      30.904 -23.383 -15.800  0.00  0.00    +0.051 A 
ATOM     17  C   UNL     1      30.073 -22.988 -16.853  0.00  0.00    +0.060 A 
ATOM     18  C   UNL     1      30.286 -23.897 -14.639  0.00  0.00    +0.140 C 
ATOM     19  C   UNL     1      28.676 -23.080 -16.803  0.00  0.00    +0.017 C 
ATOM     20  C   UNL     1      28.890 -23.995 -14.572  0.00  0.00    +0.037 C 
ATOM     21  C   UNL     1      28.098 -23.592 -15.641  0.00  0.00    +0.005 C 
ATOM     22  H   UNL     1      30.550 -22.189 -18.730  0.00  0.00    +0.166 HD
ENDROOT
BRANCH  18  23
ATOM     23  O   UNL     1      30.945 -24.319 -13.518  0.00  0.00    -0.471 OA
ATOM     24  C   UNL     1      30.335 -24.027 -12.265  0.00  0.00    +0.252 C 
ENDBRANCH  18  23
BRANCH   3  25
ATOM     25  C   UNL     1      36.184 -24.234 -13.285  0.00  0.00    +0.028 C 
BRANCH  25  26
ATOM     26  N   UNL     1      37.473 -24.696 -13.796  0.00  0.00    +0.396 N 
ATOM     27  N   UNL     1      39.857 -26.328 -13.676  0.00  0.00    +0.383 N 
ATOM     28  C   UNL     1      38.548 -24.406 -12.838  0.00  0.00    -0.098 C 
ATOM     29  C   UNL     1      37.429 -26.132 -14.098  0.00  0.00    -0.098 C 
ATOM     30  C   UNL     1      39.900 -24.892 -13.372  0.00  0.00    -0.101 C 
ATOM     31  C   UNL     1      38.781 -26.618 -14.633  0.00  0.00    -0.101 C 
ATOM     32  C   UNL     1      41.146 -26.788 -14.188  0.00  0.00    -0.101 C 
ATOM     33  H   UNL     1      37.668 -24.191 -14.660  0.00  0.00    -0.077 HD
ATOM     34  H   UNL     1      39.662 -26.833 -12.812  0.00  0.00    -0.080 HD
ENDBRANCH  25  26
ENDBRANCH   3  25
TORSDOF 3
ENDMDL
