MODEL 1
REMARK VINA RESULT:     -11.0      0.000      0.000
REMARK  Name = 10220323
REMARK  0 active torsions:
REMARK  status: ('A' for Active; 'I' for Inactive)
REMARK                            x       y       z     vdW  Elec       q    Type
REMARK                         _______ _______ _______ _____ _____    ______ ____
ROOT
ATOM      1  O   UNL     1      34.940 -19.771 -23.764  0.00  0.00    -0.213 OA
ATOM      2  N   UNL     1      34.572 -16.854 -21.918  0.00  0.00    -0.249 N 
ATOM      3  N   UNL     1      34.721 -17.478 -24.094  0.00  0.00    -0.319 NA
ATOM      4  C   UNL     1      34.712 -18.294 -21.812  0.00  0.00    +0.176 C 
ATOM      5  C   UNL     1      33.496 -18.976 -21.163  0.00  0.00    +0.062 C 
ATOM      6  C   UNL     1      35.985 -18.725 -21.064  0.00  0.00    +0.062 C 
ATOM      7  C   UNL     1      34.141 -20.136 -20.468  0.00  0.00    -0.023 C 
ATOM      8  C   UNL     1      35.531 -19.996 -20.413  0.00  0.00    -0.023 C 
ATOM      9  C   UNL     1      34.807 -18.635 -23.324  0.00  0.00    +0.198 C 
ATOM     10  C   UNL     1      34.589 -16.488 -23.252  0.00  0.00    +0.201 C 
ATOM     11  C   UNL     1      34.437 -15.903 -20.931  0.00  0.00    +0.068 C 
ATOM     12  C   UNL     1      33.511 -21.229 -19.896  0.00  0.00    -0.004 C 
ATOM     13  C   UNL     1      36.319 -20.948 -19.784  0.00  0.00    -0.004 C 
ATOM     14  C   UNL     1      34.462 -15.059 -23.650  0.00  0.00    +0.049 C 
ATOM     15  C   UNL     1      34.298 -22.197 -19.268  0.00  0.00    -0.000 C 
ATOM     16  C   UNL     1      35.693 -22.057 -19.213  0.00  0.00    -0.000 C 
ATOM     17  C   UNL     1      34.319 -14.599 -21.237  0.00  0.00    +0.016 C 
ATOM     18  C   UNL     1      34.333 -14.186 -22.635  0.00  0.00    +0.005 C 
ENDROOT
TORSDOF 0
ENDMDL
MODEL 2
REMARK VINA RESULT:     -10.3      1.616      2.810
REMARK  Name = 10220323
REMARK  0 active torsions:
REMARK  status: ('A' for Active; 'I' for Inactive)
REMARK                            x       y       z     vdW  Elec       q    Type
REMARK                         _______ _______ _______ _____ _____    ______ ____
ROOT
ATOM      1  O   UNL     1      34.976 -16.501 -19.935  0.00  0.00    -0.213 OA
ATOM      2  N   UNL     1      34.566 -17.315 -23.285  0.00  0.00    -0.249 N 
ATOM      3  N   UNL     1      34.501 -15.471 -21.967  0.00  0.00    -0.319 NA
ATOM      4  C   UNL     1      34.858 -17.867 -21.976  0.00  0.00    +0.176 C 
ATOM      5  C   UNL     1      36.249 -18.516 -21.885  0.00  0.00    +0.062 C 
ATOM      6  C   UNL     1      33.802 -18.880 -21.497  0.00  0.00    +0.062 C 
ATOM      7  C   UNL     1      36.004 -19.610 -20.892  0.00  0.00    -0.023 C 
ATOM      8  C   UNL     1      34.638 -19.813 -20.675  0.00  0.00    -0.023 C 
ATOM      9  C   UNL     1      34.793 -16.556 -21.146  0.00  0.00    +0.198 C 
ATOM     10  C   UNL     1      34.380 -15.949 -23.177  0.00  0.00    +0.201 C 
ATOM     11  C   UNL     1      34.466 -17.942 -24.507  0.00  0.00    +0.068 C 
ATOM     12  C   UNL     1      36.952 -20.391 -20.250  0.00  0.00    -0.004 C 
ATOM     13  C   UNL     1      34.192 -20.802 -19.811  0.00  0.00    -0.004 C 
ATOM     14  C   UNL     1      34.066 -15.126 -24.376  0.00  0.00    +0.049 C 
ATOM     15  C   UNL     1      36.511 -21.383 -19.372  0.00  0.00    -0.000 C 
ATOM     16  C   UNL     1      35.141 -21.587 -19.154  0.00  0.00    -0.000 C 
ATOM     17  C   UNL     1      34.185 -17.245 -25.622  0.00  0.00    +0.016 C 
ATOM     18  C   UNL     1      33.983 -15.804 -25.536  0.00  0.00    +0.005 C 
ENDROOT
TORSDOF 0
ENDMDL
MODEL 3
REMARK VINA RESULT:     -10.2      1.878      5.631
REMARK  Name = 10220323
REMARK  0 active torsions:
REMARK  status: ('A' for Active; 'I' for Inactive)
REMARK                            x       y       z     vdW  Elec       q    Type
REMARK                         _______ _______ _______ _____ _____    ______ ____
ROOT
ATOM      1  O   UNL     1      37.548 -18.654 -21.736  0.00  0.00    -0.213 OA
ATOM      2  N   UNL     1      34.654 -20.162 -20.550  0.00  0.00    -0.249 N 
ATOM      3  N   UNL     1      36.895 -20.308 -20.234  0.00  0.00    -0.319 NA
ATOM      4  C   UNL     1      35.156 -19.149 -21.460  0.00  0.00    +0.176 C 
ATOM      5  C   UNL     1      34.678 -17.729 -21.112  0.00  0.00    +0.062 C 
ATOM      6  C   UNL     1      34.823 -19.441 -22.934  0.00  0.00    +0.062 C 
ATOM      7  C   UNL     1      34.602 -17.099 -22.469  0.00  0.00    -0.023 C 
ATOM      8  C   UNL     1      34.683 -18.055 -23.486  0.00  0.00    -0.023 C 
ATOM      9  C   UNL     1      36.675 -19.314 -21.184  0.00  0.00    +0.198 C 
ATOM     10  C   UNL     1      35.716 -20.763 -19.901  0.00  0.00    +0.201 C 
ATOM     11  C   UNL     1      33.359 -20.551 -20.287  0.00  0.00    +0.068 C 
ATOM     12  C   UNL     1      34.438 -15.755 -22.764  0.00  0.00    -0.004 C 
ATOM     13  C   UNL     1      34.603 -17.685 -24.820  0.00  0.00    -0.004 C 
ATOM     14  C   UNL     1      35.486 -21.845 -18.905  0.00  0.00    +0.049 C 
ATOM     15  C   UNL     1      34.365 -15.374 -24.105  0.00  0.00    -0.000 C 
ATOM     16  C   UNL     1      34.447 -16.332 -25.126  0.00  0.00    -0.000 C 
ATOM     17  C   UNL     1      33.096 -21.523 -19.397  0.00  0.00    +0.016 C 
ATOM     18  C   UNL     1      34.197 -22.174 -18.698  0.00  0.00    +0.005 C 
ENDROOT
TORSDOF 0
ENDMDL
MODEL 4
REMARK VINA RESULT:      -9.9      8.626     12.018
REMARK  Name = 10220323
REMARK  0 active torsions:
REMARK  status: ('A' for Active; 'I' for Inactive)
REMARK                            x       y       z     vdW  Elec       q    Type
REMARK                         _______ _______ _______ _____ _____    ______ ____
ROOT
ATOM      1  O   UNL     1      32.829  -6.087 -20.637  0.00  0.00    -0.213 OA
ATOM      2  N   UNL     1      32.038  -9.384 -21.386  0.00  0.00    -0.249 N 
ATOM      3  N   UNL     1      32.262  -8.067 -19.553  0.00  0.00    -0.319 NA
ATOM      4  C   UNL     1      32.395  -8.105 -21.972  0.00  0.00    +0.176 C 
ATOM      5  C   UNL     1      31.302  -7.530 -22.889  0.00  0.00    +0.062 C 
ATOM      6  C   UNL     1      33.726  -8.144 -22.745  0.00  0.00    +0.062 C 
ATOM      7  C   UNL     1      32.121  -6.788 -23.900  0.00  0.00    -0.023 C 
ATOM      8  C   UNL     1      33.474  -7.130 -23.819  0.00  0.00    -0.023 C 
ATOM      9  C   UNL     1      32.528  -7.275 -20.667  0.00  0.00    +0.198 C 
ATOM     10  C   UNL     1      31.988  -9.260 -20.010  0.00  0.00    +0.201 C 
ATOM     11  C   UNL     1      31.769 -10.590 -21.993  0.00  0.00    +0.068 C 
ATOM     12  C   UNL     1      31.669  -5.886 -24.850  0.00  0.00    -0.004 C 
ATOM     13  C   UNL     1      34.403  -6.577 -24.688  0.00  0.00    -0.004 C 
ATOM     14  C   UNL     1      31.643 -10.428 -19.153  0.00  0.00    +0.049 C 
ATOM     15  C   UNL     1      32.599  -5.318 -25.723  0.00  0.00    -0.000 C 
ATOM     16  C   UNL     1      33.957  -5.661 -25.642  0.00  0.00    -0.000 C 
ATOM     17  C   UNL     1      31.452 -11.676 -21.266  0.00  0.00    +0.016 C 
ATOM     18  C   UNL     1      31.392 -11.573 -19.813  0.00  0.00    +0.005 C 
ENDROOT
TORSDOF 0
ENDMDL
MODEL 5
REMARK VINA RESULT:      -9.2      8.920     11.037
REMARK  Name = 10220323
REMARK  0 active torsions:
REMARK  status: ('A' for Active; 'I' for Inactive)
REMARK                            x       y       z     vdW  Elec       q    Type
REMARK                         _______ _______ _______ _____ _____    ______ ____
ROOT
ATOM      1  O   UNL     1      34.756  -8.902 -23.309  0.00  0.00    -0.213 OA
ATOM      2  N   UNL     1      32.250  -6.584 -23.944  0.00  0.00    -0.249 N 
ATOM      3  N   UNL     1      34.355  -7.043 -24.651  0.00  0.00    -0.319 NA
ATOM      4  C   UNL     1      32.590  -7.750 -23.150  0.00  0.00    +0.176 C 
ATOM      5  C   UNL     1      31.679  -8.959 -23.425  0.00  0.00    +0.062 C 
ATOM      6  C   UNL     1      32.605  -7.469 -21.637  0.00  0.00    +0.062 C 
ATOM      7  C   UNL     1      31.656  -9.625 -22.083  0.00  0.00    -0.023 C 
ATOM      8  C   UNL     1      32.173  -8.794 -21.086  0.00  0.00    -0.023 C 
ATOM      9  C   UNL     1      34.026  -7.994 -23.689  0.00  0.00    +0.198 C 
ATOM     10  C   UNL     1      33.316  -6.261 -24.764  0.00  0.00    +0.201 C 
ATOM     11  C   UNL     1      31.094  -5.837 -23.968  0.00  0.00    +0.068 C 
ATOM     12  C   UNL     1      31.170 -10.887 -21.780  0.00  0.00    -0.004 C 
ATOM     13  C   UNL     1      32.215  -9.208 -19.763  0.00  0.00    -0.004 C 
ATOM     14  C   UNL     1      33.237  -5.098 -25.690  0.00  0.00    +0.049 C 
ATOM     15  C   UNL     1      31.218 -11.316 -20.452  0.00  0.00    -0.000 C 
ATOM     16  C   UNL     1      31.737 -10.482 -19.451  0.00  0.00    -0.000 C 
ATOM     17  C   UNL     1      30.971  -4.777 -24.785  0.00  0.00    +0.016 C 
ATOM     18  C   UNL     1      32.079  -4.414 -25.661  0.00  0.00    +0.005 C 
ENDROOT
TORSDOF 0
ENDMDL
MODEL 6
REMARK VINA RESULT:      -9.2      2.021      5.661
REMARK  Name = 10220323
REMARK  0 active torsions:
REMARK  status: ('A' for Active; 'I' for Inactive)
REMARK                            x       y       z     vdW  Elec       q    Type
REMARK                         _______ _______ _______ _____ _____    ______ ____
ROOT
ATOM      1  O   UNL     1      31.995 -19.455 -21.546  0.00  0.00    -0.213 OA
ATOM      2  N   UNL     1      35.098 -20.360 -20.279  0.00  0.00    -0.249 N 
ATOM      3  N   UNL     1      32.915 -20.887 -19.959  0.00  0.00    -0.319 NA
ATOM      4  C   UNL     1      34.434 -19.503 -21.243  0.00  0.00    +0.176 C 
ATOM      5  C   UNL     1      34.829 -19.806 -22.699  0.00  0.00    +0.062 C 
ATOM      6  C   UNL     1      34.648 -18.004 -20.969  0.00  0.00    +0.062 C 
ATOM      7  C   UNL     1      34.727 -18.448 -23.324  0.00  0.00    -0.023 C 
ATOM      8  C   UNL     1      34.625 -17.443 -22.358  0.00  0.00    -0.023 C 
ATOM      9  C   UNL     1      32.965 -19.921 -20.961  0.00  0.00    +0.198 C 
ATOM     10  C   UNL     1      34.152 -21.106 -19.600  0.00  0.00    +0.201 C 
ATOM     11  C   UNL     1      36.438 -20.499 -19.994  0.00  0.00    +0.068 C 
ATOM     12  C   UNL     1      34.755 -18.141 -24.675  0.00  0.00    -0.004 C 
ATOM     13  C   UNL     1      34.550 -16.107 -22.725  0.00  0.00    -0.004 C 
ATOM     14  C   UNL     1      34.560 -22.074 -18.546  0.00  0.00    +0.049 C 
ATOM     15  C   UNL     1      34.671 -16.799 -25.052  0.00  0.00    -0.000 C 
ATOM     16  C   UNL     1      34.569 -15.789 -24.084  0.00  0.00    -0.000 C 
ATOM     17  C   UNL     1      36.860 -21.360 -19.052  0.00  0.00    +0.016 C 
ATOM     18  C   UNL     1      35.884 -22.158 -18.321  0.00  0.00    +0.005 C 
ENDROOT
TORSDOF 0
ENDMDL
MODEL 7
REMARK VINA RESULT:      -8.5      7.762      9.654
REMARK  Name = 10220323
REMARK  0 active torsions:
REMARK  status: ('A' for Active; 'I' for Inactive)
REMARK                            x       y       z     vdW  Elec       q    Type
REMARK                         _______ _______ _______ _____ _____    ______ ____
ROOT
ATOM      1  O   UNL     1      35.928 -22.966 -16.597  0.00  0.00    -0.213 OA
ATOM      2  N   UNL     1      33.194 -24.167 -14.825  0.00  0.00    -0.249 N 
ATOM      3  N   UNL     1      33.603 -22.977 -16.712  0.00  0.00    -0.319 NA
ATOM      4  C   UNL     1      34.644 -24.109 -14.839  0.00  0.00    +0.176 C 
ATOM      5  C   UNL     1      35.307 -25.492 -14.950  0.00  0.00    +0.062 C 
ATOM      6  C   UNL     1      35.232 -23.368 -13.625  0.00  0.00    +0.062 C 
ATOM      7  C   UNL     1      36.571 -25.280 -14.174  0.00  0.00    -0.023 C 
ATOM      8  C   UNL     1      36.529 -24.094 -13.435  0.00  0.00    -0.023 C 
ATOM      9  C   UNL     1      34.836 -23.288 -16.144  0.00  0.00    +0.198 C 
ATOM     10  C   UNL     1      32.697 -23.496 -15.928  0.00  0.00    +0.201 C 
ATOM     11  C   UNL     1      32.342 -24.761 -13.922  0.00  0.00    +0.068 C 
ATOM     12  C   UNL     1      37.673 -26.118 -14.117  0.00  0.00    -0.004 C 
ATOM     13  C   UNL     1      37.590 -23.722 -12.623  0.00  0.00    -0.004 C 
ATOM     14  C   UNL     1      31.230 -23.400 -16.162  0.00  0.00    +0.049 C 
ATOM     15  C   UNL     1      38.749 -25.746 -13.308  0.00  0.00    -0.000 C 
ATOM     16  C   UNL     1      38.707 -24.556 -12.566  0.00  0.00    -0.000 C 
ATOM     17  C   UNL     1      31.009 -24.704 -14.086  0.00  0.00    +0.016 C 
ATOM     18  C   UNL     1      30.458 -24.003 -15.240  0.00  0.00    +0.005 C 
ENDROOT
TORSDOF 0
ENDMDL
MODEL 8
REMARK VINA RESULT:      -8.4      4.297      6.133
REMARK  Name = 10220323
REMARK  0 active torsions:
REMARK  status: ('A' for Active; 'I' for Inactive)
REMARK                            x       y       z     vdW  Elec       q    Type
REMARK                         _______ _______ _______ _____ _____    ______ ____
ROOT
ATOM      1  O   UNL     1      31.722 -14.384 -22.145  0.00  0.00    -0.213 OA
ATOM      2  N   UNL     1      33.613 -11.928 -23.710  0.00  0.00    -0.249 N 
ATOM      3  N   UNL     1      31.861 -12.064 -22.277  0.00  0.00    -0.319 NA
ATOM      4  C   UNL     1      33.451 -13.363 -23.564  0.00  0.00    +0.176 C 
ATOM      5  C   UNL     1      34.677 -14.053 -22.945  0.00  0.00    +0.062 C 
ATOM      6  C   UNL     1      33.092 -14.069 -24.883  0.00  0.00    +0.062 C 
ATOM      7  C   UNL     1      34.632 -15.395 -23.610  0.00  0.00    -0.023 C 
ATOM      8  C   UNL     1      33.747 -15.403 -24.692  0.00  0.00    -0.023 C 
ATOM      9  C   UNL     1      32.248 -13.366 -22.581  0.00  0.00    +0.198 C 
ATOM     10  C   UNL     1      32.665 -11.278 -22.941  0.00  0.00    +0.201 C 
ATOM     11  C   UNL     1      34.521 -11.213 -24.458  0.00  0.00    +0.068 C 
ATOM     12  C   UNL     1      35.366 -16.523 -23.279  0.00  0.00    -0.004 C 
ATOM     13  C   UNL     1      33.577 -16.542 -25.466  0.00  0.00    -0.004 C 
ATOM     14  C   UNL     1      32.604  -9.791 -22.906  0.00  0.00    +0.049 C 
ATOM     15  C   UNL     1      35.194 -17.676 -24.047  0.00  0.00    -0.000 C 
ATOM     16  C   UNL     1      34.306 -17.685 -25.133  0.00  0.00    -0.000 C 
ATOM     17  C   UNL     1      34.509  -9.868 -24.462  0.00  0.00    +0.016 C 
ATOM     18  C   UNL     1      33.520  -9.158 -23.660  0.00  0.00    +0.005 C 
ENDROOT
TORSDOF 0
ENDMDL
MODEL 9
REMARK VINA RESULT:      -8.4      7.195     10.067
REMARK  Name = 10220323
REMARK  0 active torsions:
REMARK  status: ('A' for Active; 'I' for Inactive)
REMARK                            x       y       z     vdW  Elec       q    Type
REMARK                         _______ _______ _______ _____ _____    ______ ____
ROOT
ATOM      1  O   UNL     1      35.648 -26.380 -16.022  0.00  0.00    -0.213 OA
ATOM      2  N   UNL     1      36.654 -24.044 -13.659  0.00  0.00    -0.249 N 
ATOM      3  N   UNL     1      37.124 -26.187 -14.233  0.00  0.00    -0.319 NA
ATOM      4  C   UNL     1      35.767 -24.258 -14.787  0.00  0.00    +0.176 C 
ATOM      5  C   UNL     1      36.062 -23.329 -15.977  0.00  0.00    +0.062 C 
ATOM      6  C   UNL     1      34.278 -24.139 -14.418  0.00  0.00    +0.062 C 
ATOM      7  C   UNL     1      34.694 -23.150 -16.562  0.00  0.00    -0.023 C 
ATOM      8  C   UNL     1      33.699 -23.602 -15.691  0.00  0.00    -0.023 C 
ATOM      9  C   UNL     1      36.148 -25.728 -15.113  0.00  0.00    +0.198 C 
ATOM     10  C   UNL     1      37.382 -25.195 -13.422  0.00  0.00    +0.201 C 
ATOM     11  C   UNL     1      36.833 -22.926 -12.874  0.00  0.00    +0.068 C 
ATOM     12  C   UNL     1      34.371 -22.587 -17.786  0.00  0.00    -0.004 C 
ATOM     13  C   UNL     1      32.357 -23.500 -16.028  0.00  0.00    -0.004 C 
ATOM     14  C   UNL     1      38.374 -25.254 -12.315  0.00  0.00    +0.049 C 
ATOM     15  C   UNL     1      33.023 -22.488 -18.136  0.00  0.00    -0.000 C 
ATOM     16  C   UNL     1      32.023 -22.942 -17.263  0.00  0.00    -0.000 C 
ATOM     17  C   UNL     1      37.716 -22.926 -11.861  0.00  0.00    +0.016 C 
ATOM     18  C   UNL     1      38.497 -24.127 -11.590  0.00  0.00    +0.005 C 
ENDROOT
TORSDOF 0
ENDMDL
