MODEL 1
REMARK VINA RESULT:      -8.5      0.000      0.000
REMARK  Name = 2719
REMARK  8 active torsions:
REMARK  status: ('A' for Active; 'I' for Inactive)
REMARK    1  A    between atoms: N_1  and  C_5
REMARK    2  A    between atoms: N_1  and  C_14
REMARK    3  A    between atoms: C_14  and  C_16
REMARK    4  A    between atoms: C_16  and  C_17
REMARK    5  A    between atoms: C_17  and  C_18
REMARK    6  A    between atoms: C_18  and  N_19
REMARK    7  A    between atoms: N_19  and  C_21
REMARK    8  A    between atoms: N_19  and  C_23
REMARK                            x       y       z     vdW  Elec       q    Type
REMARK                         _______ _______ _______ _____ _____    ______ ____
ROOT
ATOM      1  N   UNL     1      33.406 -13.075 -23.131  0.00  0.00    -0.334 N 
ATOM      2  H   UNL     1      34.225 -12.588 -22.883  0.00  0.00    +0.147 HD
ENDROOT
BRANCH   1   5
ATOM      3 CL   UNL     1      35.267 -19.562 -23.793  0.00  0.00    -0.082 Cl
ATOM      4  N   UNL     1      33.540 -15.614 -26.471  0.00  0.00    -0.244 NA
ATOM      5  C   UNL     1      33.459 -13.933 -24.215  0.00  0.00    +0.048 C 
ATOM      6  C   UNL     1      33.892 -15.280 -24.111  0.00  0.00    +0.031 C 
ATOM      7  C   UNL     1      33.071 -13.464 -25.479  0.00  0.00    +0.035 C 
ATOM      8  C   UNL     1      33.917 -16.086 -25.268  0.00  0.00    +0.083 C 
ATOM      9  C   UNL     1      34.293 -15.805 -22.870  0.00  0.00    +0.004 C 
ATOM     10  C   UNL     1      33.129 -14.328 -26.554  0.00  0.00    +0.100 C 
ATOM     11  C   UNL     1      34.346 -17.404 -25.138  0.00  0.00    +0.031 C 
ATOM     12  C   UNL     1      34.717 -17.127 -22.770  0.00  0.00    +0.012 C 
ATOM     13  C   UNL     1      34.744 -17.927 -23.905  0.00  0.00    +0.059 C 
ENDBRANCH   1   5
BRANCH   1  14
ATOM     14  C   UNL     1      32.212 -12.855 -22.341  0.00  0.00    +0.069 C 
ATOM     15  C   UNL     1      32.388 -13.545 -20.992  0.00  0.00    +0.021 C 
BRANCH  14  16
ATOM     16  C   UNL     1      31.966 -11.351 -22.160  0.00  0.00    +0.017 C 
BRANCH  16  17
ATOM     17  C   UNL     1      32.635 -10.508 -23.252  0.00  0.00    -0.021 C 
BRANCH  17  18
ATOM     18  C   UNL     1      32.033  -9.105 -23.310  0.00  0.00    -0.077 C 
BRANCH  18  19
ATOM     19  N   UNL     1      32.819  -8.182 -22.499  0.00  0.00    +0.387 N 
ATOM     20  H   UNL     1      33.552  -8.715 -22.031  0.00  0.00    -0.080 HD
BRANCH  19  21
ATOM     21  C   UNL     1      31.981  -7.549 -21.479  0.00  0.00    -0.077 C 
ATOM     22  C   UNL     1      32.247  -8.142 -20.105  0.00  0.00    -0.025 C 
ENDBRANCH  19  21
BRANCH  19  23
ATOM     23  C   UNL     1      33.449  -7.165 -23.342  0.00  0.00    -0.077 C 
ATOM     24  C   UNL     1      34.898  -7.515 -23.636  0.00  0.00    -0.025 C 
ENDBRANCH  19  23
ENDBRANCH  18  19
ENDBRANCH  17  18
ENDBRANCH  16  17
ENDBRANCH  14  16
ENDBRANCH   1  14
TORSDOF 8
ENDMDL
MODEL 2
REMARK VINA RESULT:      -8.4      3.259      7.534
REMARK  Name = 2719
REMARK  8 active torsions:
REMARK  status: ('A' for Active; 'I' for Inactive)
REMARK    1  A    between atoms: N_1  and  C_5
REMARK    2  A    between atoms: N_1  and  C_14
REMARK    3  A    between atoms: C_14  and  C_16
REMARK    4  A    between atoms: C_16  and  C_17
REMARK    5  A    between atoms: C_17  and  C_18
REMARK    6  A    between atoms: C_18  and  N_19
REMARK    7  A    between atoms: N_19  and  C_21
REMARK    8  A    between atoms: N_19  and  C_23
REMARK                            x       y       z     vdW  Elec       q    Type
REMARK                         _______ _______ _______ _____ _____    ______ ____
ROOT
ATOM      1  N   UNL     1      33.858 -13.731 -24.259  0.00  0.00    -0.334 N 
ATOM      2  H   UNL     1      34.830 -13.842 -24.142  0.00  0.00    +0.147 HD
ENDROOT
BRANCH   1   5
ATOM      3 CL   UNL     1      34.691  -7.001 -24.220  0.00  0.00    -0.082 Cl
ATOM      4  N   UNL     1      31.906 -10.689 -22.125  0.00  0.00    -0.244 NA
ATOM      5  C   UNL     1      33.230 -12.708 -23.569  0.00  0.00    +0.048 C 
ATOM      6  C   UNL     1      33.583 -11.343 -23.727  0.00  0.00    +0.031 C 
ATOM      7  C   UNL     1      32.200 -13.022 -22.670  0.00  0.00    +0.035 C 
ATOM      8  C   UNL     1      32.892 -10.365 -22.983  0.00  0.00    +0.083 C 
ATOM      9  C   UNL     1      34.607 -10.970 -24.613  0.00  0.00    +0.004 C 
ATOM     10  C   UNL     1      31.583 -11.994 -21.986  0.00  0.00    +0.100 C 
ATOM     11  C   UNL     1      33.257  -9.032 -23.156  0.00  0.00    +0.031 C 
ATOM     12  C   UNL     1      34.951  -9.630 -24.768  0.00  0.00    +0.012 C 
ATOM     13  C   UNL     1      34.275  -8.661 -24.038  0.00  0.00    +0.059 C 
ENDBRANCH   1   5
BRANCH   1  14
ATOM     14  C   UNL     1      33.164 -14.644 -25.143  0.00  0.00    +0.069 C 
ATOM     15  C   UNL     1      33.118 -14.029 -26.538  0.00  0.00    +0.021 C 
BRANCH  14  16
ATOM     16  C   UNL     1      33.876 -16.004 -25.167  0.00  0.00    +0.017 C 
BRANCH  16  17
ATOM     17  C   UNL     1      34.990 -16.104 -24.118  0.00  0.00    -0.021 C 
BRANCH  17  18
ATOM     18  C   UNL     1      34.910 -17.427 -23.356  0.00  0.00    -0.077 C 
BRANCH  18  19
ATOM     19  N   UNL     1      35.135 -17.206 -21.932  0.00  0.00    +0.387 N 
ATOM     20  H   UNL     1      35.955 -16.608 -21.828  0.00  0.00    -0.080 HD
BRANCH  19  21
ATOM     21  C   UNL     1      35.393 -18.474 -21.249  0.00  0.00    -0.077 C 
ATOM     22  C   UNL     1      34.103 -19.241 -21.008  0.00  0.00    -0.025 C 
ENDBRANCH  19  21
BRANCH  19  23
ATOM     23  C   UNL     1      33.986 -16.529 -21.329  0.00  0.00    -0.077 C 
ATOM     24  C   UNL     1      34.417 -15.281 -20.577  0.00  0.00    -0.025 C 
ENDBRANCH  19  23
ENDBRANCH  18  19
ENDBRANCH  17  18
ENDBRANCH  16  17
ENDBRANCH  14  16
ENDBRANCH   1  14
TORSDOF 8
ENDMDL
MODEL 3
REMARK VINA RESULT:      -8.4      3.948      8.506
REMARK  Name = 2719
REMARK  8 active torsions:
REMARK  status: ('A' for Active; 'I' for Inactive)
REMARK    1  A    between atoms: N_1  and  C_5
REMARK    2  A    between atoms: N_1  and  C_14
REMARK    3  A    between atoms: C_14  and  C_16
REMARK    4  A    between atoms: C_16  and  C_17
REMARK    5  A    between atoms: C_17  and  C_18
REMARK    6  A    between atoms: C_18  and  N_19
REMARK    7  A    between atoms: N_19  and  C_21
REMARK    8  A    between atoms: N_19  and  C_23
REMARK                            x       y       z     vdW  Elec       q    Type
REMARK                         _______ _______ _______ _____ _____    ______ ____
ROOT
ATOM      1  N   UNL     1      35.487 -16.905 -23.791  0.00  0.00    -0.334 N 
ATOM      2  H   UNL     1      36.431 -16.669 -23.943  0.00  0.00    +0.147 HD
ENDROOT
BRANCH   1   5
ATOM      3 CL   UNL     1      31.876 -12.420 -20.209  0.00  0.00    -0.082 Cl
ATOM      4  N   UNL     1      32.551 -14.133 -24.937  0.00  0.00    -0.244 NA
ATOM      5  C   UNL     1      34.518 -15.982 -24.142  0.00  0.00    +0.048 C 
ATOM      6  C   UNL     1      33.887 -15.131 -23.198  0.00  0.00    +0.031 C 
ATOM      7  C   UNL     1      34.131 -15.874 -25.486  0.00  0.00    +0.035 C 
ATOM      8  C   UNL     1      32.907 -14.220 -23.642  0.00  0.00    +0.083 C 
ATOM      9  C   UNL     1      34.235 -15.195 -21.838  0.00  0.00    +0.004 C 
ATOM     10  C   UNL     1      33.162 -14.951 -25.824  0.00  0.00    +0.100 C 
ATOM     11  C   UNL     1      32.304 -13.396 -22.695  0.00  0.00    +0.031 C 
ATOM     12  C   UNL     1      33.616 -14.359 -20.914  0.00  0.00    +0.012 C 
ATOM     13  C   UNL     1      32.649 -13.459 -21.343  0.00  0.00    +0.059 C 
ENDBRANCH   1   5
BRANCH   1  14
ATOM     14  C   UNL     1      35.189 -18.200 -23.215  0.00  0.00    +0.069 C 
ATOM     15  C   UNL     1      34.861 -19.171 -24.344  0.00  0.00    +0.021 C 
BRANCH  14  16
ATOM     16  C   UNL     1      36.381 -18.701 -22.389  0.00  0.00    +0.017 C 
BRANCH  16  17
ATOM     17  C   UNL     1      36.018 -18.953 -20.921  0.00  0.00    -0.021 C 
BRANCH  17  18
ATOM     18  C   UNL     1      34.906 -19.995 -20.801  0.00  0.00    -0.077 C 
BRANCH  18  19
ATOM     19  N   UNL     1      35.421 -21.219 -20.198  0.00  0.00    +0.387 N 
ATOM     20  H   UNL     1      35.659 -21.868 -20.949  0.00  0.00    -0.080 HD
BRANCH  19  21
ATOM     21  C   UNL     1      34.404 -21.843 -19.350  0.00  0.00    -0.077 C 
ATOM     22  C   UNL     1      33.062 -21.145 -19.499  0.00  0.00    -0.025 C 
ENDBRANCH  19  21
BRANCH  19  23
ATOM     23  C   UNL     1      36.630 -20.941 -19.422  0.00  0.00    -0.077 C 
ATOM     24  C   UNL     1      36.628 -21.707 -18.110  0.00  0.00    -0.025 C 
ENDBRANCH  19  23
ENDBRANCH  18  19
ENDBRANCH  17  18
ENDBRANCH  16  17
ENDBRANCH  14  16
ENDBRANCH   1  14
TORSDOF 8
ENDMDL
MODEL 4
REMARK VINA RESULT:      -8.4      5.912     10.139
REMARK  Name = 2719
REMARK  8 active torsions:
REMARK  status: ('A' for Active; 'I' for Inactive)
REMARK    1  A    between atoms: N_1  and  C_5
REMARK    2  A    between atoms: N_1  and  C_14
REMARK    3  A    between atoms: C_14  and  C_16
REMARK    4  A    between atoms: C_16  and  C_17
REMARK    5  A    between atoms: C_17  and  C_18
REMARK    6  A    between atoms: C_18  and  N_19
REMARK    7  A    between atoms: N_19  and  C_21
REMARK    8  A    between atoms: N_19  and  C_23
REMARK                            x       y       z     vdW  Elec       q    Type
REMARK                         _______ _______ _______ _____ _____    ______ ____
ROOT
ATOM      1  N   UNL     1      35.064 -19.010 -20.874  0.00  0.00    -0.334 N 
ATOM      2  H   UNL     1      35.066 -18.380 -20.118  0.00  0.00    +0.147 HD
ENDROOT
BRANCH   1   5
ATOM      3 CL   UNL     1      33.816 -12.769 -23.215  0.00  0.00    -0.082 Cl
ATOM      4  N   UNL     1      34.524 -17.546 -24.771  0.00  0.00    -0.244 NA
ATOM      5  C   UNL     1      34.884 -18.501 -22.149  0.00  0.00    +0.048 C 
ATOM      6  C   UNL     1      34.628 -17.129 -22.400  0.00  0.00    +0.031 C 
ATOM      7  C   UNL     1      34.951 -19.369 -23.248  0.00  0.00    +0.035 C 
ATOM      8  C   UNL     1      34.454 -16.695 -23.731  0.00  0.00    +0.083 C 
ATOM      9  C   UNL     1      34.549 -16.212 -21.338  0.00  0.00    +0.004 C 
ATOM     10  C   UNL     1      34.768 -18.851 -24.514  0.00  0.00    +0.100 C 
ATOM     11  C   UNL     1      34.205 -15.342 -23.950  0.00  0.00    +0.031 C 
ATOM     12  C   UNL     1      34.299 -14.866 -21.587  0.00  0.00    +0.012 C 
ATOM     13  C   UNL     1      34.126 -14.431 -22.894  0.00  0.00    +0.059 C 
ENDBRANCH   1   5
BRANCH   1  14
ATOM     14  C   UNL     1      35.252 -20.419 -20.594  0.00  0.00    +0.069 C 
ATOM     15  C   UNL     1      36.543 -20.588 -19.799  0.00  0.00    +0.021 C 
BRANCH  14  16
ATOM     16  C   UNL     1      34.051 -20.969 -19.814  0.00  0.00    +0.017 C 
BRANCH  16  17
ATOM     17  C   UNL     1      34.430 -22.135 -18.893  0.00  0.00    -0.021 C 
BRANCH  17  18
ATOM     18  C   UNL     1      33.208 -22.659 -18.139  0.00  0.00    -0.077 C 
BRANCH  18  19
ATOM     19  N   UNL     1      33.625 -23.464 -16.996  0.00  0.00    +0.387 N 
ATOM     20  H   UNL     1      33.781 -24.419 -17.319  0.00  0.00    -0.080 HD
BRANCH  19  21
ATOM     21  C   UNL     1      32.580 -23.484 -15.971  0.00  0.00    -0.077 C 
ATOM     22  C   UNL     1      31.275 -22.917 -16.507  0.00  0.00    -0.025 C 
ENDBRANCH  19  21
BRANCH  19  23
ATOM     23  C   UNL     1      34.876 -22.952 -16.435  0.00  0.00    -0.077 C 
ATOM     24  C   UNL     1      35.394 -23.857 -15.330  0.00  0.00    -0.025 C 
ENDBRANCH  19  23
ENDBRANCH  18  19
ENDBRANCH  17  18
ENDBRANCH  16  17
ENDBRANCH  14  16
ENDBRANCH   1  14
TORSDOF 8
ENDMDL
MODEL 5
REMARK VINA RESULT:      -8.4      3.365      8.240
REMARK  Name = 2719
REMARK  8 active torsions:
REMARK  status: ('A' for Active; 'I' for Inactive)
REMARK    1  A    between atoms: N_1  and  C_5
REMARK    2  A    between atoms: N_1  and  C_14
REMARK    3  A    between atoms: C_14  and  C_16
REMARK    4  A    between atoms: C_16  and  C_17
REMARK    5  A    between atoms: C_17  and  C_18
REMARK    6  A    between atoms: C_18  and  N_19
REMARK    7  A    between atoms: N_19  and  C_21
REMARK    8  A    between atoms: N_19  and  C_23
REMARK                            x       y       z     vdW  Elec       q    Type
REMARK                         _______ _______ _______ _____ _____    ______ ____
ROOT
ATOM      1  N   UNL     1      31.625 -12.675 -21.667  0.00  0.00    -0.334 N 
ATOM      2  H   UNL     1      30.776 -12.894 -22.114  0.00  0.00    +0.147 HD
ENDROOT
BRANCH   1   5
ATOM      3 CL   UNL     1      32.808  -6.331 -23.750  0.00  0.00    -0.082 Cl
ATOM      4  N   UNL     1      31.903  -9.053 -19.565  0.00  0.00    -0.244 NA
ATOM      5  C   UNL     1      31.720 -11.467 -20.999  0.00  0.00    +0.048 C 
ATOM      6  C   UNL     1      31.981 -10.240 -21.660  0.00  0.00    +0.031 C 
ATOM      7  C   UNL     1      31.556 -11.441 -19.606  0.00  0.00    +0.035 C 
ATOM      8  C   UNL     1      32.064  -9.054 -20.901  0.00  0.00    +0.083 C 
ATOM      9  C   UNL     1      32.155 -10.205 -23.054  0.00  0.00    +0.004 C 
ATOM     10  C   UNL     1      31.655 -10.231 -18.949  0.00  0.00    +0.100 C 
ATOM     11  C   UNL     1      32.321  -7.863 -21.575  0.00  0.00    +0.031 C 
ATOM     12  C   UNL     1      32.410  -9.000 -23.702  0.00  0.00    +0.012 C 
ATOM     13  C   UNL     1      32.493  -7.828 -22.961  0.00  0.00    +0.059 C 
ENDBRANCH   1   5
BRANCH   1  14
ATOM     14  C   UNL     1      32.707 -13.636 -21.743  0.00  0.00    +0.069 C 
ATOM     15  C   UNL     1      32.329 -14.860 -20.916  0.00  0.00    +0.021 C 
BRANCH  14  16
ATOM     16  C   UNL     1      32.972 -14.022 -23.205  0.00  0.00    +0.017 C 
BRANCH  16  17
ATOM     17  C   UNL     1      34.374 -14.605 -23.416  0.00  0.00    -0.021 C 
BRANCH  17  18
ATOM     18  C   UNL     1      34.299 -16.038 -23.941  0.00  0.00    -0.077 C 
BRANCH  18  19
ATOM     19  N   UNL     1      35.338 -16.858 -23.326  0.00  0.00    +0.387 N 
ATOM     20  H   UNL     1      36.245 -16.470 -23.585  0.00  0.00    -0.080 HD
BRANCH  19  21
ATOM     21  C   UNL     1      35.263 -18.236 -23.814  0.00  0.00    -0.077 C 
ATOM     22  C   UNL     1      34.395 -18.331 -25.059  0.00  0.00    -0.025 C 
ENDBRANCH  19  21
BRANCH  19  23
ATOM     23  C   UNL     1      35.219 -16.829 -21.867  0.00  0.00    -0.077 C 
ATOM     24  C   UNL     1      34.420 -18.016 -21.357  0.00  0.00    -0.025 C 
ENDBRANCH  19  23
ENDBRANCH  18  19
ENDBRANCH  17  18
ENDBRANCH  16  17
ENDBRANCH  14  16
ENDBRANCH   1  14
TORSDOF 8
ENDMDL
MODEL 6
REMARK VINA RESULT:      -8.3      0.805      1.496
REMARK  Name = 2719
REMARK  8 active torsions:
REMARK  status: ('A' for Active; 'I' for Inactive)
REMARK    1  A    between atoms: N_1  and  C_5
REMARK    2  A    between atoms: N_1  and  C_14
REMARK    3  A    between atoms: C_14  and  C_16
REMARK    4  A    between atoms: C_16  and  C_17
REMARK    5  A    between atoms: C_17  and  C_18
REMARK    6  A    between atoms: C_18  and  N_19
REMARK    7  A    between atoms: N_19  and  C_21
REMARK    8  A    between atoms: N_19  and  C_23
REMARK                            x       y       z     vdW  Elec       q    Type
REMARK                         _______ _______ _______ _____ _____    ______ ____
ROOT
ATOM      1  N   UNL     1      33.411 -12.865 -23.274  0.00  0.00    -0.334 N 
ATOM      2  H   UNL     1      34.249 -12.434 -22.989  0.00  0.00    +0.147 HD
ENDROOT
BRANCH   1   5
ATOM      3 CL   UNL     1      35.275 -19.375 -23.640  0.00  0.00    -0.082 Cl
ATOM      4  N   UNL     1      33.551 -15.552 -26.496  0.00  0.00    -0.244 NA
ATOM      5  C   UNL     1      33.466 -13.771 -24.318  0.00  0.00    +0.048 C 
ATOM      6  C   UNL     1      33.899 -15.112 -24.153  0.00  0.00    +0.031 C 
ATOM      7  C   UNL     1      33.080 -13.359 -25.603  0.00  0.00    +0.035 C 
ATOM      8  C   UNL     1      33.926 -15.969 -25.272  0.00  0.00    +0.083 C 
ATOM      9  C   UNL     1      34.298 -15.581 -22.889  0.00  0.00    +0.004 C 
ATOM     10  C   UNL     1      33.140 -14.271 -26.637  0.00  0.00    +0.100 C 
ATOM     11  C   UNL     1      34.355 -17.280 -25.082  0.00  0.00    +0.031 C 
ATOM     12  C   UNL     1      34.722 -16.897 -22.728  0.00  0.00    +0.012 C 
ATOM     13  C   UNL     1      34.751 -17.747 -23.826  0.00  0.00    +0.059 C 
ENDBRANCH   1   5
BRANCH   1  14
ATOM     14  C   UNL     1      32.189 -12.518 -22.578  0.00  0.00    +0.069 C 
ATOM     15  C   UNL     1      32.216 -13.165 -21.197  0.00  0.00    +0.021 C 
BRANCH  14  16
ATOM     16  C   UNL     1      32.057 -10.993 -22.467  0.00  0.00    +0.017 C 
BRANCH  16  17
ATOM     17  C   UNL     1      32.968 -10.249 -23.451  0.00  0.00    -0.021 C 
BRANCH  17  18
ATOM     18  C   UNL     1      33.097  -8.774 -23.073  0.00  0.00    -0.077 C 
BRANCH  18  19
ATOM     19  N   UNL     1      31.786  -8.214 -22.761  0.00  0.00    +0.387 N 
ATOM     20  H   UNL     1      31.187  -8.971 -22.430  0.00  0.00    -0.080 HD
BRANCH  19  21
ATOM     21  C   UNL     1      31.178  -7.629 -23.957  0.00  0.00    -0.077 C 
ATOM     22  C   UNL     1      31.218  -6.110 -23.906  0.00  0.00    -0.025 C 
ENDBRANCH  19  21
BRANCH  19  23
ATOM     23  C   UNL     1      31.895  -7.209 -21.702  0.00  0.00    -0.077 C 
ATOM     24  C   UNL     1      32.766  -7.706 -20.561  0.00  0.00    -0.025 C 
ENDBRANCH  19  23
ENDBRANCH  18  19
ENDBRANCH  17  18
ENDBRANCH  16  17
ENDBRANCH  14  16
ENDBRANCH   1  14
TORSDOF 8
ENDMDL
MODEL 7
REMARK VINA RESULT:      -8.3      1.429      2.397
REMARK  Name = 2719
REMARK  8 active torsions:
REMARK  status: ('A' for Active; 'I' for Inactive)
REMARK    1  A    between atoms: N_1  and  C_5
REMARK    2  A    between atoms: N_1  and  C_14
REMARK    3  A    between atoms: C_14  and  C_16
REMARK    4  A    between atoms: C_16  and  C_17
REMARK    5  A    between atoms: C_17  and  C_18
REMARK    6  A    between atoms: C_18  and  N_19
REMARK    7  A    between atoms: N_19  and  C_21
REMARK    8  A    between atoms: N_19  and  C_23
REMARK                            x       y       z     vdW  Elec       q    Type
REMARK                         _______ _______ _______ _____ _____    ______ ____
ROOT
ATOM      1  N   UNL     1      34.176 -14.220 -23.232  0.00  0.00    -0.334 N 
ATOM      2  H   UNL     1      34.954 -13.888 -22.727  0.00  0.00    +0.147 HD
ENDROOT
BRANCH   1   5
ATOM      3 CL   UNL     1      35.796 -20.263 -20.614  0.00  0.00    -0.082 Cl
ATOM      4  N   UNL     1      34.354 -18.048 -24.945  0.00  0.00    -0.244 NA
ATOM      5  C   UNL     1      34.242 -15.493 -23.772  0.00  0.00    +0.048 C 
ATOM      6  C   UNL     1      34.614 -16.632 -23.013  0.00  0.00    +0.031 C 
ATOM      7  C   UNL     1      33.930 -15.678 -25.127  0.00  0.00    +0.035 C 
ATOM      8  C   UNL     1      34.657 -17.893 -23.643  0.00  0.00    +0.083 C 
ATOM      9  C   UNL     1      34.937 -16.507 -21.651  0.00  0.00    +0.004 C 
ATOM     10  C   UNL     1      34.001 -16.951 -25.655  0.00  0.00    +0.100 C 
ATOM     11  C   UNL     1      35.025 -18.996 -22.876  0.00  0.00    +0.031 C 
ATOM     12  C   UNL     1      35.301 -17.626 -20.908  0.00  0.00    +0.012 C 
ATOM     13  C   UNL     1      35.346 -18.871 -21.522  0.00  0.00    +0.059 C 
ENDBRANCH   1   5
BRANCH   1  14
ATOM     14  C   UNL     1      33.026 -13.350 -23.370  0.00  0.00    +0.069 C 
ATOM     15  C   UNL     1      32.262 -13.343 -22.050  0.00  0.00    +0.021 C 
BRANCH  14  16
ATOM     16  C   UNL     1      33.476 -11.933 -23.751  0.00  0.00    +0.017 C 
BRANCH  16  17
ATOM     17  C   UNL     1      32.659 -10.845 -23.043  0.00  0.00    -0.021 C 
BRANCH  17  18
ATOM     18  C   UNL     1      32.886  -9.479 -23.690  0.00  0.00    -0.077 C 
BRANCH  18  19
ATOM     19  N   UNL     1      32.473  -8.414 -22.782  0.00  0.00    +0.387 N 
ATOM     20  H   UNL     1      31.606  -8.011 -23.138  0.00  0.00    -0.080 HD
BRANCH  19  21
ATOM     21  C   UNL     1      33.488  -7.360 -22.730  0.00  0.00    -0.077 C 
ATOM     22  C   UNL     1      34.747  -7.773 -23.476  0.00  0.00    -0.025 C 
ENDBRANCH  19  21
BRANCH  19  23
ATOM     23  C   UNL     1      32.224  -8.947 -21.443  0.00  0.00    -0.077 C 
ATOM     24  C   UNL     1      32.587  -7.933 -20.371  0.00  0.00    -0.025 C 
ENDBRANCH  19  23
ENDBRANCH  18  19
ENDBRANCH  17  18
ENDBRANCH  16  17
ENDBRANCH  14  16
ENDBRANCH   1  14
TORSDOF 8
ENDMDL
MODEL 8
REMARK VINA RESULT:      -8.3      9.241     12.728
REMARK  Name = 2719
REMARK  8 active torsions:
REMARK  status: ('A' for Active; 'I' for Inactive)
REMARK    1  A    between atoms: N_1  and  C_5
REMARK    2  A    between atoms: N_1  and  C_14
REMARK    3  A    between atoms: C_14  and  C_16
REMARK    4  A    between atoms: C_16  and  C_17
REMARK    5  A    between atoms: C_17  and  C_18
REMARK    6  A    between atoms: C_18  and  N_19
REMARK    7  A    between atoms: N_19  and  C_21
REMARK    8  A    between atoms: N_19  and  C_23
REMARK                            x       y       z     vdW  Elec       q    Type
REMARK                         _______ _______ _______ _____ _____    ______ ____
ROOT
ATOM      1  N   UNL     1      35.607 -23.252 -16.243  0.00  0.00    -0.334 N 
ATOM      2  H   UNL     1      35.474 -23.734 -17.091  0.00  0.00    +0.147 HD
ENDROOT
BRANCH   1   5
ATOM      3 CL   UNL     1      28.844 -23.078 -15.763  0.00  0.00    -0.082 Cl
ATOM      4  N   UNL     1      33.015 -24.036 -13.036  0.00  0.00    -0.244 NA
ATOM      5  C   UNL     1      34.730 -23.506 -15.203  0.00  0.00    +0.048 C 
ATOM      6  C   UNL     1      33.322 -23.403 -15.340  0.00  0.00    +0.031 C 
ATOM      7  C   UNL     1      35.242 -23.881 -13.952  0.00  0.00    +0.035 C 
ATOM      8  C   UNL     1      32.501 -23.678 -14.227  0.00  0.00    +0.083 C 
ATOM      9  C   UNL     1      32.751 -23.030 -16.570  0.00  0.00    +0.004 C 
ATOM     10  C   UNL     1      34.359 -24.130 -12.922  0.00  0.00    +0.100 C 
ATOM     11  C   UNL     1      31.121 -23.569 -14.389  0.00  0.00    +0.031 C 
ATOM     12  C   UNL     1      31.369 -22.930 -16.703  0.00  0.00    +0.012 C 
ATOM     13  C   UNL     1      30.554 -23.199 -15.611  0.00  0.00    +0.059 C 
ENDBRANCH   1   5
BRANCH   1  14
ATOM     14  C   UNL     1      36.709 -22.317 -16.151  0.00  0.00    +0.069 C 
ATOM     15  C   UNL     1      37.982 -23.096 -15.835  0.00  0.00    +0.021 C 
BRANCH  14  16
ATOM     16  C   UNL     1      36.854 -21.537 -17.465  0.00  0.00    +0.017 C 
BRANCH  16  17
ATOM     17  C   UNL     1      35.800 -21.933 -18.505  0.00  0.00    -0.021 C 
BRANCH  17  18
ATOM     18  C   UNL     1      36.051 -21.228 -19.838  0.00  0.00    -0.077 C 
BRANCH  18  19
ATOM     19  N   UNL     1      35.020 -20.226 -20.084  0.00  0.00    +0.387 N 
ATOM     20  H   UNL     1      35.115 -19.492 -19.381  0.00  0.00    -0.080 HD
BRANCH  19  21
ATOM     21  C   UNL     1      33.687 -20.818 -19.960  0.00  0.00    -0.077 C 
ATOM     22  C   UNL     1      32.630 -19.927 -20.591  0.00  0.00    -0.025 C 
ENDBRANCH  19  21
BRANCH  19  23
ATOM     23  C   UNL     1      35.190 -19.628 -21.408  0.00  0.00    -0.077 C 
ATOM     24  C   UNL     1      36.380 -18.684 -21.436  0.00  0.00    -0.025 C 
ENDBRANCH  19  23
ENDBRANCH  18  19
ENDBRANCH  17  18
ENDBRANCH  16  17
ENDBRANCH  14  16
ENDBRANCH   1  14
TORSDOF 8
ENDMDL
MODEL 9
REMARK VINA RESULT:      -8.2      4.946      9.439
REMARK  Name = 2719
REMARK  8 active torsions:
REMARK  status: ('A' for Active; 'I' for Inactive)
REMARK    1  A    between atoms: N_1  and  C_5
REMARK    2  A    between atoms: N_1  and  C_14
REMARK    3  A    between atoms: C_14  and  C_16
REMARK    4  A    between atoms: C_16  and  C_17
REMARK    5  A    between atoms: C_17  and  C_18
REMARK    6  A    between atoms: C_18  and  N_19
REMARK    7  A    between atoms: N_19  and  C_21
REMARK    8  A    between atoms: N_19  and  C_23
REMARK                            x       y       z     vdW  Elec       q    Type
REMARK                         _______ _______ _______ _____ _____    ______ ____
ROOT
ATOM      1  N   UNL     1      35.560 -17.603 -21.724  0.00  0.00    -0.334 N 
ATOM      2  H   UNL     1      36.385 -17.651 -22.260  0.00  0.00    +0.147 HD
ENDROOT
BRANCH   1   5
ATOM      3 CL   UNL     1      32.681 -14.210 -26.841  0.00  0.00    -0.082 Cl
ATOM      4  N   UNL     1      33.299 -14.068 -21.807  0.00  0.00    -0.244 NA
ATOM      5  C   UNL     1      34.811 -16.441 -21.779  0.00  0.00    +0.048 C 
ATOM      6  C   UNL     1      34.303 -15.909 -22.993  0.00  0.00    +0.031 C 
ATOM      7  C   UNL     1      34.537 -15.746 -20.592  0.00  0.00    +0.035 C 
ATOM      8  C   UNL     1      33.550 -14.717 -22.959  0.00  0.00    +0.083 C 
ATOM      9  C   UNL     1      34.547 -16.562 -24.213  0.00  0.00    +0.004 C 
ATOM     10  C   UNL     1      33.791 -14.587 -20.659  0.00  0.00    +0.100 C 
ATOM     11  C   UNL     1      33.063 -14.217 -24.164  0.00  0.00    +0.031 C 
ATOM     12  C   UNL     1      34.046 -16.040 -25.403  0.00  0.00    +0.012 C 
ATOM     13  C   UNL     1      33.304 -14.866 -25.377  0.00  0.00    +0.059 C 
ENDBRANCH   1   5
BRANCH   1  14
ATOM     14  C   UNL     1      35.196 -18.753 -20.922  0.00  0.00    +0.069 C 
ATOM     15  C   UNL     1      34.117 -19.538 -21.660  0.00  0.00    +0.021 C 
BRANCH  14  16
ATOM     16  C   UNL     1      36.429 -19.628 -20.659  0.00  0.00    +0.017 C 
BRANCH  16  17
ATOM     17  C   UNL     1      36.060 -21.049 -20.217  0.00  0.00    -0.021 C 
BRANCH  17  18
ATOM     18  C   UNL     1      36.487 -21.304 -18.772  0.00  0.00    -0.077 C 
BRANCH  18  19
ATOM     19  N   UNL     1      35.676 -22.364 -18.183  0.00  0.00    +0.387 N 
ATOM     20  H   UNL     1      36.000 -23.257 -18.556  0.00  0.00    -0.080 HD
BRANCH  19  21
ATOM     21  C   UNL     1      34.267 -22.194 -18.542  0.00  0.00    -0.077 C 
ATOM     22  C   UNL     1      33.377 -23.112 -17.720  0.00  0.00    -0.025 C 
ENDBRANCH  19  21
BRANCH  19  23
ATOM     23  C   UNL     1      35.832 -22.383 -16.728  0.00  0.00    -0.077 C 
ATOM     24  C   UNL     1      37.269 -22.098 -16.326  0.00  0.00    -0.025 C 
ENDBRANCH  19  23
ENDBRANCH  18  19
ENDBRANCH  17  18
ENDBRANCH  16  17
ENDBRANCH  14  16
ENDBRANCH   1  14
TORSDOF 8
ENDMDL
