MODEL 1
REMARK VINA RESULT:      -7.4      0.000      0.000
REMARK  Name = 11358855
REMARK  8 active torsions:
REMARK  status: ('A' for Active; 'I' for Inactive)
REMARK    1  A    between atoms: N_1  and  S_3
REMARK    2  A    between atoms: N_1  and  C_12
REMARK    3  A    between atoms: S_3  and  C_8
REMARK    4  A    between atoms: C_12  and  C_13
REMARK    5  A    between atoms: C_12  and  C_18
REMARK    6  A    between atoms: C_13  and  C_14
REMARK    7  A    between atoms: C_13  and  C_16
REMARK    8  A    between atoms: C_18  and  O_19
REMARK                            x       y       z     vdW  Elec       q    Type
REMARK                         _______ _______ _______ _____ _____    ______ ____
ROOT
ATOM      1  N   UNL     1      34.150 -17.245 -22.599  0.00  0.00    -0.178 NA
ATOM      2  H   UNL     1      33.497 -17.272 -21.818  0.00  0.00    +0.149 HD
ENDROOT
BRANCH   1   3
ATOM      3  S   UNL     1      35.140 -18.629 -22.488  0.00  0.00    +0.066 S 
ATOM      4  O   UNL     1      36.442 -18.256 -21.970  0.00  0.00    -0.153 OA
ATOM      5  O   UNL     1      35.006 -19.389 -23.715  0.00  0.00    -0.153 OA
BRANCH   3   8
ATOM      6 CL   UNL     1      34.712 -22.495 -18.253  0.00  0.00    -0.075 Cl
ATOM      7  S   UNL     1      35.566 -20.612 -20.384  0.00  0.00    -0.056 S 
ATOM      8  C   UNL     1      34.421 -19.701 -21.245  0.00  0.00    +0.152 C 
ATOM      9  C   UNL     1      33.139 -19.923 -20.867  0.00  0.00    +0.028 C 
ATOM     10  C   UNL     1      33.075 -20.887 -19.820  0.00  0.00    +0.020 C 
ATOM     11  C   UNL     1      34.324 -21.344 -19.460  0.00  0.00    +0.088 C 
ENDBRANCH   3   8
ENDBRANCH   1   3
BRANCH   1  12
ATOM     12  C   UNL     1      34.826 -15.911 -22.571  0.00  0.00    +0.105 C 
BRANCH  12  13
ATOM     13  C   UNL     1      34.319 -15.072 -23.776  0.00  0.00    +0.019 C 
BRANCH  13  14
ATOM     14  C   UNL     1      33.929 -15.944 -24.993  0.00  0.00    +0.001 C 
ATOM     15  C   UNL     1      33.198 -15.192 -26.097  0.00  0.00    +0.000 C 
ENDBRANCH  13  14
BRANCH  13  16
ATOM     16  C   UNL     1      33.146 -14.140 -23.377  0.00  0.00    +0.001 C 
ATOM     17  C   UNL     1      33.451 -12.657 -23.553  0.00  0.00    +0.000 C 
ENDBRANCH  13  16
ENDBRANCH  12  13
BRANCH  12  18
ATOM     18  C   UNL     1      34.580 -15.274 -21.203  0.00  0.00    +0.154 C 
BRANCH  18  19
ATOM     19  O   UNL     1      35.065 -16.130 -20.171  0.00  0.00    -0.381 OA
ATOM     20  H   UNL     1      36.034 -16.151 -20.198  0.00  0.00    +0.211 HD
ENDBRANCH  18  19
ENDBRANCH  12  18
ENDBRANCH   1  12
TORSDOF 8
ENDMDL
MODEL 2
REMARK VINA RESULT:      -7.2      3.845      6.700
REMARK  Name = 11358855
REMARK  8 active torsions:
REMARK  status: ('A' for Active; 'I' for Inactive)
REMARK    1  A    between atoms: N_1  and  S_3
REMARK    2  A    between atoms: N_1  and  C_12
REMARK    3  A    between atoms: S_3  and  C_8
REMARK    4  A    between atoms: C_12  and  C_13
REMARK    5  A    between atoms: C_12  and  C_18
REMARK    6  A    between atoms: C_13  and  C_14
REMARK    7  A    between atoms: C_13  and  C_16
REMARK    8  A    between atoms: C_18  and  O_19
REMARK                            x       y       z     vdW  Elec       q    Type
REMARK                         _______ _______ _______ _____ _____    ______ ____
ROOT
ATOM      1  N   UNL     1      33.972 -16.925 -22.248  0.00  0.00    -0.178 NA
ATOM      2  H   UNL     1      34.006 -16.452 -23.149  0.00  0.00    +0.149 HD
ENDROOT
BRANCH   1   3
ATOM      3  S   UNL     1      33.572 -15.758 -21.071  0.00  0.00    +0.066 S 
ATOM      4  O   UNL     1      34.740 -15.457 -20.266  0.00  0.00    -0.153 OA
ATOM      5  O   UNL     1      32.312 -16.134 -20.460  0.00  0.00    -0.153 OA
BRANCH   3   8
ATOM      6 CL   UNL     1      33.758 -11.549 -24.985  0.00  0.00    -0.075 Cl
ATOM      7  S   UNL     1      34.137 -13.977 -23.318  0.00  0.00    -0.056 S 
ATOM      8  C   UNL     1      33.184 -14.238 -21.937  0.00  0.00    +0.152 C 
ATOM      9  C   UNL     1      32.279 -13.260 -21.696  0.00  0.00    +0.028 C 
ATOM     10  C   UNL     1      32.358 -12.236 -22.684  0.00  0.00    +0.020 C 
ATOM     11  C   UNL     1      33.327 -12.500 -23.627  0.00  0.00    +0.088 C 
ENDBRANCH   3   8
ENDBRANCH   1   3
BRANCH   1  12
ATOM     12  C   UNL     1      35.265 -17.657 -22.078  0.00  0.00    +0.105 C 
BRANCH  12  13
ATOM     13  C   UNL     1      35.074 -18.760 -21.000  0.00  0.00    +0.019 C 
BRANCH  13  14
ATOM     14  C   UNL     1      34.014 -19.813 -21.401  0.00  0.00    +0.001 C 
ATOM     15  C   UNL     1      32.788 -19.846 -20.498  0.00  0.00    +0.000 C 
ENDBRANCH  13  14
BRANCH  13  16
ATOM     16  C   UNL     1      36.414 -19.448 -20.634  0.00  0.00    +0.001 C 
ATOM     17  C   UNL     1      36.248 -20.852 -20.064  0.00  0.00    +0.000 C 
ENDBRANCH  13  16
ENDBRANCH  12  13
BRANCH  12  18
ATOM     18  C   UNL     1      35.708 -18.176 -23.446  0.00  0.00    +0.154 C 
BRANCH  18  19
ATOM     19  O   UNL     1      35.359 -17.238 -24.461  0.00  0.00    -0.381 OA
ATOM     20  H   UNL     1      36.089 -17.160 -25.094  0.00  0.00    +0.211 HD
ENDBRANCH  18  19
ENDBRANCH  12  18
ENDBRANCH   1  12
TORSDOF 8
ENDMDL
MODEL 3
REMARK VINA RESULT:      -7.1      1.264      2.352
REMARK  Name = 11358855
REMARK  8 active torsions:
REMARK  status: ('A' for Active; 'I' for Inactive)
REMARK    1  A    between atoms: N_1  and  S_3
REMARK    2  A    between atoms: N_1  and  C_12
REMARK    3  A    between atoms: S_3  and  C_8
REMARK    4  A    between atoms: C_12  and  C_13
REMARK    5  A    between atoms: C_12  and  C_18
REMARK    6  A    between atoms: C_13  and  C_14
REMARK    7  A    between atoms: C_13  and  C_16
REMARK    8  A    between atoms: C_18  and  O_19
REMARK                            x       y       z     vdW  Elec       q    Type
REMARK                         _______ _______ _______ _____ _____    ______ ____
ROOT
ATOM      1  N   UNL     1      35.161 -16.930 -22.186  0.00  0.00    -0.178 NA
ATOM      2  H   UNL     1      35.988 -16.335 -22.215  0.00  0.00    +0.149 HD
ENDROOT
BRANCH   1   3
ATOM      3  S   UNL     1      35.688 -18.547 -22.313  0.00  0.00    +0.066 S 
ATOM      4  O   UNL     1      37.031 -18.665 -21.780  0.00  0.00    -0.153 OA
ATOM      5  O   UNL     1      35.357 -19.035 -23.638  0.00  0.00    -0.153 OA
BRANCH   3   8
ATOM      6 CL   UNL     1      34.102 -22.519 -18.470  0.00  0.00    -0.075 Cl
ATOM      7  S   UNL     1      35.511 -20.710 -20.356  0.00  0.00    -0.056 S 
ATOM      8  C   UNL     1      34.655 -19.532 -21.230  0.00  0.00    +0.152 C 
ATOM      9  C   UNL     1      33.324 -19.516 -20.981  0.00  0.00    +0.028 C 
ATOM     10  C   UNL     1      32.970 -20.515 -20.028  0.00  0.00    +0.020 C 
ATOM     11  C   UNL     1      34.065 -21.236 -19.604  0.00  0.00    +0.088 C 
ENDBRANCH   3   8
ENDBRANCH   1   3
BRANCH   1  12
ATOM     12  C   UNL     1      34.214 -16.431 -23.230  0.00  0.00    +0.105 C 
BRANCH  12  13
ATOM     13  C   UNL     1      33.517 -15.149 -22.696  0.00  0.00    +0.019 C 
BRANCH  13  14
ATOM     14  C   UNL     1      33.862 -14.850 -21.218  0.00  0.00    +0.001 C 
ATOM     15  C   UNL     1      32.690 -15.001 -20.257  0.00  0.00    +0.000 C 
ENDBRANCH  13  14
BRANCH  13  16
ATOM     16  C   UNL     1      33.819 -13.916 -23.586  0.00  0.00    +0.001 C 
ATOM     17  C   UNL     1      32.969 -12.695 -23.252  0.00  0.00    +0.000 C 
ENDBRANCH  13  16
ENDBRANCH  12  13
BRANCH  12  18
ATOM     18  C   UNL     1      34.991 -16.238 -24.533  0.00  0.00    +0.154 C 
BRANCH  18  19
ATOM     19  O   UNL     1      34.433 -17.055 -25.560  0.00  0.00    -0.381 OA
ATOM     20  H   UNL     1      33.616 -17.466 -25.237  0.00  0.00    +0.211 HD
ENDBRANCH  18  19
ENDBRANCH  12  18
ENDBRANCH   1  12
TORSDOF 8
ENDMDL
MODEL 4
REMARK VINA RESULT:      -7.1      3.229      6.855
REMARK  Name = 11358855
REMARK  8 active torsions:
REMARK  status: ('A' for Active; 'I' for Inactive)
REMARK    1  A    between atoms: N_1  and  S_3
REMARK    2  A    between atoms: N_1  and  C_12
REMARK    3  A    between atoms: S_3  and  C_8
REMARK    4  A    between atoms: C_12  and  C_13
REMARK    5  A    between atoms: C_12  and  C_18
REMARK    6  A    between atoms: C_13  and  C_14
REMARK    7  A    between atoms: C_13  and  C_16
REMARK    8  A    between atoms: C_18  and  O_19
REMARK                            x       y       z     vdW  Elec       q    Type
REMARK                         _______ _______ _______ _____ _____    ______ ____
ROOT
ATOM      1  N   UNL     1      35.272 -19.283 -20.576  0.00  0.00    -0.178 NA
ATOM      2  H   UNL     1      34.833 -18.583 -19.979  0.00  0.00    +0.149 HD
ENDROOT
BRANCH   1   3
ATOM      3  S   UNL     1      35.559 -18.556 -22.091  0.00  0.00    +0.066 S 
ATOM      4  O   UNL     1      34.714 -19.173 -23.096  0.00  0.00    -0.153 OA
ATOM      5  O   UNL     1      36.991 -18.438 -22.280  0.00  0.00    -0.153 OA
BRANCH   3   8
ATOM      6 CL   UNL     1      33.964 -13.261 -23.667  0.00  0.00    -0.075 Cl
ATOM      7  S   UNL     1      34.856 -16.087 -23.489  0.00  0.00    -0.056 S 
ATOM      8  C   UNL     1      35.006 -16.855 -21.981  0.00  0.00    +0.152 C 
ATOM      9  C   UNL     1      34.689 -16.069 -20.925  0.00  0.00    +0.028 C 
ATOM     10  C   UNL     1      34.302 -14.767 -21.355  0.00  0.00    +0.020 C 
ATOM     11  C   UNL     1      34.347 -14.640 -22.726  0.00  0.00    +0.088 C 
ENDBRANCH   3   8
ENDBRANCH   1   3
BRANCH   1  12
ATOM     12  C   UNL     1      34.403 -20.500 -20.550  0.00  0.00    +0.105 C 
BRANCH  12  13
ATOM     13  C   UNL     1      34.799 -21.366 -19.322  0.00  0.00    +0.019 C 
BRANCH  13  14
ATOM     14  C   UNL     1      34.204 -22.794 -19.379  0.00  0.00    +0.001 C 
ATOM     15  C   UNL     1      33.562 -23.259 -18.079  0.00  0.00    +0.000 C 
ENDBRANCH  13  14
BRANCH  13  16
ATOM     16  C   UNL     1      36.336 -21.425 -19.128  0.00  0.00    +0.001 C 
ATOM     17  C   UNL     1      36.763 -21.712 -17.694  0.00  0.00    +0.000 C 
ENDBRANCH  13  16
ENDBRANCH  12  13
BRANCH  12  18
ATOM     18  C   UNL     1      32.942 -20.050 -20.567  0.00  0.00    +0.154 C 
BRANCH  18  19
ATOM     19  O   UNL     1      32.276 -20.510 -19.394  0.00  0.00    -0.381 OA
ATOM     20  H   UNL     1      32.933 -20.746 -18.721  0.00  0.00    +0.211 HD
ENDBRANCH  18  19
ENDBRANCH  12  18
ENDBRANCH   1  12
TORSDOF 8
ENDMDL
MODEL 5
REMARK VINA RESULT:      -7.1      4.111      5.827
REMARK  Name = 11358855
REMARK  8 active torsions:
REMARK  status: ('A' for Active; 'I' for Inactive)
REMARK    1  A    between atoms: N_1  and  S_3
REMARK    2  A    between atoms: N_1  and  C_12
REMARK    3  A    between atoms: S_3  and  C_8
REMARK    4  A    between atoms: C_12  and  C_13
REMARK    5  A    between atoms: C_12  and  C_18
REMARK    6  A    between atoms: C_13  and  C_14
REMARK    7  A    between atoms: C_13  and  C_16
REMARK    8  A    between atoms: C_18  and  O_19
REMARK                            x       y       z     vdW  Elec       q    Type
REMARK                         _______ _______ _______ _____ _____    ______ ____
ROOT
ATOM      1  N   UNL     1      34.127 -12.400 -23.638  0.00  0.00    -0.178 NA
ATOM      2  H   UNL     1      34.975 -12.762 -24.074  0.00  0.00    +0.149 HD
ENDROOT
BRANCH   1   3
ATOM      3  S   UNL     1      33.048 -13.708 -23.456  0.00  0.00    +0.066 S 
ATOM      4  O   UNL     1      32.762 -14.288 -24.754  0.00  0.00    -0.153 OA
ATOM      5  O   UNL     1      31.982 -13.303 -22.560  0.00  0.00    -0.153 OA
BRANCH   3   8
ATOM      6 CL   UNL     1      36.246 -18.352 -22.330  0.00  0.00    -0.075 Cl
ATOM      7  S   UNL     1      34.723 -16.101 -23.527  0.00  0.00    -0.056 S 
ATOM      8  C   UNL     1      33.907 -14.986 -22.540  0.00  0.00    +0.152 C 
ATOM      9  C   UNL     1      34.025 -15.230 -21.213  0.00  0.00    +0.028 C 
ATOM     10  C   UNL     1      34.820 -16.388 -20.975  0.00  0.00    +0.020 C 
ATOM     11  C   UNL     1      35.265 -16.959 -22.147  0.00  0.00    +0.088 C 
ENDBRANCH   3   8
ENDBRANCH   1   3
BRANCH   1  12
ATOM     12  C   UNL     1      33.665 -11.236 -24.455  0.00  0.00    +0.105 C 
BRANCH  12  13
ATOM     13  C   UNL     1      33.808  -9.944 -23.604  0.00  0.00    +0.019 C 
BRANCH  13  14
ATOM     14  C   UNL     1      34.810  -8.934 -24.211  0.00  0.00    +0.001 C 
ATOM     15  C   UNL     1      34.766  -7.549 -23.579  0.00  0.00    +0.000 C 
ENDBRANCH  13  14
BRANCH  13  16
ATOM     16  C   UNL     1      32.437  -9.265 -23.351  0.00  0.00    +0.001 C 
ATOM     17  C   UNL     1      31.868  -9.529 -21.962  0.00  0.00    +0.000 C 
ENDBRANCH  13  16
ENDBRANCH  12  13
BRANCH  12  18
ATOM     18  C   UNL     1      34.453 -11.224 -25.766  0.00  0.00    +0.154 C 
BRANCH  18  19
ATOM     19  O   UNL     1      33.924 -12.199 -26.662  0.00  0.00    -0.381 OA
ATOM     20  H   UNL     1      33.854 -13.052 -26.206  0.00  0.00    +0.211 HD
ENDBRANCH  18  19
ENDBRANCH  12  18
ENDBRANCH   1  12
TORSDOF 8
ENDMDL
MODEL 6
REMARK VINA RESULT:      -7.1      1.292      2.124
REMARK  Name = 11358855
REMARK  8 active torsions:
REMARK  status: ('A' for Active; 'I' for Inactive)
REMARK    1  A    between atoms: N_1  and  S_3
REMARK    2  A    between atoms: N_1  and  C_12
REMARK    3  A    between atoms: S_3  and  C_8
REMARK    4  A    between atoms: C_12  and  C_13
REMARK    5  A    between atoms: C_12  and  C_18
REMARK    6  A    between atoms: C_13  and  C_14
REMARK    7  A    between atoms: C_13  and  C_16
REMARK    8  A    between atoms: C_18  and  O_19
REMARK                            x       y       z     vdW  Elec       q    Type
REMARK                         _______ _______ _______ _____ _____    ______ ____
ROOT
ATOM      1  N   UNL     1      34.231 -17.512 -21.460  0.00  0.00    -0.178 NA
ATOM      2  H   UNL     1      34.097 -17.619 -20.456  0.00  0.00    +0.149 HD
ENDROOT
BRANCH   1   3
ATOM      3  S   UNL     1      35.200 -18.813 -21.988  0.00  0.00    +0.066 S 
ATOM      4  O   UNL     1      36.591 -18.404 -22.020  0.00  0.00    -0.153 OA
ATOM      5  O   UNL     1      34.566 -19.419 -23.143  0.00  0.00    -0.153 OA
BRANCH   3   8
ATOM      6 CL   UNL     1      33.004 -22.565 -18.224  0.00  0.00    -0.075 Cl
ATOM      7  S   UNL     1      33.518 -20.487 -20.282  0.00  0.00    -0.056 S 
ATOM      8  C   UNL     1      35.106 -20.091 -20.735  0.00  0.00    +0.152 C 
ATOM      9  C   UNL     1      36.060 -20.796 -20.083  0.00  0.00    +0.028 C 
ATOM     10  C   UNL     1      35.478 -21.711 -19.159  0.00  0.00    +0.020 C 
ATOM     11  C   UNL     1      34.102 -21.647 -19.166  0.00  0.00    +0.088 C 
ENDBRANCH   3   8
ENDBRANCH   1   3
BRANCH   1  12
ATOM     12  C   UNL     1      34.748 -16.129 -21.699  0.00  0.00    +0.105 C 
BRANCH  12  13
ATOM     13  C   UNL     1      34.184 -15.615 -23.052  0.00  0.00    +0.019 C 
BRANCH  13  14
ATOM     14  C   UNL     1      34.112 -14.071 -23.124  0.00  0.00    +0.001 C 
ATOM     15  C   UNL     1      32.702 -13.514 -23.271  0.00  0.00    +0.000 C 
ENDBRANCH  13  14
BRANCH  13  16
ATOM     16  C   UNL     1      34.977 -16.180 -24.259  0.00  0.00    +0.001 C 
ATOM     17  C   UNL     1      34.093 -16.758 -25.358  0.00  0.00    +0.000 C 
ENDBRANCH  13  16
ENDBRANCH  12  13
BRANCH  12  18
ATOM     18  C   UNL     1      34.388 -15.265 -20.490  0.00  0.00    +0.154 C 
BRANCH  18  19
ATOM     19  O   UNL     1      32.994 -15.373 -20.211  0.00  0.00    -0.381 OA
ATOM     20  H   UNL     1      32.840 -16.129 -19.623  0.00  0.00    +0.211 HD
ENDBRANCH  18  19
ENDBRANCH  12  18
ENDBRANCH   1  12
TORSDOF 8
ENDMDL
MODEL 7
REMARK VINA RESULT:      -7.1      9.781     11.479
REMARK  Name = 11358855
REMARK  8 active torsions:
REMARK  status: ('A' for Active; 'I' for Inactive)
REMARK    1  A    between atoms: N_1  and  S_3
REMARK    2  A    between atoms: N_1  and  C_12
REMARK    3  A    between atoms: S_3  and  C_8
REMARK    4  A    between atoms: C_12  and  C_13
REMARK    5  A    between atoms: C_12  and  C_18
REMARK    6  A    between atoms: C_13  and  C_14
REMARK    7  A    between atoms: C_13  and  C_16
REMARK    8  A    between atoms: C_18  and  O_19
REMARK                            x       y       z     vdW  Elec       q    Type
REMARK                         _______ _______ _______ _____ _____    ______ ____
ROOT
ATOM      1  N   UNL     1      35.273 -25.031 -14.623  0.00  0.00    -0.178 NA
ATOM      2  H   UNL     1      34.693 -25.845 -14.825  0.00  0.00    +0.149 HD
ENDROOT
BRANCH   1   3
ATOM      3  S   UNL     1      34.599 -23.704 -15.455  0.00  0.00    +0.066 S 
ATOM      4  O   UNL     1      34.524 -24.004 -16.872  0.00  0.00    -0.153 OA
ATOM      5  O   UNL     1      35.231 -22.491 -14.974  0.00  0.00    -0.153 OA
BRANCH   3   8
ATOM      6 CL   UNL     1      28.910 -22.878 -15.617  0.00  0.00    -0.075 Cl
ATOM      7  S   UNL     1      31.808 -23.214 -16.172  0.00  0.00    -0.056 S 
ATOM      8  C   UNL     1      32.899 -23.539 -14.912  0.00  0.00    +0.152 C 
ATOM      9  C   UNL     1      32.324 -23.623 -13.688  0.00  0.00    +0.028 C 
ATOM     10  C   UNL     1      30.918 -23.410 -13.769  0.00  0.00    +0.020 C 
ATOM     11  C   UNL     1      30.504 -23.177 -15.063  0.00  0.00    +0.088 C 
ENDBRANCH   3   8
ENDBRANCH   1   3
BRANCH   1  12
ATOM     12  C   UNL     1      36.686 -25.398 -14.944  0.00  0.00    +0.105 C 
BRANCH  12  13
ATOM     13  C   UNL     1      37.618 -24.769 -13.871  0.00  0.00    +0.019 C 
BRANCH  13  14
ATOM     14  C   UNL     1      36.897 -24.514 -12.526  0.00  0.00    +0.001 C 
ATOM     15  C   UNL     1      37.166 -23.143 -11.919  0.00  0.00    +0.000 C 
ENDBRANCH  13  14
BRANCH  13  16
ATOM     16  C   UNL     1      38.897 -25.617 -13.650  0.00  0.00    +0.001 C 
ATOM     17  C   UNL     1      40.019 -25.304 -14.634  0.00  0.00    +0.000 C 
ENDBRANCH  13  16
ENDBRANCH  12  13
BRANCH  12  18
ATOM     18  C   UNL     1      36.777 -26.921 -15.052  0.00  0.00    +0.154 C 
BRANCH  18  19
ATOM     19  O   UNL     1      36.782 -27.314 -16.422  0.00  0.00    -0.381 OA
ATOM     20  H   UNL     1      36.905 -26.532 -16.982  0.00  0.00    +0.211 HD
ENDBRANCH  18  19
ENDBRANCH  12  18
ENDBRANCH   1  12
TORSDOF 8
ENDMDL
MODEL 8
REMARK VINA RESULT:      -7.0      3.928      6.481
REMARK  Name = 11358855
REMARK  8 active torsions:
REMARK  status: ('A' for Active; 'I' for Inactive)
REMARK    1  A    between atoms: N_1  and  S_3
REMARK    2  A    between atoms: N_1  and  C_12
REMARK    3  A    between atoms: S_3  and  C_8
REMARK    4  A    between atoms: C_12  and  C_13
REMARK    5  A    between atoms: C_12  and  C_18
REMARK    6  A    between atoms: C_13  and  C_14
REMARK    7  A    between atoms: C_13  and  C_16
REMARK    8  A    between atoms: C_18  and  O_19
REMARK                            x       y       z     vdW  Elec       q    Type
REMARK                         _______ _______ _______ _____ _____    ______ ____
ROOT
ATOM      1  N   UNL     1      33.798 -17.293 -22.888  0.00  0.00    -0.178 NA
ATOM      2  H   UNL     1      32.963 -17.618 -23.373  0.00  0.00    +0.149 HD
ENDROOT
BRANCH   1   3
ATOM      3  S   UNL     1      34.104 -15.699 -23.411  0.00  0.00    +0.066 S 
ATOM      4  O   UNL     1      33.487 -15.484 -24.705  0.00  0.00    -0.153 OA
ATOM      5  O   UNL     1      35.506 -15.403 -23.186  0.00  0.00    -0.153 OA
BRANCH   3   8
ATOM      6 CL   UNL     1      30.993 -11.264 -21.484  0.00  0.00    -0.075 Cl
ATOM      7  S   UNL     1      32.491 -13.288 -23.057  0.00  0.00    -0.056 S 
ATOM      8  C   UNL     1      33.253 -14.595 -22.285  0.00  0.00    +0.152 C 
ATOM      9  C   UNL     1      33.107 -14.605 -20.939  0.00  0.00    +0.028 C 
ATOM     10  C   UNL     1      32.334 -13.491 -20.501  0.00  0.00    +0.020 C 
ATOM     11  C   UNL     1      31.934 -12.694 -21.551  0.00  0.00    +0.088 C 
ENDBRANCH   3   8
ENDBRANCH   1   3
BRANCH   1  12
ATOM     12  C   UNL     1      34.871 -18.309 -23.114  0.00  0.00    +0.105 C 
BRANCH  12  13
ATOM     13  C   UNL     1      34.945 -19.239 -21.871  0.00  0.00    +0.019 C 
BRANCH  13  14
ATOM     14  C   UNL     1      36.245 -19.047 -21.055  0.00  0.00    +0.001 C 
ATOM     15  C   UNL     1      36.652 -20.259 -20.227  0.00  0.00    +0.000 C 
ENDBRANCH  13  14
BRANCH  13  16
ATOM     16  C   UNL     1      33.701 -19.081 -20.959  0.00  0.00    +0.001 C 
ATOM     17  C   UNL     1      33.058 -20.405 -20.563  0.00  0.00    +0.000 C 
ENDBRANCH  13  16
ENDBRANCH  12  13
BRANCH  12  18
ATOM     18  C   UNL     1      34.583 -19.030 -24.432  0.00  0.00    +0.154 C 
BRANCH  18  19
ATOM     19  O   UNL     1      34.634 -18.105 -25.516  0.00  0.00    -0.381 OA
ATOM     20  H   UNL     1      34.063 -17.346 -25.320  0.00  0.00    +0.211 HD
ENDBRANCH  18  19
ENDBRANCH  12  18
ENDBRANCH   1  12
TORSDOF 8
ENDMDL
MODEL 9
REMARK VINA RESULT:      -7.0      5.271      7.807
REMARK  Name = 11358855
REMARK  8 active torsions:
REMARK  status: ('A' for Active; 'I' for Inactive)
REMARK    1  A    between atoms: N_1  and  S_3
REMARK    2  A    between atoms: N_1  and  C_12
REMARK    3  A    between atoms: S_3  and  C_8
REMARK    4  A    between atoms: C_12  and  C_13
REMARK    5  A    between atoms: C_12  and  C_18
REMARK    6  A    between atoms: C_13  and  C_14
REMARK    7  A    between atoms: C_13  and  C_16
REMARK    8  A    between atoms: C_18  and  O_19
REMARK                            x       y       z     vdW  Elec       q    Type
REMARK                         _______ _______ _______ _____ _____    ______ ____
ROOT
ATOM      1  N   UNL     1      34.562 -14.099 -23.272  0.00  0.00    -0.178 NA
ATOM      2  H   UNL     1      35.030 -13.486 -22.607  0.00  0.00    +0.149 HD
ENDROOT
BRANCH   1   3
ATOM      3  S   UNL     1      33.278 -13.217 -23.965  0.00  0.00    +0.066 S 
ATOM      4  O   UNL     1      32.152 -13.196 -23.051  0.00  0.00    -0.153 OA
ATOM      5  O   UNL     1      33.122 -13.639 -25.344  0.00  0.00    -0.153 OA
BRANCH   3   8
ATOM      6 CL   UNL     1      33.559  -7.537 -23.115  0.00  0.00    -0.075 Cl
ATOM      7  S   UNL     1      32.933 -10.440 -23.125  0.00  0.00    -0.056 S 
ATOM      8  C   UNL     1      33.813 -11.513 -24.103  0.00  0.00    +0.152 C 
ATOM      9  C   UNL     1      34.783 -10.922 -24.841  0.00  0.00    +0.028 C 
ATOM     10  C   UNL     1      34.819  -9.517 -24.605  0.00  0.00    +0.020 C 
ATOM     11  C   UNL     1      33.866  -9.121 -23.692  0.00  0.00    +0.088 C 
ENDBRANCH   3   8
ENDBRANCH   1   3
BRANCH   1  12
ATOM     12  C   UNL     1      34.218 -15.363 -22.551  0.00  0.00    +0.105 C 
BRANCH  12  13
ATOM     13  C   UNL     1      35.076 -16.518 -23.135  0.00  0.00    +0.019 C 
BRANCH  13  14
ATOM     14  C   UNL     1      34.855 -17.862 -22.400  0.00  0.00    +0.001 C 
ATOM     15  C   UNL     1      36.100 -18.420 -21.724  0.00  0.00    +0.000 C 
ENDBRANCH  13  14
BRANCH  13  16
ATOM     16  C   UNL     1      34.851 -16.689 -24.660  0.00  0.00    +0.001 C 
ATOM     17  C   UNL     1      34.421 -18.095 -25.063  0.00  0.00    +0.000 C 
ENDBRANCH  13  16
ENDBRANCH  12  13
BRANCH  12  18
ATOM     18  C   UNL     1      34.404 -15.128 -21.051  0.00  0.00    +0.154 C 
BRANCH  18  19
ATOM     19  O   UNL     1      33.179 -14.689 -20.470  0.00  0.00    -0.381 OA
ATOM     20  H   UNL     1      32.835 -15.379 -19.880  0.00  0.00    +0.211 HD
ENDBRANCH  18  19
ENDBRANCH  12  18
ENDBRANCH   1  12
TORSDOF 8
ENDMDL
