MODEL 1
REMARK VINA RESULT:      -7.9      0.000      0.000
REMARK  Name = 60937
REMARK  8 active torsions:
REMARK  status: ('A' for Active; 'I' for Inactive)
REMARK    1  A    between atoms: C_1  and  P_2
REMARK    2  A    between atoms: C_1  and  P_8
REMARK    3  A    between atoms: C_1  and  S_14
REMARK    4  A    between atoms: P_2  and  O_4
REMARK    5  A    between atoms: P_2  and  O_6
REMARK    6  A    between atoms: P_8  and  O_10
REMARK    7  A    between atoms: P_8  and  O_12
REMARK    8  A    between atoms: S_14  and  C_16
REMARK                            x       y       z     vdW  Elec       q    Type
REMARK                         _______ _______ _______ _____ _____    ______ ____
ROOT
ATOM      1  C   UNL     1      37.257 -24.257 -13.832  0.00  0.00    +0.258 C 
ENDROOT
BRANCH   1   2
ATOM      2  P   UNL     1      37.298 -23.539 -12.171  0.00  0.00    +0.358 P 
ATOM      3  O   UNL     1      38.207 -22.358 -12.005  0.00  0.00    -0.257 OA
BRANCH   2   4
ATOM      4  O   UNL     1      35.736 -23.235 -11.879  0.00  0.00    -0.323 OA
ATOM      5  H   UNL     1      35.221 -24.048 -11.994  0.00  0.00    +0.220 HD
ENDBRANCH   2   4
BRANCH   2   6
ATOM      6  O   UNL     1      37.606 -24.797 -11.202  0.00  0.00    -0.323 OA
ATOM      7  H   UNL     1      38.525 -24.749 -10.893  0.00  0.00    +0.220 HD
ENDBRANCH   2   6
ENDBRANCH   1   2
BRANCH   1   8
ATOM      8  P   UNL     1      37.691 -25.971 -14.205  0.00  0.00    +0.358 P 
ATOM      9  O   UNL     1      39.149 -26.312 -14.120  0.00  0.00    -0.257 OA
BRANCH   8  10
ATOM     10  O   UNL     1      36.752 -26.799 -13.182  0.00  0.00    -0.323 OA
ATOM     11  H   UNL     1      37.074 -26.677 -12.274  0.00  0.00    +0.220 HD
ENDBRANCH   8  10
BRANCH   8  12
ATOM     12  O   UNL     1      36.995 -26.251 -15.637  0.00  0.00    -0.323 OA
ATOM     13  H   UNL     1      37.480 -26.952 -16.100  0.00  0.00    +0.220 HD
ENDBRANCH   8  12
ENDBRANCH   1   8
BRANCH   1  14
ATOM     14  S   UNL     1      35.505 -24.088 -14.336  0.00  0.00    -0.090 S 
BRANCH  14  16
ATOM     15 CL   UNL     1      36.070 -20.930 -19.748  0.00  0.00    -0.082 Cl
ATOM     16  C   UNL     1      35.665 -23.191 -15.872  0.00  0.00    +0.026 C 
ATOM     17  C   UNL     1      34.602 -23.160 -16.771  0.00  0.00    +0.007 C 
ATOM     18  C   UNL     1      36.853 -22.526 -16.166  0.00  0.00    +0.007 C 
ATOM     19  C   UNL     1      34.727 -22.458 -17.971  0.00  0.00    +0.012 C 
ATOM     20  C   UNL     1      36.978 -21.825 -17.366  0.00  0.00    +0.012 C 
ATOM     21  C   UNL     1      35.916 -21.791 -18.267  0.00  0.00    +0.058 C 
ENDBRANCH  14  16
ENDBRANCH   1  14
TORSDOF 8
ENDMDL
MODEL 2
REMARK VINA RESULT:      -7.8      0.984      2.217
REMARK  Name = 60937
REMARK  8 active torsions:
REMARK  status: ('A' for Active; 'I' for Inactive)
REMARK    1  A    between atoms: C_1  and  P_2
REMARK    2  A    between atoms: C_1  and  P_8
REMARK    3  A    between atoms: C_1  and  S_14
REMARK    4  A    between atoms: P_2  and  O_4
REMARK    5  A    between atoms: P_2  and  O_6
REMARK    6  A    between atoms: P_8  and  O_10
REMARK    7  A    between atoms: P_8  and  O_12
REMARK    8  A    between atoms: S_14  and  C_16
REMARK                            x       y       z     vdW  Elec       q    Type
REMARK                         _______ _______ _______ _____ _____    ______ ____
ROOT
ATOM      1  C   UNL     1      36.277 -24.431 -13.984  0.00  0.00    +0.258 C 
ENDROOT
BRANCH   1   2
ATOM      2  P   UNL     1      35.930 -24.216 -12.221  0.00  0.00    +0.358 P 
ATOM      3  O   UNL     1      36.159 -25.430 -11.370  0.00  0.00    -0.257 OA
BRANCH   2   4
ATOM      4  O   UNL     1      36.843 -22.938 -11.834  0.00  0.00    -0.323 OA
ATOM      5  H   UNL     1      36.334 -22.124 -11.972  0.00  0.00    +0.220 HD
ENDBRANCH   2   4
BRANCH   2   6
ATOM      6  O   UNL     1      34.430 -23.611 -12.182  0.00  0.00    -0.323 OA
ATOM      7  H   UNL     1      33.820 -24.232 -12.611  0.00  0.00    +0.220 HD
ENDBRANCH   2   6
ENDBRANCH   1   2
BRANCH   1   8
ATOM      8  P   UNL     1      36.844 -25.979 -14.723  0.00  0.00    +0.358 P 
ATOM      9  O   UNL     1      35.969 -26.552 -15.797  0.00  0.00    -0.257 OA
BRANCH   8  10
ATOM     10  O   UNL     1      38.340 -25.607 -15.210  0.00  0.00    -0.323 OA
ATOM     11  H   UNL     1      38.597 -26.189 -15.942  0.00  0.00    +0.220 HD
ENDBRANCH   8  10
BRANCH   8  12
ATOM     12  O   UNL     1      37.110 -26.946 -13.454  0.00  0.00    -0.323 OA
ATOM     13  H   UNL     1      37.086 -27.871 -13.743  0.00  0.00    +0.220 HD
ENDBRANCH   8  12
ENDBRANCH   1   8
BRANCH   1  14
ATOM     14  S   UNL     1      34.671 -24.077 -14.790  0.00  0.00    -0.090 S 
BRANCH  14  16
ATOM     15 CL   UNL     1      36.509 -20.809 -19.842  0.00  0.00    -0.082 Cl
ATOM     16  C   UNL     1      35.193 -23.150 -16.224  0.00  0.00    +0.026 C 
ATOM     17  C   UNL     1      36.452 -22.555 -16.245  0.00  0.00    +0.007 C 
ATOM     18  C   UNL     1      34.339 -23.024 -17.317  0.00  0.00    +0.007 C 
ATOM     19  C   UNL     1      36.860 -21.831 -17.366  0.00  0.00    +0.012 C 
ATOM     20  C   UNL     1      34.747 -22.300 -18.438  0.00  0.00    +0.012 C 
ATOM     21  C   UNL     1      36.006 -21.704 -18.462  0.00  0.00    +0.058 C 
ENDBRANCH  14  16
ENDBRANCH   1  14
TORSDOF 8
ENDMDL
MODEL 3
REMARK VINA RESULT:      -7.8      1.297      3.311
REMARK  Name = 60937
REMARK  8 active torsions:
REMARK  status: ('A' for Active; 'I' for Inactive)
REMARK    1  A    between atoms: C_1  and  P_2
REMARK    2  A    between atoms: C_1  and  P_8
REMARK    3  A    between atoms: C_1  and  S_14
REMARK    4  A    between atoms: P_2  and  O_4
REMARK    5  A    between atoms: P_2  and  O_6
REMARK    6  A    between atoms: P_8  and  O_10
REMARK    7  A    between atoms: P_8  and  O_12
REMARK    8  A    between atoms: S_14  and  C_16
REMARK                            x       y       z     vdW  Elec       q    Type
REMARK                         _______ _______ _______ _____ _____    ______ ____
ROOT
ATOM      1  C   UNL     1      36.136 -24.554 -14.072  0.00  0.00    +0.258 C 
ENDROOT
BRANCH   1   2
ATOM      2  P   UNL     1      37.056 -26.026 -14.588  0.00  0.00    +0.358 P 
ATOM      3  O   UNL     1      37.356 -27.009 -13.495  0.00  0.00    -0.257 OA
BRANCH   2   4
ATOM      4  O   UNL     1      36.143 -26.610 -15.789  0.00  0.00    -0.323 OA
ATOM      5  H   UNL     1      36.526 -27.440 -16.111  0.00  0.00    +0.220 HD
ENDBRANCH   2   4
BRANCH   2   6
ATOM      6  O   UNL     1      38.344 -25.437 -15.368  0.00  0.00    -0.323 OA
ATOM      7  H   UNL     1      38.390 -24.477 -15.237  0.00  0.00    +0.220 HD
ENDBRANCH   2   6
ENDBRANCH   1   2
BRANCH   1   8
ATOM      8  P   UNL     1      35.879 -24.073 -12.350  0.00  0.00    +0.358 P 
ATOM      9  O   UNL     1      36.803 -23.020 -11.818  0.00  0.00    -0.257 OA
BRANCH   8  10
ATOM     10  O   UNL     1      34.316 -23.659 -12.333  0.00  0.00    -0.323 OA
ATOM     11  H   UNL     1      33.801 -24.315 -12.829  0.00  0.00    +0.220 HD
ENDBRANCH   8  10
BRANCH   8  12
ATOM     12  O   UNL     1      35.887 -25.476 -11.544  0.00  0.00    -0.323 OA
ATOM     13  H   UNL     1      36.523 -25.424 -10.814  0.00  0.00    +0.220 HD
ENDBRANCH   8  12
ENDBRANCH   1   8
BRANCH   1  14
ATOM     14  S   UNL     1      37.077 -23.171 -14.819  0.00  0.00    -0.090 S 
BRANCH  14  16
ATOM     15 CL   UNL     1      33.533 -21.829 -19.842  0.00  0.00    -0.082 Cl
ATOM     16  C   UNL     1      36.071 -22.791 -16.245  0.00  0.00    +0.026 C 
ATOM     17  C   UNL     1      36.615 -22.070 -17.305  0.00  0.00    +0.007 C 
ATOM     18  C   UNL     1      34.745 -23.216 -16.292  0.00  0.00    +0.007 C 
ATOM     19  C   UNL     1      35.829 -21.773 -18.419  0.00  0.00    +0.012 C 
ATOM     20  C   UNL     1      33.960 -22.920 -17.406  0.00  0.00    +0.012 C 
ATOM     21  C   UNL     1      34.502 -22.198 -18.469  0.00  0.00    +0.058 C 
ENDBRANCH  14  16
ENDBRANCH   1  14
TORSDOF 8
ENDMDL
MODEL 4
REMARK VINA RESULT:      -7.7      3.218      4.715
REMARK  Name = 60937
REMARK  8 active torsions:
REMARK  status: ('A' for Active; 'I' for Inactive)
REMARK    1  A    between atoms: C_1  and  P_2
REMARK    2  A    between atoms: C_1  and  P_8
REMARK    3  A    between atoms: C_1  and  S_14
REMARK    4  A    between atoms: P_2  and  O_4
REMARK    5  A    between atoms: P_2  and  O_6
REMARK    6  A    between atoms: P_8  and  O_10
REMARK    7  A    between atoms: P_8  and  O_12
REMARK    8  A    between atoms: S_14  and  C_16
REMARK                            x       y       z     vdW  Elec       q    Type
REMARK                         _______ _______ _______ _____ _____    ______ ____
ROOT
ATOM      1  C   UNL     1      35.891 -25.059 -13.546  0.00  0.00    +0.258 C 
ENDROOT
BRANCH   1   2
ATOM      2  P   UNL     1      36.955 -25.894 -14.749  0.00  0.00    +0.358 P 
ATOM      3  O   UNL     1      36.237 -26.718 -15.777  0.00  0.00    -0.257 OA
BRANCH   2   4
ATOM      4  O   UNL     1      37.830 -24.675 -15.353  0.00  0.00    -0.323 OA
ATOM      5  H   UNL     1      37.295 -23.867 -15.362  0.00  0.00    +0.220 HD
ENDBRANCH   2   4
BRANCH   2   6
ATOM      6  O   UNL     1      38.029 -26.693 -13.842  0.00  0.00    -0.323 OA
ATOM      7  H   UNL     1      38.927 -26.414 -14.082  0.00  0.00    +0.220 HD
ENDBRANCH   2   6
ENDBRANCH   1   2
BRANCH   1   8
ATOM      8  P   UNL     1      36.454 -24.469 -11.934  0.00  0.00    +0.358 P 
ATOM      9  O   UNL     1      37.873 -24.795 -11.576  0.00  0.00    -0.257 OA
BRANCH   8  10
ATOM     10  O   UNL     1      36.133 -22.886 -12.010  0.00  0.00    -0.323 OA
ATOM     11  H   UNL     1      35.246 -22.752 -12.381  0.00  0.00    +0.220 HD
ENDBRANCH   8  10
BRANCH   8  12
ATOM     12  O   UNL     1      35.334 -25.013 -10.902  0.00  0.00    -0.323 OA
ATOM     13  H   UNL     1      34.986 -25.860 -11.221  0.00  0.00    +0.220 HD
ENDBRANCH   8  12
ENDBRANCH   1   8
BRANCH   1  14
ATOM     14  S   UNL     1      35.326 -23.560 -14.433  0.00  0.00    -0.090 S 
BRANCH  14  16
ATOM     15 CL   UNL     1      29.171 -24.718 -15.037  0.00  0.00    -0.082 Cl
ATOM     16  C   UNL     1      33.579 -23.889 -14.605  0.00  0.00    +0.026 C 
ATOM     17  C   UNL     1      32.872 -23.344 -15.674  0.00  0.00    +0.007 C 
ATOM     18  C   UNL     1      32.929 -24.690 -13.669  0.00  0.00    +0.007 C 
ATOM     19  C   UNL     1      31.508 -23.602 -15.809  0.00  0.00    +0.012 C 
ATOM     20  C   UNL     1      31.565 -24.948 -13.804  0.00  0.00    +0.012 C 
ATOM     21  C   UNL     1      30.855 -24.404 -14.872  0.00  0.00    +0.058 C 
ENDBRANCH  14  16
ENDBRANCH   1  14
TORSDOF 8
ENDMDL
MODEL 5
REMARK VINA RESULT:      -7.6      1.265      3.262
REMARK  Name = 60937
REMARK  8 active torsions:
REMARK  status: ('A' for Active; 'I' for Inactive)
REMARK    1  A    between atoms: C_1  and  P_2
REMARK    2  A    between atoms: C_1  and  P_8
REMARK    3  A    between atoms: C_1  and  S_14
REMARK    4  A    between atoms: P_2  and  O_4
REMARK    5  A    between atoms: P_2  and  O_6
REMARK    6  A    between atoms: P_8  and  O_10
REMARK    7  A    between atoms: P_8  and  O_12
REMARK    8  A    between atoms: S_14  and  C_16
REMARK                            x       y       z     vdW  Elec       q    Type
REMARK                         _______ _______ _______ _____ _____    ______ ____
ROOT
ATOM      1  C   UNL     1      36.171 -24.755 -14.132  0.00  0.00    +0.258 C 
ENDROOT
BRANCH   1   2
ATOM      2  P   UNL     1      37.430 -26.047 -14.283  0.00  0.00    +0.358 P 
ATOM      3  O   UNL     1      38.819 -25.637 -13.891  0.00  0.00    -0.257 OA
BRANCH   2   4
ATOM      4  O   UNL     1      36.807 -27.252 -13.402  0.00  0.00    -0.323 OA
ATOM      5  H   UNL     1      37.232 -28.087 -13.650  0.00  0.00    +0.220 HD
ENDBRANCH   2   4
BRANCH   2   6
ATOM      6  O   UNL     1      37.265 -26.587 -15.799  0.00  0.00    -0.323 OA
ATOM      7  H   UNL     1      36.386 -26.349 -16.133  0.00  0.00    +0.220 HD
ENDBRANCH   2   6
ENDBRANCH   1   2
BRANCH   1   8
ATOM      8  P   UNL     1      35.399 -24.272 -12.571  0.00  0.00    +0.358 P 
ATOM      9  O   UNL     1      33.902 -24.203 -12.574  0.00  0.00    -0.257 OA
BRANCH   8  10
ATOM     10  O   UNL     1      36.016 -25.344 -11.530  0.00  0.00    -0.323 OA
ATOM     11  H   UNL     1      36.063 -26.217 -11.953  0.00  0.00    +0.220 HD
ENDBRANCH   8  10
BRANCH   8  12
ATOM     12  O   UNL     1      36.157 -22.901 -12.165  0.00  0.00    -0.323 OA
ATOM     13  H   UNL     1      36.922 -22.772 -12.746  0.00  0.00    +0.220 HD
ENDBRANCH   8  12
ENDBRANCH   1   8
BRANCH   1  14
ATOM     14  S   UNL     1      37.021 -23.248 -14.731  0.00  0.00    -0.090 S 
BRANCH  14  16
ATOM     15 CL   UNL     1      33.590 -21.825 -19.810  0.00  0.00    -0.082 Cl
ATOM     16  C   UNL     1      36.047 -22.844 -16.173  0.00  0.00    +0.026 C 
ATOM     17  C   UNL     1      36.611 -22.096 -17.204  0.00  0.00    +0.007 C 
ATOM     18  C   UNL     1      34.727 -23.279 -16.263  0.00  0.00    +0.007 C 
ATOM     19  C   UNL     1      35.851 -21.781 -18.330  0.00  0.00    +0.012 C 
ATOM     20  C   UNL     1      33.967 -22.965 -17.389  0.00  0.00    +0.012 C 
ATOM     21  C   UNL     1      34.528 -22.216 -18.422  0.00  0.00    +0.058 C 
ENDBRANCH  14  16
ENDBRANCH   1  14
TORSDOF 8
ENDMDL
MODEL 6
REMARK VINA RESULT:      -7.5      2.473      4.104
REMARK  Name = 60937
REMARK  8 active torsions:
REMARK  status: ('A' for Active; 'I' for Inactive)
REMARK    1  A    between atoms: C_1  and  P_2
REMARK    2  A    between atoms: C_1  and  P_8
REMARK    3  A    between atoms: C_1  and  S_14
REMARK    4  A    between atoms: P_2  and  O_4
REMARK    5  A    between atoms: P_2  and  O_6
REMARK    6  A    between atoms: P_8  and  O_10
REMARK    7  A    between atoms: P_8  and  O_12
REMARK    8  A    between atoms: S_14  and  C_16
REMARK                            x       y       z     vdW  Elec       q    Type
REMARK                         _______ _______ _______ _____ _____    ______ ____
ROOT
ATOM      1  C   UNL     1      35.995 -25.032 -13.957  0.00  0.00    +0.258 C 
ENDROOT
BRANCH   1   2
ATOM      2  P   UNL     1      37.178 -26.106 -14.808  0.00  0.00    +0.358 P 
ATOM      3  O   UNL     1      37.796 -27.178 -13.960  0.00  0.00    -0.257 OA
BRANCH   2   4
ATOM      4  O   UNL     1      36.318 -26.652 -16.065  0.00  0.00    -0.323 OA
ATOM      5  H   UNL     1      35.821 -27.441 -15.798  0.00  0.00    +0.220 HD
ENDBRANCH   2   4
BRANCH   2   6
ATOM      6  O   UNL     1      38.218 -25.080 -15.502  0.00  0.00    -0.323 OA
ATOM      7  H   UNL     1      38.649 -24.545 -14.817  0.00  0.00    +0.220 HD
ENDBRANCH   2   6
ENDBRANCH   1   2
BRANCH   1   8
ATOM      8  P   UNL     1      36.181 -24.475 -12.248  0.00  0.00    +0.358 P 
ATOM      9  O   UNL     1      36.443 -23.011 -12.061  0.00  0.00    -0.257 OA
BRANCH   8  10
ATOM     10  O   UNL     1      34.817 -25.002 -11.558  0.00  0.00    -0.323 OA
ATOM     11  H   UNL     1      34.575 -25.863 -11.936  0.00  0.00    +0.220 HD
ENDBRANCH   8  10
BRANCH   8  12
ATOM     12  O   UNL     1      37.301 -25.466 -11.631  0.00  0.00    -0.323 OA
ATOM     13  H   UNL     1      36.878 -26.094 -11.026  0.00  0.00    +0.220 HD
ENDBRANCH   8  12
ENDBRANCH   1   8
BRANCH   1  14
ATOM     14  S   UNL     1      35.997 -23.501 -14.962  0.00  0.00    -0.090 S 
BRANCH  14  16
ATOM     15 CL   UNL     1      29.925 -23.050 -16.547  0.00  0.00    -0.082 Cl
ATOM     16  C   UNL     1      34.274 -23.373 -15.411  0.00  0.00    +0.026 C 
ATOM     17  C   UNL     1      33.293 -23.417 -14.423  0.00  0.00    +0.007 C 
ATOM     18  C   UNL     1      33.915 -23.229 -16.750  0.00  0.00    +0.007 C 
ATOM     19  C   UNL     1      31.947 -23.316 -14.774  0.00  0.00    +0.012 C 
ATOM     20  C   UNL     1      32.569 -23.128 -17.101  0.00  0.00    +0.012 C 
ATOM     21  C   UNL     1      31.586 -23.172 -16.114  0.00  0.00    +0.058 C 
ENDBRANCH  14  16
ENDBRANCH   1  14
TORSDOF 8
ENDMDL
MODEL 7
REMARK VINA RESULT:      -7.5      9.511     10.466
REMARK  Name = 60937
REMARK  8 active torsions:
REMARK  status: ('A' for Active; 'I' for Inactive)
REMARK    1  A    between atoms: C_1  and  P_2
REMARK    2  A    between atoms: C_1  and  P_8
REMARK    3  A    between atoms: C_1  and  S_14
REMARK    4  A    between atoms: P_2  and  O_4
REMARK    5  A    between atoms: P_2  and  O_6
REMARK    6  A    between atoms: P_8  and  O_10
REMARK    7  A    between atoms: P_8  and  O_12
REMARK    8  A    between atoms: S_14  and  C_16
REMARK                            x       y       z     vdW  Elec       q    Type
REMARK                         _______ _______ _______ _____ _____    ______ ____
ROOT
ATOM      1  C   UNL     1      34.282 -17.108 -22.437  0.00  0.00    +0.258 C 
ENDROOT
BRANCH   1   2
ATOM      2  P   UNL     1      34.199 -15.823 -21.165  0.00  0.00    +0.358 P 
ATOM      3  O   UNL     1      35.062 -16.056 -19.960  0.00  0.00    -0.257 OA
BRANCH   2   4
ATOM      4  O   UNL     1      34.549 -14.480 -21.996  0.00  0.00    -0.323 OA
ATOM      5  H   UNL     1      33.733 -13.987 -22.172  0.00  0.00    +0.220 HD
ENDBRANCH   2   4
BRANCH   2   6
ATOM      6  O   UNL     1      32.618 -15.660 -20.868  0.00  0.00    -0.323 OA
ATOM      7  H   UNL     1      32.224 -16.536 -20.727  0.00  0.00    +0.220 HD
ENDBRANCH   2   6
ENDBRANCH   1   2
BRANCH   1   8
ATOM      8  P   UNL     1      34.438 -16.773 -24.206  0.00  0.00    +0.358 P 
ATOM      9  O   UNL     1      34.247 -17.949 -25.115  0.00  0.00    -0.257 OA
BRANCH   8  10
ATOM     10  O   UNL     1      33.373 -15.578 -24.430  0.00  0.00    -0.323 OA
ATOM     11  H   UNL     1      32.519 -15.827 -24.041  0.00  0.00    +0.220 HD
ENDBRANCH   8  10
BRANCH   8  12
ATOM     12  O   UNL     1      35.861 -16.015 -24.339  0.00  0.00    -0.323 OA
ATOM     13  H   UNL     1      35.896 -15.542 -25.185  0.00  0.00    +0.220 HD
ENDBRANCH   8  12
ENDBRANCH   1   8
BRANCH   1  14
ATOM     14  S   UNL     1      35.785 -18.058 -21.997  0.00  0.00    -0.090 S 
BRANCH  14  16
ATOM     15 CL   UNL     1      33.338 -22.723 -18.555  0.00  0.00    -0.082 Cl
ATOM     16  C   UNL     1      35.090 -19.383 -21.020  0.00  0.00    +0.026 C 
ATOM     17  C   UNL     1      33.708 -19.514 -20.913  0.00  0.00    +0.007 C 
ATOM     18  C   UNL     1      35.933 -20.280 -20.369  0.00  0.00    +0.007 C 
ATOM     19  C   UNL     1      33.165 -20.549 -20.151  0.00  0.00    +0.012 C 
ATOM     20  C   UNL     1      35.391 -21.315 -19.607  0.00  0.00    +0.012 C 
ATOM     21  C   UNL     1      34.008 -21.449 -19.498  0.00  0.00    +0.058 C 
ENDBRANCH  14  16
ENDBRANCH   1  14
TORSDOF 8
ENDMDL
MODEL 8
REMARK VINA RESULT:      -7.5      9.511     10.520
REMARK  Name = 60937
REMARK  8 active torsions:
REMARK  status: ('A' for Active; 'I' for Inactive)
REMARK    1  A    between atoms: C_1  and  P_2
REMARK    2  A    between atoms: C_1  and  P_8
REMARK    3  A    between atoms: C_1  and  S_14
REMARK    4  A    between atoms: P_2  and  O_4
REMARK    5  A    between atoms: P_2  and  O_6
REMARK    6  A    between atoms: P_8  and  O_10
REMARK    7  A    between atoms: P_8  and  O_12
REMARK    8  A    between atoms: S_14  and  C_16
REMARK                            x       y       z     vdW  Elec       q    Type
REMARK                         _______ _______ _______ _____ _____    ______ ____
ROOT
ATOM      1  C   UNL     1      34.282 -17.108 -22.437  0.00  0.00    +0.258 C 
ENDROOT
BRANCH   1   2
ATOM      2  P   UNL     1      34.199 -15.823 -21.164  0.00  0.00    +0.358 P 
ATOM      3  O   UNL     1      35.062 -16.058 -19.960  0.00  0.00    -0.257 OA
BRANCH   2   4
ATOM      4  O   UNL     1      34.549 -14.480 -21.994  0.00  0.00    -0.323 OA
ATOM      5  H   UNL     1      35.320 -14.642 -22.560  0.00  0.00    +0.220 HD
ENDBRANCH   2   4
BRANCH   2   6
ATOM      6  O   UNL     1      32.618 -15.661 -20.866  0.00  0.00    -0.323 OA
ATOM      7  H   UNL     1      32.368 -14.726 -20.947  0.00  0.00    +0.220 HD
ENDBRANCH   2   6
ENDBRANCH   1   2
BRANCH   1   8
ATOM      8  P   UNL     1      34.437 -16.772 -24.205  0.00  0.00    +0.358 P 
ATOM      9  O   UNL     1      34.245 -17.947 -25.116  0.00  0.00    -0.257 OA
BRANCH   8  10
ATOM     10  O   UNL     1      33.373 -15.575 -24.428  0.00  0.00    -0.323 OA
ATOM     11  H   UNL     1      33.103 -15.550 -25.360  0.00  0.00    +0.220 HD
ENDBRANCH   8  10
BRANCH   8  12
ATOM     12  O   UNL     1      35.860 -16.015 -24.339  0.00  0.00    -0.323 OA
ATOM     13  H   UNL     1      36.180 -16.089 -25.251  0.00  0.00    +0.220 HD
ENDBRANCH   8  12
ENDBRANCH   1   8
BRANCH   1  14
ATOM     14  S   UNL     1      35.784 -18.059 -21.998  0.00  0.00    -0.090 S 
BRANCH  14  16
ATOM     15 CL   UNL     1      33.338 -22.724 -18.557  0.00  0.00    -0.082 Cl
ATOM     16  C   UNL     1      35.090 -19.383 -21.021  0.00  0.00    +0.026 C 
ATOM     17  C   UNL     1      35.933 -20.280 -20.369  0.00  0.00    +0.007 C 
ATOM     18  C   UNL     1      33.708 -19.514 -20.913  0.00  0.00    +0.007 C 
ATOM     19  C   UNL     1      35.391 -21.314 -19.606  0.00  0.00    +0.012 C 
ATOM     20  C   UNL     1      33.165 -20.548 -20.149  0.00  0.00    +0.012 C 
ATOM     21  C   UNL     1      34.006 -21.447 -19.497  0.00  0.00    +0.058 C 
ENDBRANCH  14  16
ENDBRANCH   1  14
TORSDOF 8
ENDMDL
MODEL 9
REMARK VINA RESULT:      -7.4      2.898      3.602
REMARK  Name = 60937
REMARK  8 active torsions:
REMARK  status: ('A' for Active; 'I' for Inactive)
REMARK    1  A    between atoms: C_1  and  P_2
REMARK    2  A    between atoms: C_1  and  P_8
REMARK    3  A    between atoms: C_1  and  S_14
REMARK    4  A    between atoms: P_2  and  O_4
REMARK    5  A    between atoms: P_2  and  O_6
REMARK    6  A    between atoms: P_8  and  O_10
REMARK    7  A    between atoms: P_8  and  O_12
REMARK    8  A    between atoms: S_14  and  C_16
REMARK                            x       y       z     vdW  Elec       q    Type
REMARK                         _______ _______ _______ _____ _____    ______ ____
ROOT
ATOM      1  C   UNL     1      36.593 -24.756 -15.132  0.00  0.00    +0.258 C 
ENDROOT
BRANCH   1   2
ATOM      2  P   UNL     1      37.561 -23.227 -15.210  0.00  0.00    +0.358 P 
ATOM      3  O   UNL     1      36.937 -22.113 -15.997  0.00  0.00    -0.257 OA
BRANCH   2   4
ATOM      4  O   UNL     1      37.816 -22.890 -13.649  0.00  0.00    -0.323 OA
ATOM      5  H   UNL     1      37.999 -21.944 -13.548  0.00  0.00    +0.220 HD
ENDBRANCH   2   4
BRANCH   2   6
ATOM      6  O   UNL     1      39.020 -23.706 -15.718  0.00  0.00    -0.323 OA
ATOM      7  H   UNL     1      39.573 -22.928 -15.892  0.00  0.00    +0.220 HD
ENDBRANCH   2   6
ENDBRANCH   1   2
BRANCH   1   8
ATOM      8  P   UNL     1      37.311 -26.397 -14.898  0.00  0.00    +0.358 P 
ATOM      9  O   UNL     1      38.808 -26.456 -14.845  0.00  0.00    -0.257 OA
BRANCH   8  10
ATOM     10  O   UNL     1      36.576 -26.910 -13.552  0.00  0.00    -0.323 OA
ATOM     11  H   UNL     1      37.225 -26.973 -12.832  0.00  0.00    +0.220 HD
ENDBRANCH   8  10
BRANCH   8  12
ATOM     12  O   UNL     1      36.620 -27.298 -16.049  0.00  0.00    -0.323 OA
ATOM     13  H   UNL     1      35.672 -27.096 -16.091  0.00  0.00    +0.220 HD
ENDBRANCH   8  12
ENDBRANCH   1   8
BRANCH   1  14
ATOM     14  S   UNL     1      35.497 -24.502 -13.688  0.00  0.00    -0.090 S 
BRANCH  14  16
ATOM     15 CL   UNL     1      30.121 -22.820 -16.490  0.00  0.00    -0.082 Cl
ATOM     16  C   UNL     1      33.971 -24.026 -14.483  0.00  0.00    +0.026 C 
ATOM     17  C   UNL     1      33.962 -23.723 -15.843  0.00  0.00    +0.007 C 
ATOM     18  C   UNL     1      32.794 -23.957 -13.742  0.00  0.00    +0.007 C 
ATOM     19  C   UNL     1      32.770 -23.352 -16.465  0.00  0.00    +0.012 C 
ATOM     20  C   UNL     1      31.601 -23.585 -14.363  0.00  0.00    +0.012 C 
ATOM     21  C   UNL     1      31.590 -23.282 -15.724  0.00  0.00    +0.058 C 
ENDBRANCH  14  16
ENDBRANCH   1  14
TORSDOF 8
ENDMDL
