MODEL 1
REMARK VINA RESULT:      -8.8      0.000      0.000
REMARK  Name = 66384
REMARK  7 active torsions:
REMARK  status: ('A' for Active; 'I' for Inactive)
REMARK    1  A    between atoms: C_2  and  O_3
REMARK    2  A    between atoms: C_2  and  C_14
REMARK    3  A    between atoms: O_3  and  C_4
REMARK    4  A    between atoms: C_4  and  C_5
REMARK    5  A    between atoms: C_5  and  N_6
REMARK    6  A    between atoms: C_14  and  C_15
REMARK    7  A    between atoms: C_14  and  C_22
REMARK                            x       y       z     vdW  Elec       q    Type
REMARK                         _______ _______ _______ _____ _____    ______ ____
ROOT
ATOM      1  O   UNL     1      34.642  -8.895 -23.555  0.00  0.00    -0.250 OA
ATOM      2  C   UNL     1      33.524  -9.377 -23.690  0.00  0.00    +0.321 C 
ENDROOT
BRANCH   2   3
ATOM      3  O   UNL     1      33.240 -10.501 -24.422  0.00  0.00    -0.451 OA
BRANCH   3   4
ATOM      4  C   UNL     1      34.231 -11.522 -24.408  0.00  0.00    +0.186 C 
BRANCH   4   5
ATOM      5  C   UNL     1      33.540 -12.875 -24.454  0.00  0.00    -0.029 C 
BRANCH   5   6
ATOM      6  N   UNL     1      33.775 -13.620 -23.212  0.00  0.00    +0.389 N 
ATOM      7  C   UNL     1      34.061 -15.027 -23.519  0.00  0.00    -0.077 C 
ATOM      8  C   UNL     1      32.637 -13.423 -22.306  0.00  0.00    -0.077 C 
ATOM      9  C   UNL     1      34.786 -15.728 -22.371  0.00  0.00    -0.023 C 
ATOM     10  C   UNL     1      32.779 -14.060 -20.919  0.00  0.00    -0.023 C 
ATOM     11  C   UNL     1      33.890 -16.341 -21.299  0.00  0.00    -0.002 C 
ATOM     12  C   UNL     1      32.624 -15.575 -20.939  0.00  0.00    -0.002 C 
ATOM     13  H   UNL     1      34.598 -13.267 -22.725  0.00  0.00    -0.080 HD
ENDBRANCH   5   6
ENDBRANCH   4   5
ENDBRANCH   3   4
ENDBRANCH   2   3
BRANCH   2  14
ATOM     14  C   UNL     1      32.238  -8.792 -23.114  0.00  0.00    +0.122 C 
BRANCH  14  15
ATOM     15  C   UNL     1      32.259  -7.267 -23.180  0.00  0.00    +0.015 C 
ATOM     16  C   UNL     1      30.991  -6.678 -22.545  0.00  0.00    +0.001 C 
ATOM     17  C   UNL     1      32.416  -6.787 -24.629  0.00  0.00    +0.001 C 
ATOM     18  C   UNL     1      30.964  -5.156 -22.645  0.00  0.00    +0.000 C 
ATOM     19  C   UNL     1      32.386  -5.263 -24.727  0.00  0.00    +0.000 C 
ATOM     20  C   UNL     1      31.129  -4.683 -24.086  0.00  0.00    +0.000 C 
ENDBRANCH  14  15
BRANCH  14  22
ATOM     21  S   UNL     1      31.118 -10.721 -19.751  0.00  0.00    -0.086 S 
ATOM     22  C   UNL     1      31.971  -9.302 -21.716  0.00  0.00    -0.005 C 
ATOM     23  C   UNL     1      32.470  -8.683 -20.535  0.00  0.00    +0.004 C 
ATOM     24  C   UNL     1      31.219 -10.422 -21.434  0.00  0.00    +0.032 C 
ATOM     25  C   UNL     1      32.082  -9.352 -19.395  0.00  0.00    +0.035 C 
ENDBRANCH  14  22
ENDBRANCH   2  14
TORSDOF 7
ENDMDL
MODEL 2
REMARK VINA RESULT:      -8.7     10.970     15.522
REMARK  Name = 66384
REMARK  7 active torsions:
REMARK  status: ('A' for Active; 'I' for Inactive)
REMARK    1  A    between atoms: C_2  and  O_3
REMARK    2  A    between atoms: C_2  and  C_14
REMARK    3  A    between atoms: O_3  and  C_4
REMARK    4  A    between atoms: C_4  and  C_5
REMARK    5  A    between atoms: C_5  and  N_6
REMARK    6  A    between atoms: C_14  and  C_15
REMARK    7  A    between atoms: C_14  and  C_22
REMARK                            x       y       z     vdW  Elec       q    Type
REMARK                         _______ _______ _______ _____ _____    ______ ____
ROOT
ATOM      1  O   UNL     1      34.204 -23.757 -17.141  0.00  0.00    -0.250 OA
ATOM      2  C   UNL     1      34.991 -23.422 -16.265  0.00  0.00    +0.321 C 
ENDROOT
BRANCH   2   3
ATOM      3  O   UNL     1      36.286 -23.028 -16.485  0.00  0.00    -0.451 OA
BRANCH   3   4
ATOM      4  C   UNL     1      36.461 -21.710 -16.989  0.00  0.00    +0.186 C 
BRANCH   4   5
ATOM      5  C   UNL     1      36.673 -21.785 -18.492  0.00  0.00    -0.029 C 
BRANCH   5   6
ATOM      6  N   UNL     1      35.837 -20.797 -19.184  0.00  0.00    +0.389 N 
ATOM      7  C   UNL     1      34.630 -21.446 -19.712  0.00  0.00    -0.077 C 
ATOM      8  C   UNL     1      36.640 -20.107 -20.200  0.00  0.00    -0.077 C 
ATOM      9  C   UNL     1      33.513 -20.439 -19.988  0.00  0.00    -0.023 C 
ATOM     10  C   UNL     1      35.931 -18.971 -20.944  0.00  0.00    -0.023 C 
ATOM     11  C   UNL     1      33.536 -19.788 -21.367  0.00  0.00    -0.002 C 
ATOM     12  C   UNL     1      34.904 -19.466 -21.954  0.00  0.00    -0.002 C 
ATOM     13  H   UNL     1      35.509 -20.081 -18.537  0.00  0.00    -0.080 HD
ENDBRANCH   5   6
ENDBRANCH   4   5
ENDBRANCH   3   4
ENDBRANCH   2   3
BRANCH   2  14
ATOM     14  C   UNL     1      34.695 -23.425 -14.768  0.00  0.00    +0.122 C 
BRANCH  14  15
ATOM     15  C   UNL     1      35.616 -24.397 -14.035  0.00  0.00    +0.015 C 
ATOM     16  C   UNL     1      36.757 -23.644 -13.337  0.00  0.00    +0.001 C 
ATOM     17  C   UNL     1      36.169 -25.454 -15.000  0.00  0.00    +0.001 C 
ATOM     18  C   UNL     1      37.721 -24.600 -12.641  0.00  0.00    +0.000 C 
ATOM     19  C   UNL     1      37.135 -26.408 -14.300  0.00  0.00    +0.000 C 
ATOM     20  C   UNL     1      38.262 -25.654 -13.601  0.00  0.00    +0.000 C 
ENDBRANCH  14  15
BRANCH  14  22
ATOM     21  S   UNL     1      31.063 -24.807 -13.678  0.00  0.00    -0.086 S 
ATOM     22  C   UNL     1      33.233 -23.697 -14.489  0.00  0.00    -0.005 C 
ATOM     23  C   UNL     1      32.175 -22.827 -14.878  0.00  0.00    +0.004 C 
ATOM     24  C   UNL     1      32.770 -24.812 -13.828  0.00  0.00    +0.032 C 
ATOM     25  C   UNL     1      30.942 -23.310 -14.499  0.00  0.00    +0.035 C 
ENDBRANCH  14  22
ENDBRANCH   2  14
TORSDOF 7
ENDMDL
MODEL 3
REMARK VINA RESULT:      -8.7      3.976      8.776
REMARK  Name = 66384
REMARK  7 active torsions:
REMARK  status: ('A' for Active; 'I' for Inactive)
REMARK    1  A    between atoms: C_2  and  O_3
REMARK    2  A    between atoms: C_2  and  C_14
REMARK    3  A    between atoms: O_3  and  C_4
REMARK    4  A    between atoms: C_4  and  C_5
REMARK    5  A    between atoms: C_5  and  N_6
REMARK    6  A    between atoms: C_14  and  C_15
REMARK    7  A    between atoms: C_14  and  C_22
REMARK                            x       y       z     vdW  Elec       q    Type
REMARK                         _______ _______ _______ _____ _____    ______ ____
ROOT
ATOM      1  O   UNL     1      35.040 -15.737 -19.699  0.00  0.00    -0.250 OA
ATOM      2  C   UNL     1      34.474 -16.253 -20.655  0.00  0.00    +0.321 C 
ENDROOT
BRANCH   2   3
ATOM      3  O   UNL     1      33.166 -16.032 -21.003  0.00  0.00    -0.451 OA
BRANCH   3   4
ATOM      4  C   UNL     1      32.632 -14.763 -20.645  0.00  0.00    +0.186 C 
BRANCH   4   5
ATOM      5  C   UNL     1      32.330 -13.984 -21.914  0.00  0.00    -0.029 C 
BRANCH   5   6
ATOM      6  N   UNL     1      31.759 -12.671 -21.593  0.00  0.00    +0.389 N 
ATOM      7  C   UNL     1      32.347 -11.643 -22.461  0.00  0.00    -0.077 C 
ATOM      8  C   UNL     1      31.921 -12.408 -20.158  0.00  0.00    -0.077 C 
ATOM      9  C   UNL     1      31.476 -10.390 -22.537  0.00  0.00    -0.023 C 
ATOM     10  C   UNL     1      31.283 -11.113 -19.646  0.00  0.00    -0.023 C 
ATOM     11  C   UNL     1      31.723  -9.346 -21.453  0.00  0.00    -0.002 C 
ATOM     12  C   UNL     1      32.051  -9.864 -20.059  0.00  0.00    -0.002 C 
ATOM     13  H   UNL     1      30.757 -12.654 -21.779  0.00  0.00    -0.080 HD
ENDBRANCH   5   6
ENDBRANCH   4   5
ENDBRANCH   3   4
ENDBRANCH   2   3
BRANCH   2  14
ATOM     14  C   UNL     1      35.100 -17.272 -21.602  0.00  0.00    +0.122 C 
BRANCH  14  15
ATOM     15  C   UNL     1      34.424 -17.228 -22.970  0.00  0.00    +0.015 C 
ATOM     16  C   UNL     1      34.899 -18.394 -23.849  0.00  0.00    +0.001 C 
ATOM     17  C   UNL     1      34.682 -15.882 -23.662  0.00  0.00    +0.001 C 
ATOM     18  C   UNL     1      34.275 -18.341 -25.241  0.00  0.00    +0.000 C 
ATOM     19  C   UNL     1      34.059 -15.834 -25.055  0.00  0.00    +0.000 C 
ATOM     20  C   UNL     1      34.527 -17.000 -25.921  0.00  0.00    +0.000 C 
ENDBRANCH  14  15
BRANCH  14  22
ATOM     21  S   UNL     1      35.885 -20.899 -20.016  0.00  0.00    -0.086 S 
ATOM     22  C   UNL     1      35.101 -18.662 -21.006  0.00  0.00    -0.005 C 
ATOM     23  C   UNL     1      33.919 -19.406 -20.725  0.00  0.00    +0.004 C 
ATOM     24  C   UNL     1      36.242 -19.356 -20.669  0.00  0.00    +0.032 C 
ATOM     25  C   UNL     1      34.202 -20.641 -20.183  0.00  0.00    +0.035 C 
ENDBRANCH  14  22
ENDBRANCH   2  14
TORSDOF 7
ENDMDL
MODEL 4
REMARK VINA RESULT:      -8.7      3.596      6.164
REMARK  Name = 66384
REMARK  7 active torsions:
REMARK  status: ('A' for Active; 'I' for Inactive)
REMARK    1  A    between atoms: C_2  and  O_3
REMARK    2  A    between atoms: C_2  and  C_14
REMARK    3  A    between atoms: O_3  and  C_4
REMARK    4  A    between atoms: C_4  and  C_5
REMARK    5  A    between atoms: C_5  and  N_6
REMARK    6  A    between atoms: C_14  and  C_15
REMARK    7  A    between atoms: C_14  and  C_22
REMARK                            x       y       z     vdW  Elec       q    Type
REMARK                         _______ _______ _______ _____ _____    ______ ____
ROOT
ATOM      1  O   UNL     1      32.261 -15.244 -21.669  0.00  0.00    -0.250 OA
ATOM      2  C   UNL     1      33.302 -14.682 -21.987  0.00  0.00    +0.321 C 
ENDROOT
BRANCH   2   3
ATOM      3  O   UNL     1      34.552 -15.047 -21.555  0.00  0.00    -0.451 OA
BRANCH   3   4
ATOM      4  C   UNL     1      34.654 -16.333 -20.958  0.00  0.00    +0.186 C 
BRANCH   4   5
ATOM      5  C   UNL     1      35.236 -17.300 -21.976  0.00  0.00    -0.029 C 
BRANCH   5   6
ATOM      6  N   UNL     1      34.863 -18.682 -21.650  0.00  0.00    +0.389 N 
ATOM      7  C   UNL     1      33.612 -18.694 -20.881  0.00  0.00    -0.077 C 
ATOM      8  C   UNL     1      35.987 -19.342 -20.976  0.00  0.00    -0.077 C 
ATOM      9  C   UNL     1      32.917 -20.054 -20.940  0.00  0.00    -0.023 C 
ATOM     10  C   UNL     1      35.788 -20.828 -20.660  0.00  0.00    -0.023 C 
ATOM     11  C   UNL     1      33.354 -21.065 -19.885  0.00  0.00    -0.002 C 
ATOM     12  C   UNL     1      34.828 -21.069 -19.502  0.00  0.00    -0.002 C 
ATOM     13  H   UNL     1      34.676 -19.218 -22.497  0.00  0.00    -0.080 HD
ENDBRANCH   5   6
ENDBRANCH   4   5
ENDBRANCH   3   4
ENDBRANCH   2   3
BRANCH   2  14
ATOM     14  C   UNL     1      33.398 -13.448 -22.878  0.00  0.00    +0.122 C 
BRANCH  14  15
ATOM     15  C   UNL     1      32.337 -12.419 -22.497  0.00  0.00    +0.015 C 
ATOM     16  C   UNL     1      32.755 -11.014 -22.952  0.00  0.00    +0.001 C 
ATOM     17  C   UNL     1      32.072 -12.446 -20.986  0.00  0.00    +0.001 C 
ATOM     18  C   UNL     1      31.734  -9.958 -22.536  0.00  0.00    +0.000 C 
ATOM     19  C   UNL     1      31.051 -11.388 -20.572  0.00  0.00    +0.000 C 
ATOM     20  C   UNL     1      31.467  -9.995 -21.034  0.00  0.00    +0.000 C 
ENDBRANCH  14  15
BRANCH  14  22
ATOM     21  S   UNL     1      33.235 -13.643 -26.906  0.00  0.00    -0.086 S 
ATOM     22  C   UNL     1      33.342 -13.814 -24.345  0.00  0.00    -0.005 C 
ATOM     23  C   UNL     1      33.345 -15.153 -24.831  0.00  0.00    +0.004 C 
ATOM     24  C   UNL     1      33.286 -12.893 -25.368  0.00  0.00    +0.032 C 
ATOM     25  C   UNL     1      33.290 -15.204 -26.206  0.00  0.00    +0.035 C 
ENDBRANCH  14  22
ENDBRANCH   2  14
TORSDOF 7
ENDMDL
MODEL 5
REMARK VINA RESULT:      -8.7     10.670     15.251
REMARK  Name = 66384
REMARK  7 active torsions:
REMARK  status: ('A' for Active; 'I' for Inactive)
REMARK    1  A    between atoms: C_2  and  O_3
REMARK    2  A    between atoms: C_2  and  C_14
REMARK    3  A    between atoms: O_3  and  C_4
REMARK    4  A    between atoms: C_4  and  C_5
REMARK    5  A    between atoms: C_5  and  N_6
REMARK    6  A    between atoms: C_14  and  C_15
REMARK    7  A    between atoms: C_14  and  C_22
REMARK                            x       y       z     vdW  Elec       q    Type
REMARK                         _______ _______ _______ _____ _____    ______ ____
ROOT
ATOM      1  O   UNL     1      35.420 -22.044 -15.352  0.00  0.00    -0.250 OA
ATOM      2  C   UNL     1      34.996 -23.109 -15.783  0.00  0.00    +0.321 C 
ENDROOT
BRANCH   2   3
ATOM      3  O   UNL     1      34.955 -23.455 -17.109  0.00  0.00    -0.451 OA
BRANCH   3   4
ATOM      4  C   UNL     1      34.519 -22.441 -18.006  0.00  0.00    +0.186 C 
BRANCH   4   5
ATOM      5  C   UNL     1      35.724 -21.902 -18.759  0.00  0.00    -0.029 C 
BRANCH   5   6
ATOM      6  N   UNL     1      35.368 -20.693 -19.510  0.00  0.00    +0.389 N 
ATOM      7  C   UNL     1      34.164 -20.940 -20.314  0.00  0.00    -0.077 C 
ATOM      8  C   UNL     1      36.528 -20.246 -20.290  0.00  0.00    -0.077 C 
ATOM      9  C   UNL     1      33.464 -19.640 -20.711  0.00  0.00    -0.023 C 
ATOM     10  C   UNL     1      36.344 -18.930 -21.054  0.00  0.00    -0.023 C 
ATOM     11  C   UNL     1      33.959 -18.989 -21.998  0.00  0.00    -0.002 C 
ATOM     12  C   UNL     1      35.454 -19.072 -22.281  0.00  0.00    -0.002 C 
ATOM     13  H   UNL     1      35.130 -19.929 -18.879  0.00  0.00    -0.080 HD
ENDBRANCH   5   6
ENDBRANCH   4   5
ENDBRANCH   3   4
ENDBRANCH   2   3
BRANCH   2  14
ATOM     14  C   UNL     1      34.391 -24.223 -14.935  0.00  0.00    +0.122 C 
BRANCH  14  15
ATOM     15  C   UNL     1      33.005 -23.829 -14.430  0.00  0.00    +0.015 C 
ATOM     16  C   UNL     1      32.263 -25.052 -13.871  0.00  0.00    +0.001 C 
ATOM     17  C   UNL     1      32.191 -23.159 -15.544  0.00  0.00    +0.001 C 
ATOM     18  C   UNL     1      30.853 -24.693 -13.408  0.00  0.00    +0.000 C 
ATOM     19  C   UNL     1      30.781 -22.803 -15.078  0.00  0.00    +0.000 C 
ATOM     20  C   UNL     1      30.051 -24.019 -14.516  0.00  0.00    +0.000 C 
ENDBRANCH  14  15
BRANCH  14  22
ATOM     21  S   UNL     1      37.230 -25.731 -12.495  0.00  0.00    -0.086 S 
ATOM     22  C   UNL     1      35.316 -24.633 -13.810  0.00  0.00    -0.005 C 
ATOM     23  C   UNL     1      35.179 -24.186 -12.465  0.00  0.00    +0.004 C 
ATOM     24  C   UNL     1      36.392 -25.479 -13.967  0.00  0.00    +0.032 C 
ATOM     25  C   UNL     1      36.154 -24.707 -11.644  0.00  0.00    +0.035 C 
ENDBRANCH  14  22
ENDBRANCH   2  14
TORSDOF 7
ENDMDL
MODEL 6
REMARK VINA RESULT:      -8.6      3.702      9.691
REMARK  Name = 66384
REMARK  7 active torsions:
REMARK  status: ('A' for Active; 'I' for Inactive)
REMARK    1  A    between atoms: C_2  and  O_3
REMARK    2  A    between atoms: C_2  and  C_14
REMARK    3  A    between atoms: O_3  and  C_4
REMARK    4  A    between atoms: C_4  and  C_5
REMARK    5  A    between atoms: C_5  and  N_6
REMARK    6  A    between atoms: C_14  and  C_15
REMARK    7  A    between atoms: C_14  and  C_22
REMARK                            x       y       z     vdW  Elec       q    Type
REMARK                         _______ _______ _______ _____ _____    ______ ____
ROOT
ATOM      1  O   UNL     1      35.016 -15.756 -20.307  0.00  0.00    -0.250 OA
ATOM      2  C   UNL     1      34.025 -16.194 -20.879  0.00  0.00    +0.321 C 
ENDROOT
BRANCH   2   3
ATOM      3  O   UNL     1      32.848 -15.510 -21.040  0.00  0.00    -0.451 OA
BRANCH   3   4
ATOM      4  C   UNL     1      32.933 -14.092 -20.953  0.00  0.00    +0.186 C 
BRANCH   4   5
ATOM      5  C   UNL     1      32.143 -13.483 -22.099  0.00  0.00    -0.029 C 
BRANCH   5   6
ATOM      6  N   UNL     1      31.640 -12.155 -21.733  0.00  0.00    +0.389 N 
ATOM      7  C   UNL     1      32.338 -11.123 -22.511  0.00  0.00    -0.077 C 
ATOM      8  C   UNL     1      31.741 -11.980 -20.280  0.00  0.00    -0.077 C 
ATOM      9  C   UNL     1      31.553  -9.813 -22.560  0.00  0.00    -0.023 C 
ATOM     10  C   UNL     1      31.159 -10.674 -19.728  0.00  0.00    -0.023 C 
ATOM     11  C   UNL     1      31.807  -8.846 -21.408  0.00  0.00    -0.002 C 
ATOM     12  C   UNL     1      32.026  -9.459 -20.030  0.00  0.00    -0.002 C 
ATOM     13  H   UNL     1      30.652 -12.061 -21.969  0.00  0.00    -0.080 HD
ENDBRANCH   5   6
ENDBRANCH   4   5
ENDBRANCH   3   4
ENDBRANCH   2   3
BRANCH   2  14
ATOM     14  C   UNL     1      33.900 -17.594 -21.472  0.00  0.00    +0.122 C 
BRANCH  14  15
ATOM     15  C   UNL     1      34.714 -18.601 -20.664  0.00  0.00    +0.015 C 
ATOM     16  C   UNL     1      36.130 -18.742 -21.241  0.00  0.00    +0.001 C 
ATOM     17  C   UNL     1      34.005 -19.962 -20.618  0.00  0.00    +0.001 C 
ATOM     18  C   UNL     1      36.947 -19.784 -20.481  0.00  0.00    +0.000 C 
ATOM     19  C   UNL     1      34.827 -21.001 -19.859  0.00  0.00    +0.000 C 
ATOM     20  C   UNL     1      36.235 -21.132 -20.431  0.00  0.00    +0.000 C 
ENDBRANCH  14  15
BRANCH  14  22
ATOM     21  S   UNL     1      34.894 -16.856 -25.313  0.00  0.00    -0.086 S 
ATOM     22  C   UNL     1      34.260 -17.611 -22.941  0.00  0.00    -0.005 C 
ATOM     23  C   UNL     1      34.379 -18.800 -23.716  0.00  0.00    +0.004 C 
ATOM     24  C   UNL     1      34.514 -16.481 -23.686  0.00  0.00    +0.032 C 
ATOM     25  C   UNL     1      34.719 -18.534 -25.024  0.00  0.00    +0.035 C 
ENDBRANCH  14  22
ENDBRANCH   2  14
TORSDOF 7
ENDMDL
MODEL 7
REMARK VINA RESULT:      -8.6     10.372     15.238
REMARK  Name = 66384
REMARK  7 active torsions:
REMARK  status: ('A' for Active; 'I' for Inactive)
REMARK    1  A    between atoms: C_2  and  O_3
REMARK    2  A    between atoms: C_2  and  C_14
REMARK    3  A    between atoms: O_3  and  C_4
REMARK    4  A    between atoms: C_4  and  C_5
REMARK    5  A    between atoms: C_5  and  N_6
REMARK    6  A    between atoms: C_14  and  C_15
REMARK    7  A    between atoms: C_14  and  C_22
REMARK                            x       y       z     vdW  Elec       q    Type
REMARK                         _______ _______ _______ _____ _____    ______ ____
ROOT
ATOM      1  O   UNL     1      35.565 -22.173 -15.360  0.00  0.00    -0.250 OA
ATOM      2  C   UNL     1      34.958 -23.156 -15.767  0.00  0.00    +0.321 C 
ENDROOT
BRANCH   2   3
ATOM      3  O   UNL     1      34.670 -23.408 -17.084  0.00  0.00    -0.451 OA
BRANCH   3   4
ATOM      4  C   UNL     1      35.132 -22.441 -18.019  0.00  0.00    +0.186 C 
BRANCH   4   5
ATOM      5  C   UNL     1      34.055 -22.221 -19.068  0.00  0.00    -0.029 C 
BRANCH   5   6
ATOM      6  N   UNL     1      34.515 -21.279 -20.094  0.00  0.00    +0.389 N 
ATOM      7  C   UNL     1      35.777 -20.656 -19.672  0.00  0.00    -0.077 C 
ATOM      8  C   UNL     1      33.443 -20.321 -20.391  0.00  0.00    -0.077 C 
ATOM      9  C   UNL     1      36.551 -20.073 -20.853  0.00  0.00    -0.023 C 
ATOM     10  C   UNL     1      33.737 -19.328 -21.520  0.00  0.00    -0.023 C 
ATOM     11  C   UNL     1      36.193 -18.641 -21.237  0.00  0.00    -0.002 C 
ATOM     12  C   UNL     1      34.728 -18.243 -21.119  0.00  0.00    -0.002 C 
ATOM     13  H   UNL     1      34.721 -21.763 -20.968  0.00  0.00    -0.080 HD
ENDBRANCH   5   6
ENDBRANCH   4   5
ENDBRANCH   3   4
ENDBRANCH   2   3
BRANCH   2  14
ATOM     14  C   UNL     1      34.370 -24.254 -14.886  0.00  0.00    +0.122 C 
BRANCH  14  15
ATOM     15  C   UNL     1      32.987 -23.857 -14.374  0.00  0.00    +0.015 C 
ATOM     16  C   UNL     1      32.220 -25.088 -13.871  0.00  0.00    +0.001 C 
ATOM     17  C   UNL     1      32.193 -23.127 -15.465  0.00  0.00    +0.001 C 
ATOM     18  C   UNL     1      30.814 -24.724 -13.403  0.00  0.00    +0.000 C 
ATOM     19  C   UNL     1      30.786 -22.766 -14.994  0.00  0.00    +0.000 C 
ATOM     20  C   UNL     1      30.031 -23.991 -14.488  0.00  0.00    +0.000 C 
ENDBRANCH  14  15
BRANCH  14  22
ATOM     21  S   UNL     1      37.261 -25.668 -12.450  0.00  0.00    -0.086 S 
ATOM     22  C   UNL     1      35.311 -24.632 -13.763  0.00  0.00    -0.005 C 
ATOM     23  C   UNL     1      35.164 -24.185 -12.419  0.00  0.00    +0.004 C 
ATOM     24  C   UNL     1      36.411 -25.446 -13.920  0.00  0.00    +0.032 C 
ATOM     25  C   UNL     1      36.157 -24.674 -11.599  0.00  0.00    +0.035 C 
ENDBRANCH  14  22
ENDBRANCH   2  14
TORSDOF 7
ENDMDL
MODEL 8
REMARK VINA RESULT:      -8.4      2.893      4.853
REMARK  Name = 66384
REMARK  7 active torsions:
REMARK  status: ('A' for Active; 'I' for Inactive)
REMARK    1  A    between atoms: C_2  and  O_3
REMARK    2  A    between atoms: C_2  and  C_14
REMARK    3  A    between atoms: O_3  and  C_4
REMARK    4  A    between atoms: C_4  and  C_5
REMARK    5  A    between atoms: C_5  and  N_6
REMARK    6  A    between atoms: C_14  and  C_15
REMARK    7  A    between atoms: C_14  and  C_22
REMARK                            x       y       z     vdW  Elec       q    Type
REMARK                         _______ _______ _______ _____ _____    ______ ____
ROOT
ATOM      1  O   UNL     1      31.355 -12.347 -22.645  0.00  0.00    -0.250 OA
ATOM      2  C   UNL     1      32.567 -12.525 -22.621  0.00  0.00    +0.321 C 
ENDROOT
BRANCH   2   3
ATOM      3  O   UNL     1      33.243 -13.168 -21.616  0.00  0.00    -0.451 OA
BRANCH   3   4
ATOM      4  C   UNL     1      33.216 -14.590 -21.656  0.00  0.00    +0.186 C 
BRANCH   4   5
ATOM      5  C   UNL     1      34.517 -15.120 -21.075  0.00  0.00    -0.029 C 
BRANCH   5   6
ATOM      6  N   UNL     1      35.021 -16.243 -21.873  0.00  0.00    +0.389 N 
ATOM      7  C   UNL     1      34.182 -16.428 -23.064  0.00  0.00    -0.077 C 
ATOM      8  C   UNL     1      35.126 -17.435 -21.023  0.00  0.00    -0.077 C 
ATOM      9  C   UNL     1      34.905 -17.211 -24.159  0.00  0.00    -0.023 C 
ATOM     10  C   UNL     1      35.736 -18.672 -21.690  0.00  0.00    -0.023 C 
ATOM     11  C   UNL     1      34.787 -18.729 -24.073  0.00  0.00    -0.002 C 
ATOM     12  C   UNL     1      34.792 -19.343 -22.679  0.00  0.00    -0.002 C 
ATOM     13  H   UNL     1      35.960 -16.051 -22.220  0.00  0.00    -0.080 HD
ENDBRANCH   5   6
ENDBRANCH   4   5
ENDBRANCH   3   4
ENDBRANCH   2   3
BRANCH   2  14
ATOM     14  C   UNL     1      33.551 -12.024 -23.673  0.00  0.00    +0.122 C 
BRANCH  14  15
ATOM     15  C   UNL     1      33.421 -10.515 -23.863  0.00  0.00    +0.015 C 
ATOM     16  C   UNL     1      34.792  -9.881 -24.133  0.00  0.00    +0.001 C 
ATOM     17  C   UNL     1      32.751  -9.869 -22.643  0.00  0.00    +0.001 C 
ATOM     18  C   UNL     1      34.696  -8.365 -24.275  0.00  0.00    +0.000 C 
ATOM     19  C   UNL     1      32.658  -8.352 -22.786  0.00  0.00    +0.000 C 
ATOM     20  C   UNL     1      34.022  -7.728 -23.063  0.00  0.00    +0.000 C 
ENDBRANCH  14  15
BRANCH  14  22
ATOM     21  S   UNL     1      32.948 -14.643 -26.685  0.00  0.00    -0.086 S 
ATOM     22  C   UNL     1      33.408 -12.781 -24.975  0.00  0.00    -0.005 C 
ATOM     23  C   UNL     1      33.671 -12.216 -26.256  0.00  0.00    +0.004 C 
ATOM     24  C   UNL     1      33.006 -14.095 -25.063  0.00  0.00    +0.032 C 
ATOM     25  C   UNL     1      33.460 -13.120 -27.274  0.00  0.00    +0.035 C 
ENDBRANCH  14  22
ENDBRANCH   2  14
TORSDOF 7
ENDMDL
MODEL 9
REMARK VINA RESULT:      -8.4      5.473      8.731
REMARK  Name = 66384
REMARK  7 active torsions:
REMARK  status: ('A' for Active; 'I' for Inactive)
REMARK    1  A    between atoms: C_2  and  O_3
REMARK    2  A    between atoms: C_2  and  C_14
REMARK    3  A    between atoms: O_3  and  C_4
REMARK    4  A    between atoms: C_4  and  C_5
REMARK    5  A    between atoms: C_5  and  N_6
REMARK    6  A    between atoms: C_14  and  C_15
REMARK    7  A    between atoms: C_14  and  C_22
REMARK                            x       y       z     vdW  Elec       q    Type
REMARK                         _______ _______ _______ _____ _____    ______ ____
ROOT
ATOM      1  O   UNL     1      36.410 -18.261 -22.346  0.00  0.00    -0.250 OA
ATOM      2  C   UNL     1      35.232 -18.330 -22.675  0.00  0.00    +0.321 C 
ENDROOT
BRANCH   2   3
ATOM      3  O   UNL     1      34.772 -18.228 -23.963  0.00  0.00    -0.451 OA
BRANCH   3   4
ATOM      4  C   UNL     1      34.894 -16.947 -24.569  0.00  0.00    +0.186 C 
BRANCH   4   5
ATOM      5  C   UNL     1      33.721 -16.740 -25.514  0.00  0.00    -0.029 C 
BRANCH   5   6
ATOM      6  N   UNL     1      33.277 -15.342 -25.490  0.00  0.00    +0.389 N 
ATOM      7  C   UNL     1      33.823 -14.624 -26.649  0.00  0.00    -0.077 C 
ATOM      8  C   UNL     1      33.625 -14.744 -24.196  0.00  0.00    -0.077 C 
ATOM      9  C   UNL     1      33.030 -13.355 -26.962  0.00  0.00    -0.023 C 
ATOM     10  C   UNL     1      33.135 -13.309 -23.978  0.00  0.00    -0.023 C 
ATOM     11  C   UNL     1      33.470 -12.100 -26.216  0.00  0.00    -0.002 C 
ATOM     12  C   UNL     1      33.927 -12.280 -24.774  0.00  0.00    -0.002 C 
ATOM     13  H   UNL     1      32.263 -15.281 -25.575  0.00  0.00    -0.080 HD
ENDBRANCH   5   6
ENDBRANCH   4   5
ENDBRANCH   3   4
ENDBRANCH   2   3
BRANCH   2  14
ATOM     14  C   UNL     1      34.059 -18.495 -21.714  0.00  0.00    +0.122 C 
BRANCH  14  15
ATOM     15  C   UNL     1      33.859 -17.231 -20.881  0.00  0.00    +0.015 C 
ATOM     16  C   UNL     1      32.420 -16.714 -21.016  0.00  0.00    +0.001 C 
ATOM     17  C   UNL     1      34.868 -16.148 -21.286  0.00  0.00    +0.001 C 
ATOM     18  C   UNL     1      32.209 -15.420 -20.234  0.00  0.00    +0.000 C 
ATOM     19  C   UNL     1      34.653 -14.854 -20.502  0.00  0.00    +0.000 C 
ATOM     20  C   UNL     1      33.220 -14.350 -20.633  0.00  0.00    +0.000 C 
ENDBRANCH  14  15
BRANCH  14  22
ATOM     21  S   UNL     1      35.236 -21.687 -19.542  0.00  0.00    -0.086 S 
ATOM     22  C   UNL     1      34.211 -19.730 -20.854  0.00  0.00    -0.005 C 
ATOM     23  C   UNL     1      33.116 -20.437 -20.280  0.00  0.00    +0.004 C 
ATOM     24  C   UNL     1      35.422 -20.302 -20.533  0.00  0.00    +0.032 C 
ATOM     25  C   UNL     1      33.532 -21.523 -19.541  0.00  0.00    +0.035 C 
ENDBRANCH  14  22
ENDBRANCH   2  14
TORSDOF 7
ENDMDL
