MODEL 1
REMARK VINA RESULT:      -5.6      0.000      0.000
REMARK  Name = 448009
REMARK  10 active torsions:
REMARK  status: ('A' for Active; 'I' for Inactive)
REMARK    1  A    between atoms: C_1  and  N_2
REMARK    2  A    between atoms: C_1  and  C_6
REMARK    3  A    between atoms: C_1  and  C_10
REMARK    4  A    between atoms: C_1  and  C_14
REMARK    5  A    between atoms: C_6  and  C_7
REMARK    6  A    between atoms: C_7  and  O_8
REMARK    7  A    between atoms: C_10  and  C_11
REMARK    8  A    between atoms: C_11  and  O_12
REMARK    9  A    between atoms: C_14  and  C_15
REMARK   10  A    between atoms: C_15  and  O_16
REMARK                            x       y       z     vdW  Elec       q    Type
REMARK                         _______ _______ _______ _____ _____    ______ ____
ROOT
ATOM      1  C   UNL     1      37.782 -24.619 -14.564  0.00  0.00    -0.042 C 
ENDROOT
BRANCH   1   2
ATOM      2  N   UNL     1      38.220 -23.772 -15.687  0.00  0.00    +0.383 N 
ATOM      3  H   UNL     1      37.914 -22.812 -15.529  0.00  0.00    -0.089 HD
ATOM      4  H   UNL     1      37.813 -24.121 -16.555  0.00  0.00    -0.089 HD
ATOM      5  H   UNL     1      39.238 -23.798 -15.755  0.00  0.00    -0.089 HD
ENDBRANCH   1   2
BRANCH   1   6
ATOM      6  C   UNL     1      38.937 -25.580 -14.170  0.00  0.00    +0.012 C 
BRANCH   6   7
ATOM      7  C   UNL     1      40.300 -25.293 -14.798  0.00  0.00    +0.135 C 
BRANCH   7   8
ATOM      8  O   UNL     1      40.357 -25.935 -16.067  0.00  0.00    -0.382 OA
ATOM      9  H   UNL     1      39.555 -26.464 -16.198  0.00  0.00    +0.210 HD
ENDBRANCH   7   8
ENDBRANCH   6   7
ENDBRANCH   1   6
BRANCH   1  10
ATOM     10  C   UNL     1      36.594 -25.488 -15.064  0.00  0.00    +0.012 C 
BRANCH  10  11
ATOM     11  C   UNL     1      36.850 -26.993 -15.133  0.00  0.00    +0.135 C 
BRANCH  11  12
ATOM     12  O   UNL     1      36.804 -27.398 -16.496  0.00  0.00    -0.382 OA
ATOM     13  H   UNL     1      37.677 -27.720 -16.767  0.00  0.00    +0.210 HD
ENDBRANCH  11  12
ENDBRANCH  10  11
ENDBRANCH   1  10
BRANCH   1  14
ATOM     14  C   UNL     1      37.377 -23.669 -13.410  0.00  0.00    +0.012 C 
BRANCH  14  15
ATOM     15  C   UNL     1      37.955 -24.024 -12.042  0.00  0.00    +0.135 C 
BRANCH  15  16
ATOM     16  O   UNL     1      38.756 -22.936 -11.594  0.00  0.00    -0.382 OA
ATOM     17  H   UNL     1      38.674 -22.196 -12.216  0.00  0.00    +0.210 HD
ENDBRANCH  15  16
ENDBRANCH  14  15
ENDBRANCH   1  14
TORSDOF 10
ENDMDL
MODEL 2
REMARK VINA RESULT:      -5.6      0.066      3.841
REMARK  Name = 448009
REMARK  10 active torsions:
REMARK  status: ('A' for Active; 'I' for Inactive)
REMARK    1  A    between atoms: C_1  and  N_2
REMARK    2  A    between atoms: C_1  and  C_6
REMARK    3  A    between atoms: C_1  and  C_10
REMARK    4  A    between atoms: C_1  and  C_14
REMARK    5  A    between atoms: C_6  and  C_7
REMARK    6  A    between atoms: C_7  and  O_8
REMARK    7  A    between atoms: C_10  and  C_11
REMARK    8  A    between atoms: C_11  and  O_12
REMARK    9  A    between atoms: C_14  and  C_15
REMARK   10  A    between atoms: C_15  and  O_16
REMARK                            x       y       z     vdW  Elec       q    Type
REMARK                         _______ _______ _______ _____ _____    ______ ____
ROOT
ATOM      1  C   UNL     1      37.789 -24.622 -14.574  0.00  0.00    -0.042 C 
ENDROOT
BRANCH   1   2
ATOM      2  N   UNL     1      38.242 -23.790 -15.701  0.00  0.00    +0.383 N 
ATOM      3  H   UNL     1      39.004 -24.262 -16.189  0.00  0.00    -0.089 HD
ATOM      4  H   UNL     1      38.569 -22.890 -15.349  0.00  0.00    -0.089 HD
ATOM      5  H   UNL     1      37.466 -23.640 -16.347  0.00  0.00    -0.089 HD
ENDBRANCH   1   2
BRANCH   1   6
ATOM      6  C   UNL     1      37.408 -23.701 -13.381  0.00  0.00    +0.012 C 
BRANCH   6   7
ATOM      7  C   UNL     1      37.992 -24.080 -12.021  0.00  0.00    +0.135 C 
BRANCH   7   8
ATOM      8  O   UNL     1      38.859 -23.034 -11.595  0.00  0.00    -0.382 OA
ATOM      9  H   UNL     1      39.603 -22.960 -12.211  0.00  0.00    +0.210 HD
ENDBRANCH   7   8
ENDBRANCH   6   7
ENDBRANCH   1   6
BRANCH   1  10
ATOM     10  C   UNL     1      38.988 -25.504 -14.126  0.00  0.00    +0.012 C 
BRANCH  10  11
ATOM     11  C   UNL     1      40.321 -25.219 -14.818  0.00  0.00    +0.135 C 
BRANCH  11  12
ATOM     12  O   UNL     1      40.361 -25.946 -16.041  0.00  0.00    -0.382 OA
ATOM     13  H   UNL     1      40.798 -25.411 -16.721  0.00  0.00    +0.210 HD
ENDBRANCH  11  12
ENDBRANCH  10  11
ENDBRANCH   1  10
BRANCH   1  14
ATOM     14  C   UNL     1      36.591 -25.463 -15.081  0.00  0.00    +0.012 C 
BRANCH  14  15
ATOM     15  C   UNL     1      36.829 -26.971 -15.130  0.00  0.00    +0.135 C 
BRANCH  15  16
ATOM     16  O   UNL     1      36.799 -27.389 -16.490  0.00  0.00    -0.382 OA
ATOM     17  H   UNL     1      37.007 -26.636 -17.066  0.00  0.00    +0.210 HD
ENDBRANCH  15  16
ENDBRANCH  14  15
ENDBRANCH   1  14
TORSDOF 10
ENDMDL
MODEL 3
REMARK VINA RESULT:      -5.5      0.890      3.977
REMARK  Name = 448009
REMARK  10 active torsions:
REMARK  status: ('A' for Active; 'I' for Inactive)
REMARK    1  A    between atoms: C_1  and  N_2
REMARK    2  A    between atoms: C_1  and  C_6
REMARK    3  A    between atoms: C_1  and  C_10
REMARK    4  A    between atoms: C_1  and  C_14
REMARK    5  A    between atoms: C_6  and  C_7
REMARK    6  A    between atoms: C_7  and  O_8
REMARK    7  A    between atoms: C_10  and  C_11
REMARK    8  A    between atoms: C_11  and  O_12
REMARK    9  A    between atoms: C_14  and  C_15
REMARK   10  A    between atoms: C_15  and  O_16
REMARK                            x       y       z     vdW  Elec       q    Type
REMARK                         _______ _______ _______ _____ _____    ______ ____
ROOT
ATOM      1  C   UNL     1      38.228 -25.482 -13.619  0.00  0.00    -0.042 C 
ENDROOT
BRANCH   1   2
ATOM      2  N   UNL     1      37.943 -24.317 -14.474  0.00  0.00    +0.383 N 
ATOM      3  H   UNL     1      38.235 -23.464 -13.996  0.00  0.00    -0.089 HD
ATOM      4  H   UNL     1      36.942 -24.273 -14.666  0.00  0.00    -0.089 HD
ATOM      5  H   UNL     1      38.455 -24.406 -15.352  0.00  0.00    -0.089 HD
ENDBRANCH   1   2
BRANCH   1   6
ATOM      6  C   UNL     1      37.330 -26.671 -14.062  0.00  0.00    +0.012 C 
BRANCH   6   7
ATOM      7  C   UNL     1      36.449 -26.432 -15.287  0.00  0.00    +0.135 C 
BRANCH   7   8
ATOM      8  O   UNL     1      36.863 -27.319 -16.321  0.00  0.00    -0.382 OA
ATOM      9  H   UNL     1      36.228 -27.282 -17.053  0.00  0.00    +0.210 HD
ENDBRANCH   7   8
ENDBRANCH   6   7
ENDBRANCH   1   6
BRANCH   1  10
ATOM     10  C   UNL     1      37.832 -25.108 -12.164  0.00  0.00    +0.012 C 
BRANCH  10  11
ATOM     11  C   UNL     1      37.429 -23.651 -11.935  0.00  0.00    +0.135 C 
BRANCH  11  12
ATOM     12  O   UNL     1      38.604 -22.893 -11.668  0.00  0.00    -0.382 OA
ATOM     13  H   UNL     1      39.270 -23.465 -11.255  0.00  0.00    +0.210 HD
ENDBRANCH  11  12
ENDBRANCH  10  11
ENDBRANCH   1  10
BRANCH   1  14
ATOM     14  C   UNL     1      39.739 -25.793 -13.761  0.00  0.00    +0.012 C 
BRANCH  14  15
ATOM     15  C   UNL     1      40.439 -25.099 -14.926  0.00  0.00    +0.135 C 
BRANCH  15  16
ATOM     16  O   UNL     1      40.300 -25.910 -16.087  0.00  0.00    -0.382 OA
ATOM     17  H   UNL     1      40.943 -25.630 -16.757  0.00  0.00    +0.210 HD
ENDBRANCH  15  16
ENDBRANCH  14  15
ENDBRANCH   1  14
TORSDOF 10
ENDMDL
MODEL 4
REMARK VINA RESULT:      -5.2      2.177      3.926
REMARK  Name = 448009
REMARK  10 active torsions:
REMARK  status: ('A' for Active; 'I' for Inactive)
REMARK    1  A    between atoms: C_1  and  N_2
REMARK    2  A    between atoms: C_1  and  C_6
REMARK    3  A    between atoms: C_1  and  C_10
REMARK    4  A    between atoms: C_1  and  C_14
REMARK    5  A    between atoms: C_6  and  C_7
REMARK    6  A    between atoms: C_7  and  O_8
REMARK    7  A    between atoms: C_10  and  C_11
REMARK    8  A    between atoms: C_11  and  O_12
REMARK    9  A    between atoms: C_14  and  C_15
REMARK   10  A    between atoms: C_15  and  O_16
REMARK                            x       y       z     vdW  Elec       q    Type
REMARK                         _______ _______ _______ _____ _____    ______ ____
ROOT
ATOM      1  C   UNL     1      37.505 -25.051 -13.058  0.00  0.00    -0.042 C 
ENDROOT
BRANCH   1   2
ATOM      2  N   UNL     1      37.001 -26.422 -12.871  0.00  0.00    +0.383 N 
ATOM      3  H   UNL     1      35.985 -26.427 -12.963  0.00  0.00    -0.089 HD
ATOM      4  H   UNL     1      37.261 -26.756 -11.942  0.00  0.00    -0.089 HD
ATOM      5  H   UNL     1      37.409 -27.034 -13.578  0.00  0.00    -0.089 HD
ENDBRANCH   1   2
BRANCH   1   6
ATOM      6  C   UNL     1      37.032 -24.168 -11.869  0.00  0.00    +0.012 C 
BRANCH   6   7
ATOM      7  C   UNL     1      35.540 -24.214 -11.544  0.00  0.00    +0.135 C 
BRANCH   7   8
ATOM      8  O   UNL     1      35.326 -25.205 -10.545  0.00  0.00    -0.382 OA
ATOM      9  H   UNL     1      34.597 -24.930  -9.968  0.00  0.00    +0.210 HD
ENDBRANCH   7   8
ENDBRANCH   6   7
ENDBRANCH   1   6
BRANCH   1  10
ATOM     10  C   UNL     1      36.860 -24.484 -14.353  0.00  0.00    +0.012 C 
BRANCH  10  11
ATOM     11  C   UNL     1      35.860 -25.401 -15.058  0.00  0.00    +0.135 C 
BRANCH  11  12
ATOM     12  O   UNL     1      36.585 -26.367 -15.811  0.00  0.00    -0.382 OA
ATOM     13  H   UNL     1      37.397 -25.965 -16.157  0.00  0.00    +0.210 HD
ENDBRANCH  11  12
ENDBRANCH  10  11
ENDBRANCH   1  10
BRANCH   1  14
ATOM     14  C   UNL     1      39.048 -25.142 -13.155  0.00  0.00    +0.012 C 
BRANCH  14  15
ATOM     15  C   UNL     1      39.593 -25.531 -14.526  0.00  0.00    +0.135 C 
BRANCH  15  16
ATOM     16  O   UNL     1      39.305 -26.905 -14.755  0.00  0.00    -0.382 OA
ATOM     17  H   UNL     1      38.444 -26.987 -15.196  0.00  0.00    +0.210 HD
ENDBRANCH  15  16
ENDBRANCH  14  15
ENDBRANCH   1  14
TORSDOF 10
ENDMDL
MODEL 5
REMARK VINA RESULT:      -5.0      2.335      3.651
REMARK  Name = 448009
REMARK  10 active torsions:
REMARK  status: ('A' for Active; 'I' for Inactive)
REMARK    1  A    between atoms: C_1  and  N_2
REMARK    2  A    between atoms: C_1  and  C_6
REMARK    3  A    between atoms: C_1  and  C_10
REMARK    4  A    between atoms: C_1  and  C_14
REMARK    5  A    between atoms: C_6  and  C_7
REMARK    6  A    between atoms: C_7  and  O_8
REMARK    7  A    between atoms: C_10  and  C_11
REMARK    8  A    between atoms: C_11  and  O_12
REMARK    9  A    between atoms: C_14  and  C_15
REMARK   10  A    between atoms: C_15  and  O_16
REMARK                            x       y       z     vdW  Elec       q    Type
REMARK                         _______ _______ _______ _____ _____    ______ ____
ROOT
ATOM      1  C   UNL     1      37.612 -25.232 -13.145  0.00  0.00    -0.042 C 
ENDROOT
BRANCH   1   2
ATOM      2  N   UNL     1      36.947 -26.535 -12.968  0.00  0.00    +0.383 N 
ATOM      3  H   UNL     1      36.544 -26.835 -13.856  0.00  0.00    -0.089 HD
ATOM      4  H   UNL     1      36.208 -26.447 -12.271  0.00  0.00    -0.089 HD
ATOM      5  H   UNL     1      37.630 -27.226 -12.654  0.00  0.00    -0.089 HD
ENDBRANCH   1   2
BRANCH   1   6
ATOM      6  C   UNL     1      39.135 -25.462 -13.350  0.00  0.00    +0.012 C 
BRANCH   6   7
ATOM      7  C   UNL     1      39.664 -25.259 -14.769  0.00  0.00    +0.135 C 
BRANCH   7   8
ATOM      8  O   UNL     1      41.039 -24.896 -14.691  0.00  0.00    -0.382 OA
ATOM      9  H   UNL     1      41.190 -24.089 -15.207  0.00  0.00    +0.210 HD
ENDBRANCH   7   8
ENDBRANCH   6   7
ENDBRANCH   1   6
BRANCH   1  10
ATOM     10  C   UNL     1      37.429 -24.427 -11.828  0.00  0.00    +0.012 C 
BRANCH  10  11
ATOM     11  C   UNL     1      35.993 -24.036 -11.478  0.00  0.00    +0.135 C 
BRANCH  11  12
ATOM     12  O   UNL     1      35.406 -25.095 -10.730  0.00  0.00    -0.382 OA
ATOM     13  H   UNL     1      34.952 -25.704 -11.333  0.00  0.00    +0.210 HD
ENDBRANCH  11  12
ENDBRANCH  10  11
ENDBRANCH   1  10
BRANCH   1  14
ATOM     14  C   UNL     1      36.945 -24.542 -14.360  0.00  0.00    +0.012 C 
BRANCH  14  15
ATOM     15  C   UNL     1      35.894 -25.377 -15.087  0.00  0.00    +0.135 C 
BRANCH  15  16
ATOM     16  O   UNL     1      34.641 -25.193 -14.438  0.00  0.00    -0.382 OA
ATOM     17  H   UNL     1      33.925 -25.272 -15.088  0.00  0.00    +0.210 HD
ENDBRANCH  15  16
ENDBRANCH  14  15
ENDBRANCH   1  14
TORSDOF 10
ENDMDL
MODEL 6
REMARK VINA RESULT:      -4.9      2.309      3.572
REMARK  Name = 448009
REMARK  10 active torsions:
REMARK  status: ('A' for Active; 'I' for Inactive)
REMARK    1  A    between atoms: C_1  and  N_2
REMARK    2  A    between atoms: C_1  and  C_6
REMARK    3  A    between atoms: C_1  and  C_10
REMARK    4  A    between atoms: C_1  and  C_14
REMARK    5  A    between atoms: C_6  and  C_7
REMARK    6  A    between atoms: C_7  and  O_8
REMARK    7  A    between atoms: C_10  and  C_11
REMARK    8  A    between atoms: C_11  and  O_12
REMARK    9  A    between atoms: C_14  and  C_15
REMARK   10  A    between atoms: C_15  and  O_16
REMARK                            x       y       z     vdW  Elec       q    Type
REMARK                         _______ _______ _______ _____ _____    ______ ____
ROOT
ATOM      1  C   UNL     1      37.598 -25.275 -13.474  0.00  0.00    -0.042 C 
ENDROOT
BRANCH   1   2
ATOM      2  N   UNL     1      36.984 -26.543 -13.042  0.00  0.00    +0.383 N 
ATOM      3  H   UNL     1      37.676 -27.291 -13.094  0.00  0.00    -0.089 HD
ATOM      4  H   UNL     1      36.197 -26.765 -13.652  0.00  0.00    -0.089 HD
ATOM      5  H   UNL     1      36.654 -26.451 -12.081  0.00  0.00    -0.089 HD
ENDBRANCH   1   2
BRANCH   1   6
ATOM      6  C   UNL     1      37.210 -25.001 -14.954  0.00  0.00    +0.012 C 
BRANCH   6   7
ATOM      7  C   UNL     1      35.820 -24.414 -15.192  0.00  0.00    +0.135 C 
BRANCH   7   8
ATOM      8  O   UNL     1      34.850 -25.367 -14.769  0.00  0.00    -0.382 OA
ATOM      9  H   UNL     1      33.984 -24.936 -14.695  0.00  0.00    +0.210 HD
ENDBRANCH   7   8
ENDBRANCH   6   7
ENDBRANCH   1   6
BRANCH   1  10
ATOM     10  C   UNL     1      39.140 -25.454 -13.415  0.00  0.00    +0.012 C 
BRANCH  10  11
ATOM     11  C   UNL     1      39.851 -25.575 -14.763  0.00  0.00    +0.135 C 
BRANCH  11  12
ATOM     12  O   UNL     1      40.887 -26.544 -14.643  0.00  0.00    -0.382 OA
ATOM     13  H   UNL     1      40.830 -26.971 -13.774  0.00  0.00    +0.210 HD
ENDBRANCH  11  12
ENDBRANCH  10  11
ENDBRANCH   1  10
BRANCH   1  14
ATOM     14  C   UNL     1      37.091 -24.173 -12.512  0.00  0.00    +0.012 C 
BRANCH  14  15
ATOM     15  C   UNL     1      36.197 -24.662 -11.375  0.00  0.00    +0.135 C 
BRANCH  15  16
ATOM     16  O   UNL     1      34.906 -24.944 -11.903  0.00  0.00    -0.382 OA
ATOM     17  H   UNL     1      34.952 -24.974 -12.872  0.00  0.00    +0.210 HD
ENDBRANCH  15  16
ENDBRANCH  14  15
ENDBRANCH   1  14
TORSDOF 10
ENDMDL
MODEL 7
REMARK VINA RESULT:      -4.9     11.061     11.912
REMARK  Name = 448009
REMARK  10 active torsions:
REMARK  status: ('A' for Active; 'I' for Inactive)
REMARK    1  A    between atoms: C_1  and  N_2
REMARK    2  A    between atoms: C_1  and  C_6
REMARK    3  A    between atoms: C_1  and  C_10
REMARK    4  A    between atoms: C_1  and  C_14
REMARK    5  A    between atoms: C_6  and  C_7
REMARK    6  A    between atoms: C_7  and  O_8
REMARK    7  A    between atoms: C_10  and  C_11
REMARK    8  A    between atoms: C_11  and  O_12
REMARK    9  A    between atoms: C_14  and  C_15
REMARK   10  A    between atoms: C_15  and  O_16
REMARK                            x       y       z     vdW  Elec       q    Type
REMARK                         _______ _______ _______ _____ _____    ______ ____
ROOT
ATOM      1  C   UNL     1      35.005 -18.139 -22.883  0.00  0.00    -0.042 C 
ENDROOT
BRANCH   1   2
ATOM      2  N   UNL     1      36.469 -18.162 -22.721  0.00  0.00    +0.383 N 
ATOM      3  H   UNL     1      36.706 -18.582 -21.821  0.00  0.00    -0.089 HD
ATOM      4  H   UNL     1      36.830 -17.208 -22.757  0.00  0.00    -0.089 HD
ATOM      5  H   UNL     1      36.886 -18.712 -23.472  0.00  0.00    -0.089 HD
ENDBRANCH   1   2
BRANCH   1   6
ATOM      6  C   UNL     1      34.478 -16.716 -22.546  0.00  0.00    +0.012 C 
BRANCH   6   7
ATOM      7  C   UNL     1      34.031 -16.484 -21.104  0.00  0.00    +0.135 C 
BRANCH   7   8
ATOM      8  O   UNL     1      35.189 -16.357 -20.287  0.00  0.00    -0.382 OA
ATOM      9  H   UNL     1      35.868 -16.980 -20.589  0.00  0.00    +0.210 HD
ENDBRANCH   7   8
ENDBRANCH   6   7
ENDBRANCH   1   6
BRANCH   1  10
ATOM     10  C   UNL     1      34.400 -19.125 -21.845  0.00  0.00    +0.012 C 
BRANCH  10  11
ATOM     11  C   UNL     1      35.399 -20.024 -21.117  0.00  0.00    +0.135 C 
BRANCH  11  12
ATOM     12  O   UNL     1      36.102 -19.238 -20.160  0.00  0.00    -0.382 OA
ATOM     13  H   UNL     1      36.444 -18.438 -20.589  0.00  0.00    +0.210 HD
ENDBRANCH  11  12
ENDBRANCH  10  11
ENDBRANCH   1  10
BRANCH   1  14
ATOM     14  C   UNL     1      34.702 -18.556 -24.343  0.00  0.00    +0.012 C 
BRANCH  14  15
ATOM     15  C   UNL     1      34.152 -17.447 -25.236  0.00  0.00    +0.135 C 
BRANCH  15  16
ATOM     16  O   UNL     1      35.246 -16.774 -25.849  0.00  0.00    -0.382 OA
ATOM     17  H   UNL     1      35.757 -16.304 -25.172  0.00  0.00    +0.210 HD
ENDBRANCH  15  16
ENDBRANCH  14  15
ENDBRANCH   1  14
TORSDOF 10
ENDMDL
MODEL 8
REMARK VINA RESULT:      -4.9     11.075     11.760
REMARK  Name = 448009
REMARK  10 active torsions:
REMARK  status: ('A' for Active; 'I' for Inactive)
REMARK    1  A    between atoms: C_1  and  N_2
REMARK    2  A    between atoms: C_1  and  C_6
REMARK    3  A    between atoms: C_1  and  C_10
REMARK    4  A    between atoms: C_1  and  C_14
REMARK    5  A    between atoms: C_6  and  C_7
REMARK    6  A    between atoms: C_7  and  O_8
REMARK    7  A    between atoms: C_10  and  C_11
REMARK    8  A    between atoms: C_11  and  O_12
REMARK    9  A    between atoms: C_14  and  C_15
REMARK   10  A    between atoms: C_15  and  O_16
REMARK                            x       y       z     vdW  Elec       q    Type
REMARK                         _______ _______ _______ _____ _____    ______ ____
ROOT
ATOM      1  C   UNL     1      35.012 -18.174 -22.885  0.00  0.00    -0.042 C 
ENDROOT
BRANCH   1   2
ATOM      2  N   UNL     1      36.477 -18.188 -22.731  0.00  0.00    +0.383 N 
ATOM      3  H   UNL     1      36.720 -18.579 -21.821  0.00  0.00    -0.089 HD
ATOM      4  H   UNL     1      36.835 -17.235 -22.798  0.00  0.00    -0.089 HD
ATOM      5  H   UNL     1      36.891 -18.759 -23.468  0.00  0.00    -0.089 HD
ENDBRANCH   1   2
BRANCH   1   6
ATOM      6  C   UNL     1      34.652 -18.497 -24.362  0.00  0.00    +0.012 C 
BRANCH   6   7
ATOM      7  C   UNL     1      34.152 -17.327 -25.208  0.00  0.00    +0.135 C 
BRANCH   7   8
ATOM      8  O   UNL     1      35.267 -16.737 -25.868  0.00  0.00    -0.382 OA
ATOM      9  H   UNL     1      35.236 -16.955 -26.812  0.00  0.00    +0.210 HD
ENDBRANCH   7   8
ENDBRANCH   6   7
ENDBRANCH   1   6
BRANCH   1  10
ATOM     10  C   UNL     1      34.520 -16.731 -22.584  0.00  0.00    +0.012 C 
BRANCH  10  11
ATOM     11  C   UNL     1      34.046 -16.471 -21.154  0.00  0.00    +0.135 C 
BRANCH  11  12
ATOM     12  O   UNL     1      35.187 -16.386 -20.308  0.00  0.00    -0.382 OA
ATOM     13  H   UNL     1      35.527 -15.478 -20.315  0.00  0.00    +0.210 HD
ENDBRANCH  11  12
ENDBRANCH  10  11
ENDBRANCH   1  10
BRANCH   1  14
ATOM     14  C   UNL     1      34.440 -19.215 -21.892  0.00  0.00    +0.012 C 
BRANCH  14  15
ATOM     15  C   UNL     1      35.481 -20.050 -21.151  0.00  0.00    +0.135 C 
BRANCH  15  16
ATOM     16  O   UNL     1      36.096 -19.233 -20.161  0.00  0.00    -0.382 OA
ATOM     17  H   UNL     1      35.859 -18.304 -20.315  0.00  0.00    +0.210 HD
ENDBRANCH  15  16
ENDBRANCH  14  15
ENDBRANCH   1  14
TORSDOF 10
ENDMDL
MODEL 9
REMARK VINA RESULT:      -4.8      2.974      4.149
REMARK  Name = 448009
REMARK  10 active torsions:
REMARK  status: ('A' for Active; 'I' for Inactive)
REMARK    1  A    between atoms: C_1  and  N_2
REMARK    2  A    between atoms: C_1  and  C_6
REMARK    3  A    between atoms: C_1  and  C_10
REMARK    4  A    between atoms: C_1  and  C_14
REMARK    5  A    between atoms: C_6  and  C_7
REMARK    6  A    between atoms: C_7  and  O_8
REMARK    7  A    between atoms: C_10  and  C_11
REMARK    8  A    between atoms: C_11  and  O_12
REMARK    9  A    between atoms: C_14  and  C_15
REMARK   10  A    between atoms: C_15  and  O_16
REMARK                            x       y       z     vdW  Elec       q    Type
REMARK                         _______ _______ _______ _____ _____    ______ ____
ROOT
ATOM      1  C   UNL     1      35.969 -24.417 -13.800  0.00  0.00    -0.042 C 
ENDROOT
BRANCH   1   2
ATOM      2  N   UNL     1      36.162 -25.814 -13.373  0.00  0.00    +0.383 N 
ATOM      3  H   UNL     1      36.514 -26.364 -14.156  0.00  0.00    -0.089 HD
ATOM      4  H   UNL     1      35.271 -26.199 -13.059  0.00  0.00    -0.089 HD
ATOM      5  H   UNL     1      36.835 -25.845 -12.606  0.00  0.00    -0.089 HD
ENDBRANCH   1   2
BRANCH   1   6
ATOM      6  C   UNL     1      34.642 -24.309 -14.601  0.00  0.00    +0.012 C 
BRANCH   6   7
ATOM      7  C   UNL     1      33.394 -23.949 -13.798  0.00  0.00    +0.135 C 
BRANCH   7   8
ATOM      8  O   UNL     1      33.047 -25.061 -12.980  0.00  0.00    -0.382 OA
ATOM      9  H   UNL     1      32.977 -25.857 -13.530  0.00  0.00    +0.210 HD
ENDBRANCH   7   8
ENDBRANCH   6   7
ENDBRANCH   1   6
BRANCH   1  10
ATOM     10  C   UNL     1      37.134 -24.053 -14.762  0.00  0.00    +0.012 C 
BRANCH  10  11
ATOM     11  C   UNL     1      38.370 -24.949 -14.685  0.00  0.00    +0.135 C 
BRANCH  11  12
ATOM     12  O   UNL     1      38.160 -26.081 -15.522  0.00  0.00    -0.382 OA
ATOM     13  H   UNL     1      37.761 -25.795 -16.358  0.00  0.00    +0.210 HD
ENDBRANCH  11  12
ENDBRANCH  10  11
ENDBRANCH   1  10
BRANCH   1  14
ATOM     14  C   UNL     1      35.964 -23.546 -12.519  0.00  0.00    +0.012 C 
BRANCH  14  15
ATOM     15  C   UNL     1      36.351 -24.274 -11.235  0.00  0.00    +0.135 C 
BRANCH  15  16
ATOM     16  O   UNL     1      35.209 -24.968 -10.746  0.00  0.00    -0.382 OA
ATOM     17  H   UNL     1      34.406 -24.570 -11.116  0.00  0.00    +0.210 HD
ENDBRANCH  15  16
ENDBRANCH  14  15
ENDBRANCH   1  14
TORSDOF 10
ENDMDL
