MODEL 1
REMARK VINA RESULT:      -6.3      0.000      0.000
REMARK  Name = 46937032
REMARK  8 active torsions:
REMARK  status: ('A' for Active; 'I' for Inactive)
REMARK    1  A    between atoms: C_1  and  C_4
REMARK    2  A    between atoms: C_1  and  O_8
REMARK    3  A    between atoms: C_2  and  O_10
REMARK    4  A    between atoms: C_4  and  C_5
REMARK    5  A    between atoms: C_5  and  C_6
REMARK    6  A    between atoms: O_10  and  P_11
REMARK    7  A    between atoms: P_11  and  O_13
REMARK    8  A    between atoms: P_11  and  O_15
REMARK                            x       y       z     vdW  Elec       q    Type
REMARK                         _______ _______ _______ _____ _____    ______ ____
ROOT
ATOM      1  C   UNL     1      36.989 -25.469 -12.456  0.00  0.00    +0.207 C 
ATOM      2  C   UNL     1      38.125 -24.813 -12.719  0.00  0.00    +0.222 C 
ENDROOT
BRANCH   1   4
ATOM      3  O   UNL     1      35.407 -25.090 -10.755  0.00  0.00    -0.288 OA
ATOM      4  C   UNL     1      35.788 -24.781 -11.885  0.00  0.00    +0.210 C 
BRANCH   4   5
ATOM      5  C   UNL     1      35.072 -23.724 -12.714  0.00  0.00    +0.073 C 
BRANCH   5   6
ATOM      6  C   UNL     1      34.553 -24.281 -14.039  0.00  0.00    +0.008 C 
ATOM      7  C   UNL     1      35.199 -23.588 -15.227  0.00  0.00    +0.000 C 
ENDBRANCH   5   6
ENDBRANCH   4   5
ENDBRANCH   1   4
BRANCH   1   8
ATOM      8  O   UNL     1      36.853 -26.822 -12.697  0.00  0.00    -0.501 OA
ATOM      9  H   UNL     1      37.567 -27.308 -13.061  0.00  0.00    +0.292 HD
ENDBRANCH   1   8
BRANCH   2  10
ATOM     10  O   UNL     1      39.234 -25.424 -13.241  0.00  0.00    -0.396 OA
BRANCH  10  11
ATOM     11  P   UNL     1      39.508 -25.531 -14.822  0.00  0.00    +0.528 P 
ATOM     12  O   UNL     1      40.871 -26.009 -15.228  0.00  0.00    -0.216 OA
BRANCH  11  13
ATOM     13  O   UNL     1      38.282 -26.427 -15.380  0.00  0.00    -0.293 OA
ATOM     14  H   UNL     1      37.532 -26.367 -14.767  0.00  0.00    +0.223 HD
ENDBRANCH  11  13
BRANCH  11  15
ATOM     15  O   UNL     1      39.136 -24.048 -15.351  0.00  0.00    -0.293 OA
ATOM     16  H   UNL     1      38.215 -23.846 -15.127  0.00  0.00    +0.223 HD
ENDBRANCH  11  15
ENDBRANCH  10  11
ENDBRANCH   2  10
TORSDOF 8
ENDMDL
MODEL 2
REMARK VINA RESULT:      -6.2     10.836     12.717
REMARK  Name = 46937032
REMARK  8 active torsions:
REMARK  status: ('A' for Active; 'I' for Inactive)
REMARK    1  A    between atoms: C_1  and  C_4
REMARK    2  A    between atoms: C_1  and  O_8
REMARK    3  A    between atoms: C_2  and  O_10
REMARK    4  A    between atoms: C_4  and  C_5
REMARK    5  A    between atoms: C_5  and  C_6
REMARK    6  A    between atoms: O_10  and  P_11
REMARK    7  A    between atoms: P_11  and  O_13
REMARK    8  A    between atoms: P_11  and  O_15
REMARK                            x       y       z     vdW  Elec       q    Type
REMARK                         _______ _______ _______ _____ _____    ______ ____
ROOT
ATOM      1  C   UNL     1      35.151 -17.102 -21.391  0.00  0.00    +0.207 C 
ATOM      2  C   UNL     1      35.131 -16.590 -22.626  0.00  0.00    +0.222 C 
ENDROOT
BRANCH   1   4
ATOM      3  O   UNL     1      36.194 -19.013 -20.495  0.00  0.00    -0.288 OA
ATOM      4  C   UNL     1      35.241 -18.576 -21.143  0.00  0.00    +0.210 C 
BRANCH   4   5
ATOM      5  C   UNL     1      34.159 -19.491 -21.697  0.00  0.00    +0.073 C 
BRANCH   5   6
ATOM      6  C   UNL     1      33.036 -19.737 -20.690  0.00  0.00    +0.008 C 
ATOM      7  C   UNL     1      33.308 -20.967 -19.840  0.00  0.00    +0.000 C 
ENDBRANCH   5   6
ENDBRANCH   4   5
ENDBRANCH   1   4
BRANCH   1   8
ATOM      8  O   UNL     1      35.090 -16.302 -20.266  0.00  0.00    -0.501 OA
ATOM      9  H   UNL     1      35.081 -16.692 -19.414  0.00  0.00    +0.292 HD
ENDBRANCH   1   8
BRANCH   2  10
ATOM     10  O   UNL     1      35.048 -15.245 -22.874  0.00  0.00    -0.396 OA
BRANCH  10  11
ATOM     11  P   UNL     1      33.762 -14.562 -23.556  0.00  0.00    +0.528 P 
ATOM     12  O   UNL     1      33.325 -15.138 -24.872  0.00  0.00    -0.216 OA
BRANCH  11  13
ATOM     13  O   UNL     1      32.634 -14.587 -22.398  0.00  0.00    -0.293 OA
ATOM     14  H   UNL     1      32.888 -15.226 -21.713  0.00  0.00    +0.223 HD
ENDBRANCH  11  13
BRANCH  11  15
ATOM     15  O   UNL     1      34.176 -12.999 -23.618  0.00  0.00    -0.293 OA
ATOM     16  H   UNL     1      34.227 -12.643 -22.717  0.00  0.00    +0.223 HD
ENDBRANCH  11  15
ENDBRANCH  10  11
ENDBRANCH   2  10
TORSDOF 8
ENDMDL
MODEL 3
REMARK VINA RESULT:      -6.2     10.819     12.742
REMARK  Name = 46937032
REMARK  8 active torsions:
REMARK  status: ('A' for Active; 'I' for Inactive)
REMARK    1  A    between atoms: C_1  and  C_4
REMARK    2  A    between atoms: C_1  and  O_8
REMARK    3  A    between atoms: C_2  and  O_10
REMARK    4  A    between atoms: C_4  and  C_5
REMARK    5  A    between atoms: C_5  and  C_6
REMARK    6  A    between atoms: O_10  and  P_11
REMARK    7  A    between atoms: P_11  and  O_13
REMARK    8  A    between atoms: P_11  and  O_15
REMARK                            x       y       z     vdW  Elec       q    Type
REMARK                         _______ _______ _______ _____ _____    ______ ____
ROOT
ATOM      1  C   UNL     1      35.133 -17.095 -21.371  0.00  0.00    +0.207 C 
ATOM      2  C   UNL     1      35.111 -16.589 -22.609  0.00  0.00    +0.222 C 
ENDROOT
BRANCH   1   4
ATOM      3  O   UNL     1      36.127 -19.019 -20.448  0.00  0.00    -0.288 OA
ATOM      4  C   UNL     1      35.195 -18.569 -21.116  0.00  0.00    +0.210 C 
BRANCH   4   5
ATOM      5  C   UNL     1      34.109 -19.469 -21.688  0.00  0.00    +0.073 C 
BRANCH   5   6
ATOM      6  C   UNL     1      32.995 -19.747 -20.679  0.00  0.00    +0.008 C 
ATOM      7  C   UNL     1      33.296 -20.978 -19.841  0.00  0.00    +0.000 C 
ENDBRANCH   5   6
ENDBRANCH   4   5
ENDBRANCH   1   4
BRANCH   1   8
ATOM      8  O   UNL     1      35.101 -16.289 -20.250  0.00  0.00    -0.501 OA
ATOM      9  H   UNL     1      35.791 -15.673 -20.095  0.00  0.00    +0.292 HD
ENDBRANCH   1   8
BRANCH   2  10
ATOM     10  O   UNL     1      35.054 -15.244 -22.863  0.00  0.00    -0.396 OA
BRANCH  10  11
ATOM     11  P   UNL     1      33.701 -14.497 -23.304  0.00  0.00    +0.528 P 
ATOM     12  O   UNL     1      32.572 -14.532 -22.316  0.00  0.00    -0.216 OA
BRANCH  11  13
ATOM     13  O   UNL     1      34.183 -13.012 -23.729  0.00  0.00    -0.293 OA
ATOM     14  H   UNL     1      33.452 -12.387 -23.606  0.00  0.00    +0.223 HD
ENDBRANCH  11  13
BRANCH  11  15
ATOM     15  O   UNL     1      33.360 -15.183 -24.729  0.00  0.00    -0.293 OA
ATOM     16  H   UNL     1      33.967 -14.842 -25.405  0.00  0.00    +0.223 HD
ENDBRANCH  11  15
ENDBRANCH  10  11
ENDBRANCH   2  10
TORSDOF 8
ENDMDL
MODEL 4
REMARK VINA RESULT:      -6.1      1.288      1.777
REMARK  Name = 46937032
REMARK  8 active torsions:
REMARK  status: ('A' for Active; 'I' for Inactive)
REMARK    1  A    between atoms: C_1  and  C_4
REMARK    2  A    between atoms: C_1  and  O_8
REMARK    3  A    between atoms: C_2  and  O_10
REMARK    4  A    between atoms: C_4  and  C_5
REMARK    5  A    between atoms: C_5  and  C_6
REMARK    6  A    between atoms: O_10  and  P_11
REMARK    7  A    between atoms: P_11  and  O_13
REMARK    8  A    between atoms: P_11  and  O_15
REMARK                            x       y       z     vdW  Elec       q    Type
REMARK                         _______ _______ _______ _____ _____    ______ ____
ROOT
ATOM      1  C   UNL     1      36.917 -25.541 -13.101  0.00  0.00    +0.207 C 
ATOM      2  C   UNL     1      37.806 -25.581 -14.099  0.00  0.00    +0.222 C 
ENDROOT
BRANCH   1   4
ATOM      3  O   UNL     1      35.414 -24.004 -12.143  0.00  0.00    -0.288 OA
ATOM      4  C   UNL     1      35.710 -24.657 -13.145  0.00  0.00    +0.210 C 
BRANCH   4   5
ATOM      5  C   UNL     1      34.884 -24.590 -14.421  0.00  0.00    +0.073 C 
BRANCH   5   6
ATOM      6  C   UNL     1      34.996 -23.233 -15.114  0.00  0.00    +0.008 C 
ATOM      7  C   UNL     1      34.234 -23.213 -16.429  0.00  0.00    +0.000 C 
ENDBRANCH   5   6
ENDBRANCH   4   5
ENDBRANCH   1   4
BRANCH   1   8
ATOM      8  O   UNL     1      37.058 -26.316 -11.965  0.00  0.00    -0.501 OA
ATOM      9  H   UNL     1      37.765 -26.155 -11.373  0.00  0.00    +0.292 HD
ENDBRANCH   1   8
BRANCH   2  10
ATOM     10  O   UNL     1      38.916 -26.383 -14.078  0.00  0.00    -0.396 OA
BRANCH  10  11
ATOM     11  P   UNL     1      40.380 -25.855 -14.480  0.00  0.00    +0.528 P 
ATOM     12  O   UNL     1      40.780 -24.520 -13.924  0.00  0.00    -0.216 OA
BRANCH  11  13
ATOM     13  O   UNL     1      41.367 -27.075 -14.088  0.00  0.00    -0.293 OA
ATOM     14  H   UNL     1      40.958 -27.917 -14.343  0.00  0.00    +0.223 HD
ENDBRANCH  11  13
BRANCH  11  15
ATOM     15  O   UNL     1      40.355 -25.922 -16.096  0.00  0.00    -0.293 OA
ATOM     16  H   UNL     1      39.450 -26.097 -16.398  0.00  0.00    +0.223 HD
ENDBRANCH  11  15
ENDBRANCH  10  11
ENDBRANCH   2  10
TORSDOF 8
ENDMDL
MODEL 5
REMARK VINA RESULT:      -6.1      2.153      3.013
REMARK  Name = 46937032
REMARK  8 active torsions:
REMARK  status: ('A' for Active; 'I' for Inactive)
REMARK    1  A    between atoms: C_1  and  C_4
REMARK    2  A    between atoms: C_1  and  O_8
REMARK    3  A    between atoms: C_2  and  O_10
REMARK    4  A    between atoms: C_4  and  C_5
REMARK    5  A    between atoms: C_5  and  C_6
REMARK    6  A    between atoms: O_10  and  P_11
REMARK    7  A    between atoms: P_11  and  O_13
REMARK    8  A    between atoms: P_11  and  O_15
REMARK                            x       y       z     vdW  Elec       q    Type
REMARK                         _______ _______ _______ _____ _____    ______ ____
ROOT
ATOM      1  C   UNL     1      37.624 -23.619 -15.264  0.00  0.00    +0.207 C 
ATOM      2  C   UNL     1      37.992 -24.385 -14.231  0.00  0.00    +0.222 C 
ENDROOT
BRANCH   1   4
ATOM      3  O   UNL     1      35.852 -22.964 -16.669  0.00  0.00    -0.288 OA
ATOM      4  C   UNL     1      36.192 -23.270 -15.525  0.00  0.00    +0.210 C 
BRANCH   4   5
ATOM      5  C   UNL     1      35.198 -23.299 -14.372  0.00  0.00    +0.073 C 
BRANCH   5   6
ATOM      6  C   UNL     1      33.972 -24.156 -14.686  0.00  0.00    +0.008 C 
ATOM      7  C   UNL     1      32.741 -23.299 -14.932  0.00  0.00    +0.000 C 
ENDBRANCH   5   6
ENDBRANCH   4   5
ENDBRANCH   1   4
BRANCH   1   8
ATOM      8  O   UNL     1      38.544 -23.101 -16.155  0.00  0.00    -0.501 OA
ATOM      9  H   UNL     1      38.253 -22.604 -16.894  0.00  0.00    +0.292 HD
ENDBRANCH   1   8
BRANCH   2  10
ATOM     10  O   UNL     1      39.296 -24.716 -13.976  0.00  0.00    -0.396 OA
BRANCH  10  11
ATOM     11  P   UNL     1      39.983 -26.054 -14.545  0.00  0.00    +0.528 P 
ATOM     12  O   UNL     1      41.168 -26.569 -13.779  0.00  0.00    -0.216 OA
BRANCH  11  13
ATOM     13  O   UNL     1      38.760 -27.103 -14.684  0.00  0.00    -0.293 OA
ATOM     14  H   UNL     1      39.076 -27.998 -14.482  0.00  0.00    +0.223 HD
ENDBRANCH  11  13
BRANCH  11  15
ATOM     15  O   UNL     1      40.301 -25.669 -16.083  0.00  0.00    -0.293 OA
ATOM     16  H   UNL     1      41.162 -25.224 -16.134  0.00  0.00    +0.223 HD
ENDBRANCH  11  15
ENDBRANCH  10  11
ENDBRANCH   2  10
TORSDOF 8
ENDMDL
MODEL 6
REMARK VINA RESULT:      -6.0      2.007      2.714
REMARK  Name = 46937032
REMARK  8 active torsions:
REMARK  status: ('A' for Active; 'I' for Inactive)
REMARK    1  A    between atoms: C_1  and  C_4
REMARK    2  A    between atoms: C_1  and  O_8
REMARK    3  A    between atoms: C_2  and  O_10
REMARK    4  A    between atoms: C_4  and  C_5
REMARK    5  A    between atoms: C_5  and  C_6
REMARK    6  A    between atoms: O_10  and  P_11
REMARK    7  A    between atoms: P_11  and  O_13
REMARK    8  A    between atoms: P_11  and  O_15
REMARK                            x       y       z     vdW  Elec       q    Type
REMARK                         _______ _______ _______ _____ _____    ______ ____
ROOT
ATOM      1  C   UNL     1      36.839 -25.789 -15.009  0.00  0.00    +0.207 C 
ATOM      2  C   UNL     1      37.865 -25.679 -14.158  0.00  0.00    +0.222 C 
ENDROOT
BRANCH   1   4
ATOM      3  O   UNL     1      35.455 -24.204 -16.063  0.00  0.00    -0.288 OA
ATOM      4  C   UNL     1      35.707 -24.810 -15.021  0.00  0.00    +0.210 C 
BRANCH   4   5
ATOM      5  C   UNL     1      34.902 -24.590 -13.748  0.00  0.00    +0.073 C 
BRANCH   5   6
ATOM      6  C   UNL     1      35.647 -23.723 -12.733  0.00  0.00    +0.008 C 
ATOM      7  C   UNL     1      35.682 -24.375 -11.361  0.00  0.00    +0.000 C 
ENDBRANCH   5   6
ENDBRANCH   4   5
ENDBRANCH   1   4
BRANCH   1   8
ATOM      8  O   UNL     1      36.761 -26.815 -15.932  0.00  0.00    -0.501 OA
ATOM      9  H   UNL     1      35.932 -27.057 -16.294  0.00  0.00    +0.292 HD
ENDBRANCH   1   8
BRANCH   2  10
ATOM     10  O   UNL     1      38.910 -26.565 -14.132  0.00  0.00    -0.396 OA
BRANCH  10  11
ATOM     11  P   UNL     1      40.420 -26.142 -14.487  0.00  0.00    +0.528 P 
ATOM     12  O   UNL     1      41.501 -27.048 -13.973  0.00  0.00    -0.216 OA
BRANCH  11  13
ATOM     13  O   UNL     1      40.412 -25.941 -16.092  0.00  0.00    -0.293 OA
ATOM     14  H   UNL     1      40.951 -25.168 -16.324  0.00  0.00    +0.223 HD
ENDBRANCH  11  13
BRANCH  11  15
ATOM     15  O   UNL     1      40.506 -24.623 -13.937  0.00  0.00    -0.293 OA
ATOM     16  H   UNL     1      40.184 -24.013 -14.619  0.00  0.00    +0.223 HD
ENDBRANCH  11  15
ENDBRANCH  10  11
ENDBRANCH   2  10
TORSDOF 8
ENDMDL
MODEL 7
REMARK VINA RESULT:      -6.0      2.518      4.513
REMARK  Name = 46937032
REMARK  8 active torsions:
REMARK  status: ('A' for Active; 'I' for Inactive)
REMARK    1  A    between atoms: C_1  and  C_4
REMARK    2  A    between atoms: C_1  and  O_8
REMARK    3  A    between atoms: C_2  and  O_10
REMARK    4  A    between atoms: C_4  and  C_5
REMARK    5  A    between atoms: C_5  and  C_6
REMARK    6  A    between atoms: O_10  and  P_11
REMARK    7  A    between atoms: P_11  and  O_13
REMARK    8  A    between atoms: P_11  and  O_15
REMARK                            x       y       z     vdW  Elec       q    Type
REMARK                         _______ _______ _______ _____ _____    ______ ____
ROOT
ATOM      1  C   UNL     1      37.731 -26.017 -13.649  0.00  0.00    +0.207 C 
ATOM      2  C   UNL     1      37.763 -25.518 -12.408  0.00  0.00    +0.222 C 
ENDROOT
BRANCH   1   4
ATOM      3  O   UNL     1      39.673 -26.677 -14.802  0.00  0.00    -0.288 OA
ATOM      4  C   UNL     1      38.839 -25.787 -14.628  0.00  0.00    +0.210 C 
BRANCH   4   5
ATOM      5  C   UNL     1      38.907 -24.463 -15.377  0.00  0.00    +0.073 C 
BRANCH   5   6
ATOM      6  C   UNL     1      37.589 -23.692 -15.311  0.00  0.00    +0.008 C 
ATOM      7  C   UNL     1      37.615 -22.467 -16.209  0.00  0.00    +0.000 C 
ENDBRANCH   5   6
ENDBRANCH   4   5
ENDBRANCH   1   4
BRANCH   1   8
ATOM      8  O   UNL     1      36.671 -26.778 -14.104  0.00  0.00    -0.501 OA
ATOM      9  H   UNL     1      36.404 -26.721 -15.000  0.00  0.00    +0.292 HD
ENDBRANCH   1   8
BRANCH   2  10
ATOM     10  O   UNL     1      36.759 -25.717 -11.498  0.00  0.00    -0.396 OA
BRANCH  10  11
ATOM     11  P   UNL     1      35.693 -24.576 -11.113  0.00  0.00    +0.528 P 
ATOM     12  O   UNL     1      35.325 -24.476  -9.661  0.00  0.00    -0.216 OA
BRANCH  11  13
ATOM     13  O   UNL     1      36.308 -23.223 -11.750  0.00  0.00    -0.293 OA
ATOM     14  H   UNL     1      37.216 -23.099 -11.433  0.00  0.00    +0.223 HD
ENDBRANCH  11  13
BRANCH  11  15
ATOM     15  O   UNL     1      34.449 -24.901 -12.095  0.00  0.00    -0.293 OA
ATOM     16  H   UNL     1      34.121 -24.075 -12.485  0.00  0.00    +0.223 HD
ENDBRANCH  11  15
ENDBRANCH  10  11
ENDBRANCH   2  10
TORSDOF 8
ENDMDL
MODEL 8
REMARK VINA RESULT:      -5.9      2.626      3.529
REMARK  Name = 46937032
REMARK  8 active torsions:
REMARK  status: ('A' for Active; 'I' for Inactive)
REMARK    1  A    between atoms: C_1  and  C_4
REMARK    2  A    between atoms: C_1  and  O_8
REMARK    3  A    between atoms: C_2  and  O_10
REMARK    4  A    between atoms: C_4  and  C_5
REMARK    5  A    between atoms: C_5  and  C_6
REMARK    6  A    between atoms: O_10  and  P_11
REMARK    7  A    between atoms: P_11  and  O_13
REMARK    8  A    between atoms: P_11  and  O_15
REMARK                            x       y       z     vdW  Elec       q    Type
REMARK                         _______ _______ _______ _____ _____    ______ ____
ROOT
ATOM      1  C   UNL     1      34.246 -24.550 -13.553  0.00  0.00    +0.207 C 
ATOM      2  C   UNL     1      35.126 -24.473 -14.556  0.00  0.00    +0.222 C 
ENDROOT
BRANCH   1   4
ATOM      3  O   UNL     1      31.965 -25.028 -13.224  0.00  0.00    -0.288 OA
ATOM      4  C   UNL     1      32.787 -24.278 -13.751  0.00  0.00    +0.210 C 
BRANCH   4   5
ATOM      5  C   UNL     1      32.362 -23.086 -14.598  0.00  0.00    +0.073 C 
BRANCH   5   6
ATOM      6  C   UNL     1      31.227 -23.434 -15.560  0.00  0.00    +0.008 C 
ATOM      7  C   UNL     1      29.909 -22.823 -15.112  0.00  0.00    +0.000 C 
ENDBRANCH   5   6
ENDBRANCH   4   5
ENDBRANCH   1   4
BRANCH   1   8
ATOM      8  O   UNL     1      34.628 -24.887 -12.268  0.00  0.00    -0.501 OA
ATOM      9  H   UNL     1      35.303 -25.522 -12.132  0.00  0.00    +0.292 HD
ENDBRANCH   1   8
BRANCH   2  10
ATOM     10  O   UNL     1      36.465 -24.718 -14.395  0.00  0.00    -0.396 OA
BRANCH  10  11
ATOM     11  P   UNL     1      37.109 -26.181 -14.561  0.00  0.00    +0.528 P 
ATOM     12  O   UNL     1      38.542 -26.228 -15.005  0.00  0.00    -0.216 OA
BRANCH  11  13
ATOM     13  O   UNL     1      36.813 -26.912 -13.149  0.00  0.00    -0.293 OA
ATOM     14  H   UNL     1      37.251 -27.778 -13.135  0.00  0.00    +0.223 HD
ENDBRANCH  11  13
BRANCH  11  15
ATOM     15  O   UNL     1      36.077 -26.916 -15.567  0.00  0.00    -0.293 OA
ATOM     16  H   UNL     1      35.750 -26.276 -16.220  0.00  0.00    +0.223 HD
ENDBRANCH  11  15
ENDBRANCH  10  11
ENDBRANCH   2  10
TORSDOF 8
ENDMDL
MODEL 9
REMARK VINA RESULT:      -5.9     11.890     13.777
REMARK  Name = 46937032
REMARK  8 active torsions:
REMARK  status: ('A' for Active; 'I' for Inactive)
REMARK    1  A    between atoms: C_1  and  C_4
REMARK    2  A    between atoms: C_1  and  O_8
REMARK    3  A    between atoms: C_2  and  O_10
REMARK    4  A    between atoms: C_4  and  C_5
REMARK    5  A    between atoms: C_5  and  C_6
REMARK    6  A    between atoms: O_10  and  P_11
REMARK    7  A    between atoms: P_11  and  O_13
REMARK    8  A    between atoms: P_11  and  O_15
REMARK                            x       y       z     vdW  Elec       q    Type
REMARK                         _______ _______ _______ _____ _____    ______ ____
ROOT
ATOM      1  C   UNL     1      35.019 -16.150 -22.387  0.00  0.00    +0.207 C 
ATOM      2  C   UNL     1      34.421 -15.020 -21.993  0.00  0.00    +0.222 C 
ENDROOT
BRANCH   1   4
ATOM      3  O   UNL     1      35.508 -17.300 -20.393  0.00  0.00    -0.288 OA
ATOM      4  C   UNL     1      35.043 -17.377 -21.531  0.00  0.00    +0.210 C 
BRANCH   4   5
ATOM      5  C   UNL     1      34.495 -18.683 -22.088  0.00  0.00    +0.073 C 
BRANCH   5   6
ATOM      6  C   UNL     1      34.342 -19.755 -21.010  0.00  0.00    +0.008 C 
ATOM      7  C   UNL     1      32.883 -19.971 -20.641  0.00  0.00    +0.000 C 
ENDBRANCH   5   6
ENDBRANCH   4   5
ENDBRANCH   1   4
BRANCH   1   8
ATOM      8  O   UNL     1      35.651 -16.254 -23.611  0.00  0.00    -0.501 OA
ATOM      9  H   UNL     1      35.151 -16.429 -24.384  0.00  0.00    +0.292 HD
ENDBRANCH   1   8
BRANCH   2  10
ATOM     10  O   UNL     1      34.389 -13.887 -22.762  0.00  0.00    -0.396 OA
BRANCH  10  11
ATOM     11  P   UNL     1      33.266 -13.625 -23.882  0.00  0.00    +0.528 P 
ATOM     12  O   UNL     1      33.115 -14.689 -24.931  0.00  0.00    -0.216 OA
BRANCH  11  13
ATOM     13  O   UNL     1      31.923 -13.312 -23.037  0.00  0.00    -0.293 OA
ATOM     14  H   UNL     1      32.071 -13.527 -22.103  0.00  0.00    +0.223 HD
ENDBRANCH  11  13
BRANCH  11  15
ATOM     15  O   UNL     1      33.670 -12.170 -24.463  0.00  0.00    -0.293 OA
ATOM     16  H   UNL     1      33.247 -11.480 -23.928  0.00  0.00    +0.223 HD
ENDBRANCH  11  15
ENDBRANCH  10  11
ENDBRANCH   2  10
TORSDOF 8
ENDMDL
