MODEL 1
REMARK VINA RESULT:      -9.7      0.000      0.000
REMARK  Name = 4567
REMARK  9 active torsions:
REMARK  status: ('A' for Active; 'I' for Inactive)
REMARK    1  A    between atoms: N_1  and  C_4
REMARK    2  A    between atoms: N_1  and  C_14
REMARK    3  A    between atoms: C_4  and  C_6
REMARK    4  A    between atoms: C_6  and  C_7
REMARK    5  A    between atoms: C_7  and  C_8
REMARK    6  A    between atoms: C_14  and  C_16
REMARK    7  A    between atoms: C_16  and  C_17
REMARK    8  A    between atoms: C_16  and  O_25
REMARK    9  A    between atoms: C_22  and  O_23
REMARK                            x       y       z     vdW  Elec       q    Type
REMARK                         _______ _______ _______ _____ _____    ______ ____
ROOT
ATOM      1  N   UNL     1      35.606 -16.808 -23.402  0.00  0.00    +0.388 N 
ATOM      2  H   UNL     1      36.094 -16.197 -22.747  0.00  0.00    -0.084 HD
ATOM      3  H   UNL     1      36.113 -16.856 -24.285  0.00  0.00    -0.084 HD
ENDROOT
BRANCH   1   4
ATOM      4  C   UNL     1      34.270 -16.269 -23.657  0.00  0.00    -0.061 C 
ATOM      5  C   UNL     1      34.066 -16.097 -25.162  0.00  0.00    -0.023 C 
BRANCH   4   6
ATOM      6  C   UNL     1      34.071 -14.926 -22.930  0.00  0.00    -0.017 C 
BRANCH   6   7
ATOM      7  C   UNL     1      32.887 -14.886 -21.953  0.00  0.00    +0.024 C 
BRANCH   7   8
ATOM      8  C   UNL     1      32.403 -13.493 -21.636  0.00  0.00    -0.022 C 
ATOM      9  C   UNL     1      32.149 -13.144 -20.319  0.00  0.00    -0.004 C 
ATOM     10  C   UNL     1      32.222 -12.583 -22.668  0.00  0.00    -0.004 C 
ATOM     11  C   UNL     1      31.702 -11.855 -20.025  0.00  0.00    -0.000 C 
ATOM     12  C   UNL     1      31.775 -11.295 -22.374  0.00  0.00    -0.000 C 
ATOM     13  C   UNL     1      31.515 -10.931 -21.052  0.00  0.00    -0.000 C 
ENDBRANCH   7   8
ENDBRANCH   6   7
ENDBRANCH   4   6
ENDBRANCH   1   4
BRANCH   1  14
ATOM     14  C   UNL     1      35.523 -18.144 -22.836  0.00  0.00    -0.030 C 
ATOM     15  C   UNL     1      34.894 -19.064 -23.886  0.00  0.00    -0.021 C 
BRANCH  14  16
ATOM     16  C   UNL     1      34.710 -18.103 -21.522  0.00  0.00    +0.113 C 
BRANCH  16  17
ATOM     17  C   UNL     1      34.611 -19.442 -20.826  0.00  0.00    +0.002 C 
ATOM     18  C   UNL     1      33.362 -19.952 -20.516  0.00  0.00    +0.001 C 
ATOM     19  C   UNL     1      35.771 -20.128 -20.513  0.00  0.00    +0.001 C 
ATOM     20  C   UNL     1      33.271 -21.186 -19.873  0.00  0.00    +0.036 C 
ATOM     21  C   UNL     1      35.680 -21.363 -19.870  0.00  0.00    +0.036 C 
ATOM     22  C   UNL     1      34.430 -21.892 -19.550  0.00  0.00    +0.134 C 
BRANCH  22  23
ATOM     23  O   UNL     1      34.340 -23.096 -18.924  0.00  0.00    -0.506 OA
ATOM     24  H   UNL     1      34.131 -23.866 -19.416  0.00  0.00    +0.292 HD
ENDBRANCH  22  23
ENDBRANCH  16  17
BRANCH  16  25
ATOM     25  O   UNL     1      35.324 -17.200 -20.597  0.00  0.00    -0.382 OA
ATOM     26  H   UNL     1      35.653 -16.423 -21.074  0.00  0.00    +0.211 HD
ENDBRANCH  16  25
ENDBRANCH  14  16
ENDBRANCH   1  14
TORSDOF 9
ENDMDL
MODEL 2
REMARK VINA RESULT:      -9.5      1.185      1.916
REMARK  Name = 4567
REMARK  9 active torsions:
REMARK  status: ('A' for Active; 'I' for Inactive)
REMARK    1  A    between atoms: N_1  and  C_4
REMARK    2  A    between atoms: N_1  and  C_14
REMARK    3  A    between atoms: C_4  and  C_6
REMARK    4  A    between atoms: C_6  and  C_7
REMARK    5  A    between atoms: C_7  and  C_8
REMARK    6  A    between atoms: C_14  and  C_16
REMARK    7  A    between atoms: C_16  and  C_17
REMARK    8  A    between atoms: C_16  and  O_25
REMARK    9  A    between atoms: C_22  and  O_23
REMARK                            x       y       z     vdW  Elec       q    Type
REMARK                         _______ _______ _______ _____ _____    ______ ____
ROOT
ATOM      1  N   UNL     1      35.002 -15.872 -22.958  0.00  0.00    +0.388 N 
ATOM      2  H   UNL     1      35.611 -15.107 -22.666  0.00  0.00    -0.084 HD
ATOM      3  H   UNL     1      35.491 -16.483 -23.611  0.00  0.00    -0.084 HD
ENDROOT
BRANCH   1   4
ATOM      4  C   UNL     1      33.822 -15.321 -23.623  0.00  0.00    -0.061 C 
ATOM      5  C   UNL     1      33.830 -15.726 -25.097  0.00  0.00    -0.023 C 
BRANCH   4   6
ATOM      6  C   UNL     1      33.780 -13.788 -23.486  0.00  0.00    -0.017 C 
BRANCH   6   7
ATOM      7  C   UNL     1      32.372 -13.175 -23.478  0.00  0.00    +0.024 C 
BRANCH   7   8
ATOM      8  C   UNL     1      32.101 -12.280 -22.295  0.00  0.00    -0.022 C 
ATOM      9  C   UNL     1      32.021 -12.835 -21.027  0.00  0.00    -0.004 C 
ATOM     10  C   UNL     1      31.938 -10.917 -22.494  0.00  0.00    -0.004 C 
ATOM     11  C   UNL     1      31.770 -12.007 -19.931  0.00  0.00    -0.000 C 
ATOM     12  C   UNL     1      31.688 -10.090 -21.400  0.00  0.00    -0.000 C 
ATOM     13  C   UNL     1      31.604 -10.635 -20.118  0.00  0.00    -0.000 C 
ENDBRANCH   7   8
ENDBRANCH   6   7
ENDBRANCH   4   6
ENDBRANCH   1   4
BRANCH   1  14
ATOM     14  C   UNL     1      34.619 -16.648 -21.789  0.00  0.00    -0.030 C 
ATOM     15  C   UNL     1      34.662 -15.722 -20.572  0.00  0.00    -0.021 C 
BRANCH  14  16
ATOM     16  C   UNL     1      35.560 -17.865 -21.642  0.00  0.00    +0.113 C 
BRANCH  16  17
ATOM     17  C   UNL     1      34.899 -19.073 -21.013  0.00  0.00    +0.002 C 
ATOM     18  C   UNL     1      35.690 -20.061 -20.455  0.00  0.00    +0.001 C 
ATOM     19  C   UNL     1      33.519 -19.162 -21.012  0.00  0.00    +0.001 C 
ATOM     20  C   UNL     1      35.081 -21.174 -19.877  0.00  0.00    +0.036 C 
ATOM     21  C   UNL     1      32.909 -20.276 -20.434  0.00  0.00    +0.036 C 
ATOM     22  C   UNL     1      33.690 -21.282 -19.866  0.00  0.00    +0.134 C 
BRANCH  22  23
ATOM     23  O   UNL     1      33.097 -22.368 -19.301  0.00  0.00    -0.506 OA
ATOM     24  H   UNL     1      33.622 -23.037 -18.905  0.00  0.00    +0.292 HD
ENDBRANCH  22  23
ENDBRANCH  16  17
BRANCH  16  25
ATOM     25  O   UNL     1      36.033 -18.276 -22.928  0.00  0.00    -0.382 OA
ATOM     26  H   UNL     1      35.653 -17.700 -23.611  0.00  0.00    +0.211 HD
ENDBRANCH  16  25
ENDBRANCH  14  16
ENDBRANCH   1  14
TORSDOF 9
ENDMDL
MODEL 3
REMARK VINA RESULT:      -9.5      2.108      3.014
REMARK  Name = 4567
REMARK  9 active torsions:
REMARK  status: ('A' for Active; 'I' for Inactive)
REMARK    1  A    between atoms: N_1  and  C_4
REMARK    2  A    between atoms: N_1  and  C_14
REMARK    3  A    between atoms: C_4  and  C_6
REMARK    4  A    between atoms: C_6  and  C_7
REMARK    5  A    between atoms: C_7  and  C_8
REMARK    6  A    between atoms: C_14  and  C_16
REMARK    7  A    between atoms: C_16  and  C_17
REMARK    8  A    between atoms: C_16  and  O_25
REMARK    9  A    between atoms: C_22  and  O_23
REMARK                            x       y       z     vdW  Elec       q    Type
REMARK                         _______ _______ _______ _____ _____    ______ ____
ROOT
ATOM      1  N   UNL     1      34.876 -15.637 -23.004  0.00  0.00    +0.388 N 
ATOM      2  H   UNL     1      35.576 -14.951 -22.721  0.00  0.00    -0.084 HD
ATOM      3  H   UNL     1      35.244 -16.233 -23.745  0.00  0.00    -0.084 HD
ENDROOT
BRANCH   1   4
ATOM      4  C   UNL     1      33.694 -14.937 -23.507  0.00  0.00    -0.061 C 
ATOM      5  C   UNL     1      33.569 -15.163 -25.014  0.00  0.00    -0.023 C 
BRANCH   4   6
ATOM      6  C   UNL     1      33.772 -13.432 -23.193  0.00  0.00    -0.017 C 
BRANCH   6   7
ATOM      7  C   UNL     1      33.704 -12.509 -24.419  0.00  0.00    +0.024 C 
BRANCH   7   8
ATOM      8  C   UNL     1      33.784 -11.040 -24.084  0.00  0.00    -0.022 C 
ATOM      9  C   UNL     1      34.828 -10.282 -24.591  0.00  0.00    -0.004 C 
ATOM     10  C   UNL     1      32.811 -10.472 -23.275  0.00  0.00    -0.004 C 
ATOM     11  C   UNL     1      34.902  -8.924 -24.282  0.00  0.00    -0.000 C 
ATOM     12  C   UNL     1      32.884  -9.115 -22.965  0.00  0.00    -0.000 C 
ATOM     13  C   UNL     1      33.930  -8.340 -23.469  0.00  0.00    -0.000 C 
ENDBRANCH   7   8
ENDBRANCH   6   7
ENDBRANCH   4   6
ENDBRANCH   1   4
BRANCH   1  14
ATOM     14  C   UNL     1      34.534 -16.469 -21.862  0.00  0.00    -0.030 C 
ATOM     15  C   UNL     1      34.651 -15.611 -20.600  0.00  0.00    -0.021 C 
BRANCH  14  16
ATOM     16  C   UNL     1      35.459 -17.707 -21.825  0.00  0.00    +0.113 C 
BRANCH  16  17
ATOM     17  C   UNL     1      34.834 -18.913 -21.159  0.00  0.00    +0.002 C 
ATOM     18  C   UNL     1      35.655 -19.881 -20.607  0.00  0.00    +0.001 C 
ATOM     19  C   UNL     1      33.455 -19.022 -21.116  0.00  0.00    +0.001 C 
ATOM     20  C   UNL     1      35.079 -20.993 -19.994  0.00  0.00    +0.036 C 
ATOM     21  C   UNL     1      32.879 -20.135 -20.502  0.00  0.00    +0.036 C 
ATOM     22  C   UNL     1      33.691 -21.121 -19.942  0.00  0.00    +0.134 C 
BRANCH  22  23
ATOM     23  O   UNL     1      33.130 -22.205 -19.342  0.00  0.00    -0.506 OA
ATOM     24  H   UNL     1      33.460 -22.510 -18.519  0.00  0.00    +0.292 HD
ENDBRANCH  22  23
ENDBRANCH  16  17
BRANCH  16  25
ATOM     25  O   UNL     1      35.800 -18.102 -23.157  0.00  0.00    -0.382 OA
ATOM     26  H   UNL     1      36.224 -18.974 -23.137  0.00  0.00    +0.211 HD
ENDBRANCH  16  25
ENDBRANCH  14  16
ENDBRANCH   1  14
TORSDOF 9
ENDMDL
MODEL 4
REMARK VINA RESULT:      -9.3      1.961      2.924
REMARK  Name = 4567
REMARK  9 active torsions:
REMARK  status: ('A' for Active; 'I' for Inactive)
REMARK    1  A    between atoms: N_1  and  C_4
REMARK    2  A    between atoms: N_1  and  C_14
REMARK    3  A    between atoms: C_4  and  C_6
REMARK    4  A    between atoms: C_6  and  C_7
REMARK    5  A    between atoms: C_7  and  C_8
REMARK    6  A    between atoms: C_14  and  C_16
REMARK    7  A    between atoms: C_16  and  C_17
REMARK    8  A    between atoms: C_16  and  O_25
REMARK    9  A    between atoms: C_22  and  O_23
REMARK                            x       y       z     vdW  Elec       q    Type
REMARK                         _______ _______ _______ _____ _____    ______ ____
ROOT
ATOM      1  N   UNL     1      35.409 -17.149 -23.181  0.00  0.00    +0.388 N 
ATOM      2  H   UNL     1      35.599 -16.148 -23.246  0.00  0.00    -0.084 HD
ATOM      3  H   UNL     1      36.266 -17.681 -23.334  0.00  0.00    -0.084 HD
ENDROOT
BRANCH   1   4
ATOM      4  C   UNL     1      34.434 -17.521 -24.206  0.00  0.00    -0.061 C 
ATOM      5  C   UNL     1      34.647 -18.981 -24.607  0.00  0.00    -0.023 C 
BRANCH   4   6
ATOM      6  C   UNL     1      34.552 -16.602 -25.435  0.00  0.00    -0.017 C 
BRANCH   6   7
ATOM      7  C   UNL     1      33.309 -15.748 -25.728  0.00  0.00    +0.024 C 
BRANCH   7   8
ATOM      8  C   UNL     1      33.459 -14.298 -25.341  0.00  0.00    -0.022 C 
ATOM      9  C   UNL     1      33.506 -13.330 -26.333  0.00  0.00    -0.004 C 
ATOM     10  C   UNL     1      33.546 -13.957 -24.000  0.00  0.00    -0.004 C 
ATOM     11  C   UNL     1      33.644 -11.989 -25.975  0.00  0.00    -0.000 C 
ATOM     12  C   UNL     1      33.684 -12.616 -23.642  0.00  0.00    -0.000 C 
ATOM     13  C   UNL     1      33.733 -11.632 -24.630  0.00  0.00    -0.000 C 
ENDBRANCH   7   8
ENDBRANCH   6   7
ENDBRANCH   4   6
ENDBRANCH   1   4
BRANCH   1  14
ATOM     14  C   UNL     1      34.902 -17.452 -21.853  0.00  0.00    -0.030 C 
ATOM     15  C   UNL     1      34.634 -16.127 -21.135  0.00  0.00    -0.021 C 
BRANCH  14  16
ATOM     16  C   UNL     1      35.918 -18.340 -21.098  0.00  0.00    +0.113 C 
BRANCH  16  17
ATOM     17  C   UNL     1      35.322 -19.625 -20.563  0.00  0.00    +0.002 C 
ATOM     18  C   UNL     1      33.952 -19.811 -20.625  0.00  0.00    +0.001 C 
ATOM     19  C   UNL     1      36.161 -20.584 -20.024  0.00  0.00    +0.001 C 
ATOM     20  C   UNL     1      33.404 -20.993 -20.131  0.00  0.00    +0.036 C 
ATOM     21  C   UNL     1      35.612 -21.767 -19.529  0.00  0.00    +0.036 C 
ATOM     22  C   UNL     1      34.233 -21.972 -19.582  0.00  0.00    +0.134 C 
BRANCH  22  23
ATOM     23  O   UNL     1      33.697 -23.126 -19.102  0.00  0.00    -0.506 OA
ATOM     24  H   UNL     1      33.599 -23.249 -18.178  0.00  0.00    +0.292 HD
ENDBRANCH  22  23
ENDBRANCH  16  17
BRANCH  16  25
ATOM     25  O   UNL     1      36.986 -18.713 -21.974  0.00  0.00    -0.382 OA
ATOM     26  H   UNL     1      37.164 -19.662 -21.880  0.00  0.00    +0.211 HD
ENDBRANCH  16  25
ENDBRANCH  14  16
ENDBRANCH   1  14
TORSDOF 9
ENDMDL
MODEL 5
REMARK VINA RESULT:      -9.2      2.795      7.995
REMARK  Name = 4567
REMARK  9 active torsions:
REMARK  status: ('A' for Active; 'I' for Inactive)
REMARK    1  A    between atoms: N_1  and  C_4
REMARK    2  A    between atoms: N_1  and  C_14
REMARK    3  A    between atoms: C_4  and  C_6
REMARK    4  A    between atoms: C_6  and  C_7
REMARK    5  A    between atoms: C_7  and  C_8
REMARK    6  A    between atoms: C_14  and  C_16
REMARK    7  A    between atoms: C_16  and  C_17
REMARK    8  A    between atoms: C_16  and  O_25
REMARK    9  A    between atoms: C_22  and  O_23
REMARK                            x       y       z     vdW  Elec       q    Type
REMARK                         _______ _______ _______ _____ _____    ______ ____
ROOT
ATOM      1  N   UNL     1      34.163 -16.611 -23.034  0.00  0.00    +0.388 N 
ATOM      2  H   UNL     1      34.287 -16.927 -22.072  0.00  0.00    -0.084 HD
ATOM      3  H   UNL     1      33.228 -16.847 -23.366  0.00  0.00    -0.084 HD
ENDROOT
BRANCH   1   4
ATOM      4  C   UNL     1      35.146 -17.276 -23.889  0.00  0.00    -0.061 C 
ATOM      5  C   UNL     1      34.477 -17.717 -25.191  0.00  0.00    -0.023 C 
BRANCH   4   6
ATOM      6  C   UNL     1      35.772 -18.485 -23.170  0.00  0.00    -0.017 C 
BRANCH   6   7
ATOM      7  C   UNL     1      35.816 -18.377 -21.638  0.00  0.00    +0.024 C 
BRANCH   7   8
ATOM      8  C   UNL     1      35.031 -19.451 -20.927  0.00  0.00    -0.022 C 
ATOM      9  C   UNL     1      33.646 -19.409 -20.950  0.00  0.00    -0.004 C 
ATOM     10  C   UNL     1      35.709 -20.462 -20.262  0.00  0.00    -0.004 C 
ATOM     11  C   UNL     1      32.920 -20.403 -20.292  0.00  0.00    -0.000 C 
ATOM     12  C   UNL     1      34.983 -21.455 -19.605  0.00  0.00    -0.000 C 
ATOM     13  C   UNL     1      33.588 -21.425 -19.620  0.00  0.00    -0.000 C 
ENDBRANCH   7   8
ENDBRANCH   6   7
ENDBRANCH   4   6
ENDBRANCH   1   4
BRANCH   1  14
ATOM     14  C   UNL     1      34.327 -15.168 -23.087  0.00  0.00    -0.030 C 
ATOM     15  C   UNL     1      34.588 -14.669 -21.663  0.00  0.00    -0.021 C 
BRANCH  14  16
ATOM     16  C   UNL     1      33.071 -14.525 -23.719  0.00  0.00    +0.113 C 
BRANCH  16  17
ATOM     17  C   UNL     1      32.965 -13.034 -23.478  0.00  0.00    +0.002 C 
ATOM     18  C   UNL     1      32.086 -12.567 -22.516  0.00  0.00    +0.001 C 
ATOM     19  C   UNL     1      33.748 -12.172 -24.225  0.00  0.00    +0.001 C 
ATOM     20  C   UNL     1      31.987 -11.194 -22.295  0.00  0.00    +0.036 C 
ATOM     21  C   UNL     1      33.649 -10.798 -24.004  0.00  0.00    +0.036 C 
ATOM     22  C   UNL     1      32.768 -10.309 -23.038  0.00  0.00    +0.134 C 
BRANCH  22  23
ATOM     23  O   UNL     1      32.671  -8.970 -22.821  0.00  0.00    -0.506 OA
ATOM     24  H   UNL     1      31.922  -8.497 -23.128  0.00  0.00    +0.292 HD
ENDBRANCH  22  23
ENDBRANCH  16  17
BRANCH  16  25
ATOM     25  O   UNL     1      33.087 -14.714 -25.137  0.00  0.00    -0.382 OA
ATOM     26  H   UNL     1      33.920 -14.375 -25.499  0.00  0.00    +0.211 HD
ENDBRANCH  16  25
ENDBRANCH  14  16
ENDBRANCH   1  14
TORSDOF 9
ENDMDL
MODEL 6
REMARK VINA RESULT:      -9.2      5.700      9.393
REMARK  Name = 4567
REMARK  9 active torsions:
REMARK  status: ('A' for Active; 'I' for Inactive)
REMARK    1  A    between atoms: N_1  and  C_4
REMARK    2  A    between atoms: N_1  and  C_14
REMARK    3  A    between atoms: C_4  and  C_6
REMARK    4  A    between atoms: C_6  and  C_7
REMARK    5  A    between atoms: C_7  and  C_8
REMARK    6  A    between atoms: C_14  and  C_16
REMARK    7  A    between atoms: C_16  and  C_17
REMARK    8  A    between atoms: C_16  and  O_25
REMARK    9  A    between atoms: C_22  and  O_23
REMARK                            x       y       z     vdW  Elec       q    Type
REMARK                         _______ _______ _______ _____ _____    ______ ____
ROOT
ATOM      1  N   UNL     1      34.166 -23.069 -14.946  0.00  0.00    +0.388 N 
ATOM      2  H   UNL     1      33.251 -22.618 -14.987  0.00  0.00    -0.084 HD
ATOM      3  H   UNL     1      34.824 -22.486 -14.429  0.00  0.00    -0.084 HD
ENDROOT
BRANCH   1   4
ATOM      4  C   UNL     1      34.671 -23.253 -16.307  0.00  0.00    -0.061 C 
ATOM      5  C   UNL     1      35.975 -22.473 -16.479  0.00  0.00    -0.023 C 
BRANCH   4   6
ATOM      6  C   UNL     1      33.630 -22.798 -17.346  0.00  0.00    -0.017 C 
BRANCH   6   7
ATOM      7  C   UNL     1      34.063 -22.956 -18.811  0.00  0.00    +0.024 C 
BRANCH   7   8
ATOM      8  C   UNL     1      34.109 -21.659 -19.578  0.00  0.00    -0.022 C 
ATOM      9  C   UNL     1      35.333 -21.154 -19.990  0.00  0.00    -0.004 C 
ATOM     10  C   UNL     1      32.926 -20.992 -19.861  0.00  0.00    -0.004 C 
ATOM     11  C   UNL     1      35.376 -19.953 -20.700  0.00  0.00    -0.000 C 
ATOM     12  C   UNL     1      32.968 -19.793 -20.571  0.00  0.00    -0.000 C 
ATOM     13  C   UNL     1      34.194 -19.273 -20.991  0.00  0.00    -0.000 C 
ENDBRANCH   7   8
ENDBRANCH   6   7
ENDBRANCH   4   6
ENDBRANCH   1   4
BRANCH   1  14
ATOM     14  C   UNL     1      34.039 -24.347 -14.266  0.00  0.00    -0.030 C 
ATOM     15  C   UNL     1      32.599 -24.474 -13.764  0.00  0.00    -0.021 C 
BRANCH  14  16
ATOM     16  C   UNL     1      35.076 -24.433 -13.123  0.00  0.00    +0.113 C 
BRANCH  16  17
ATOM     17  C   UNL     1      36.405 -25.016 -13.550  0.00  0.00    +0.002 C 
ATOM     18  C   UNL     1      36.442 -25.911 -14.605  0.00  0.00    +0.001 C 
ATOM     19  C   UNL     1      37.554 -24.642 -12.875  0.00  0.00    +0.001 C 
ATOM     20  C   UNL     1      37.667 -26.449 -14.997  0.00  0.00    +0.036 C 
ATOM     21  C   UNL     1      38.780 -25.181 -13.268  0.00  0.00    +0.036 C 
ATOM     22  C   UNL     1      38.836 -26.085 -14.329  0.00  0.00    +0.134 C 
BRANCH  22  23
ATOM     23  O   UNL     1      40.031 -26.609 -14.714  0.00  0.00    -0.506 OA
ATOM     24  H   UNL     1      40.220 -27.513 -14.553  0.00  0.00    +0.292 HD
ENDBRANCH  22  23
ENDBRANCH  16  17
BRANCH  16  25
ATOM     25  O   UNL     1      35.344 -23.126 -12.607  0.00  0.00    -0.382 OA
ATOM     26  H   UNL     1      35.912 -22.644 -13.228  0.00  0.00    +0.211 HD
ENDBRANCH  16  25
ENDBRANCH  14  16
ENDBRANCH   1  14
TORSDOF 9
ENDMDL
MODEL 7
REMARK VINA RESULT:      -9.2      2.386      8.071
REMARK  Name = 4567
REMARK  9 active torsions:
REMARK  status: ('A' for Active; 'I' for Inactive)
REMARK    1  A    between atoms: N_1  and  C_4
REMARK    2  A    between atoms: N_1  and  C_14
REMARK    3  A    between atoms: C_4  and  C_6
REMARK    4  A    between atoms: C_6  and  C_7
REMARK    5  A    between atoms: C_7  and  C_8
REMARK    6  A    between atoms: C_14  and  C_16
REMARK    7  A    between atoms: C_16  and  C_17
REMARK    8  A    between atoms: C_16  and  O_25
REMARK    9  A    between atoms: C_22  and  O_23
REMARK                            x       y       z     vdW  Elec       q    Type
REMARK                         _______ _______ _______ _____ _____    ______ ____
ROOT
ATOM      1  N   UNL     1      34.808 -19.350 -21.157  0.00  0.00    +0.388 N 
ATOM      2  H   UNL     1      35.578 -19.945 -21.464  0.00  0.00    -0.084 HD
ATOM      3  H   UNL     1      35.048 -18.884 -20.282  0.00  0.00    -0.084 HD
ENDROOT
BRANCH   1   4
ATOM      4  C   UNL     1      33.620 -20.176 -20.938  0.00  0.00    -0.061 C 
ATOM      5  C   UNL     1      32.425 -19.277 -20.618  0.00  0.00    -0.023 C 
BRANCH   4   6
ATOM      6  C   UNL     1      33.855 -21.185 -19.799  0.00  0.00    -0.017 C 
BRANCH   6   7
ATOM      7  C   UNL     1      35.318 -21.600 -19.591  0.00  0.00    +0.024 C 
BRANCH   7   8
ATOM      8  C   UNL     1      35.644 -22.006 -18.176  0.00  0.00    -0.022 C 
ATOM      9  C   UNL     1      36.878 -21.673 -17.639  0.00  0.00    -0.004 C 
ATOM     10  C   UNL     1      34.703 -22.705 -17.434  0.00  0.00    -0.004 C 
ATOM     11  C   UNL     1      37.179 -22.049 -16.329  0.00  0.00    -0.000 C 
ATOM     12  C   UNL     1      35.003 -23.080 -16.125  0.00  0.00    -0.000 C 
ATOM     13  C   UNL     1      36.242 -22.751 -15.572  0.00  0.00    -0.000 C 
ENDBRANCH   7   8
ENDBRANCH   6   7
ENDBRANCH   4   6
ENDBRANCH   1   4
BRANCH   1  14
ATOM     14  C   UNL     1      34.553 -18.339 -22.170  0.00  0.00    -0.030 C 
ATOM     15  C   UNL     1      35.159 -18.828 -23.488  0.00  0.00    -0.021 C 
BRANCH  14  16
ATOM     16  C   UNL     1      35.140 -16.985 -21.713  0.00  0.00    +0.113 C 
BRANCH  16  17
ATOM     17  C   UNL     1      34.183 -15.823 -21.869  0.00  0.00    +0.002 C 
ATOM     18  C   UNL     1      33.552 -15.314 -20.747  0.00  0.00    +0.001 C 
ATOM     19  C   UNL     1      33.959 -15.297 -23.128  0.00  0.00    +0.001 C 
ATOM     20  C   UNL     1      32.669 -14.244 -20.891  0.00  0.00    +0.036 C 
ATOM     21  C   UNL     1      33.075 -14.227 -23.272  0.00  0.00    +0.036 C 
ATOM     22  C   UNL     1      32.430 -13.700 -22.153  0.00  0.00    +0.134 C 
BRANCH  22  23
ATOM     23  O   UNL     1      31.569 -12.657 -22.292  0.00  0.00    -0.506 OA
ATOM     24  H   UNL     1      31.899 -11.782 -22.362  0.00  0.00    +0.292 HD
ENDBRANCH  22  23
ENDBRANCH  16  17
BRANCH  16  25
ATOM     25  O   UNL     1      35.493 -17.047 -20.328  0.00  0.00    -0.382 OA
ATOM     26  H   UNL     1      36.336 -17.516 -20.230  0.00  0.00    +0.211 HD
ENDBRANCH  16  25
ENDBRANCH  14  16
ENDBRANCH   1  14
TORSDOF 9
ENDMDL
MODEL 8
REMARK VINA RESULT:      -9.2      5.543      9.055
REMARK  Name = 4567
REMARK  9 active torsions:
REMARK  status: ('A' for Active; 'I' for Inactive)
REMARK    1  A    between atoms: N_1  and  C_4
REMARK    2  A    between atoms: N_1  and  C_14
REMARK    3  A    between atoms: C_4  and  C_6
REMARK    4  A    between atoms: C_6  and  C_7
REMARK    5  A    between atoms: C_7  and  C_8
REMARK    6  A    between atoms: C_14  and  C_16
REMARK    7  A    between atoms: C_16  and  C_17
REMARK    8  A    between atoms: C_16  and  O_25
REMARK    9  A    between atoms: C_22  and  O_23
REMARK                            x       y       z     vdW  Elec       q    Type
REMARK                         _______ _______ _______ _____ _____    ______ ____
ROOT
ATOM      1  N   UNL     1      35.260 -23.379 -16.576  0.00  0.00    +0.388 N 
ATOM      2  H   UNL     1      35.566 -23.391 -17.550  0.00  0.00    -0.084 HD
ATOM      3  H   UNL     1      35.248 -24.326 -16.199  0.00  0.00    -0.084 HD
ENDROOT
BRANCH   1   4
ATOM      4  C   UNL     1      33.908 -22.827 -16.504  0.00  0.00    -0.061 C 
ATOM      5  C   UNL     1      33.086 -23.619 -15.488  0.00  0.00    -0.023 C 
BRANCH   4   6
ATOM      6  C   UNL     1      33.228 -22.854 -17.885  0.00  0.00    -0.017 C 
BRANCH   6   7
ATOM      7  C   UNL     1      34.189 -22.807 -19.082  0.00  0.00    +0.024 C 
BRANCH   7   8
ATOM      8  C   UNL     1      34.221 -21.475 -19.788  0.00  0.00    -0.022 C 
ATOM      9  C   UNL     1      33.031 -20.815 -20.052  0.00  0.00    -0.004 C 
ATOM     10  C   UNL     1      35.442 -20.932 -20.162  0.00  0.00    -0.004 C 
ATOM     11  C   UNL     1      33.061 -19.583 -20.705  0.00  0.00    -0.000 C 
ATOM     12  C   UNL     1      35.472 -19.700 -20.815  0.00  0.00    -0.000 C 
ATOM     13  C   UNL     1      34.281 -19.025 -21.086  0.00  0.00    -0.000 C 
ENDBRANCH   7   8
ENDBRANCH   6   7
ENDBRANCH   4   6
ENDBRANCH   1   4
BRANCH   1  14
ATOM     14  C   UNL     1      36.187 -22.577 -15.795  0.00  0.00    -0.030 C 
ATOM     15  C   UNL     1      36.944 -21.658 -16.757  0.00  0.00    -0.021 C 
BRANCH  14  16
ATOM     16  C   UNL     1      37.130 -23.504 -14.994  0.00  0.00    +0.113 C 
BRANCH  16  17
ATOM     17  C   UNL     1      36.691 -23.730 -13.564  0.00  0.00    +0.002 C 
ATOM     18  C   UNL     1      37.365 -23.085 -12.541  0.00  0.00    +0.001 C 
ATOM     19  C   UNL     1      35.626 -24.576 -13.311  0.00  0.00    +0.001 C 
ATOM     20  C   UNL     1      36.960 -23.294 -11.223  0.00  0.00    +0.036 C 
ATOM     21  C   UNL     1      35.222 -24.785 -11.992  0.00  0.00    +0.036 C 
ATOM     22  C   UNL     1      35.889 -24.144 -10.947  0.00  0.00    +0.134 C 
BRANCH  22  23
ATOM     23  O   UNL     1      35.495 -24.347  -9.662  0.00  0.00    -0.506 OA
ATOM     24  H   UNL     1      35.154 -23.633  -9.158  0.00  0.00    +0.292 HD
ENDBRANCH  22  23
ENDBRANCH  16  17
BRANCH  16  25
ATOM     25  O   UNL     1      37.193 -24.791 -15.615  0.00  0.00    -0.382 OA
ATOM     26  H   UNL     1      37.698 -25.397 -15.051  0.00  0.00    +0.211 HD
ENDBRANCH  16  25
ENDBRANCH  14  16
ENDBRANCH   1  14
TORSDOF 9
ENDMDL
MODEL 9
REMARK VINA RESULT:      -9.1      2.826      7.908
REMARK  Name = 4567
REMARK  9 active torsions:
REMARK  status: ('A' for Active; 'I' for Inactive)
REMARK    1  A    between atoms: N_1  and  C_4
REMARK    2  A    between atoms: N_1  and  C_14
REMARK    3  A    between atoms: C_4  and  C_6
REMARK    4  A    between atoms: C_6  and  C_7
REMARK    5  A    between atoms: C_7  and  C_8
REMARK    6  A    between atoms: C_14  and  C_16
REMARK    7  A    between atoms: C_16  and  C_17
REMARK    8  A    between atoms: C_16  and  O_25
REMARK    9  A    between atoms: C_22  and  O_23
REMARK                            x       y       z     vdW  Elec       q    Type
REMARK                         _______ _______ _______ _____ _____    ______ ____
ROOT
ATOM      1  N   UNL     1      34.070 -16.420 -22.448  0.00  0.00    +0.388 N 
ATOM      2  H   UNL     1      33.627 -16.949 -21.696  0.00  0.00    -0.084 HD
ATOM      3  H   UNL     1      33.413 -16.281 -23.215  0.00  0.00    -0.084 HD
ENDROOT
BRANCH   1   4
ATOM      4  C   UNL     1      35.223 -17.168 -22.948  0.00  0.00    -0.061 C 
ATOM      5  C   UNL     1      35.030 -17.475 -24.433  0.00  0.00    -0.023 C 
BRANCH   4   6
ATOM      6  C   UNL     1      35.421 -18.470 -22.151  0.00  0.00    -0.017 C 
BRANCH   6   7
ATOM      7  C   UNL     1      34.137 -19.069 -21.557  0.00  0.00    +0.024 C 
BRANCH   7   8
ATOM      8  C   UNL     1      34.381 -20.190 -20.578  0.00  0.00    -0.022 C 
ATOM      9  C   UNL     1      35.683 -20.558 -20.275  0.00  0.00    -0.004 C 
ATOM     10  C   UNL     1      33.299 -20.834 -19.996  0.00  0.00    -0.004 C 
ATOM     11  C   UNL     1      35.909 -21.596 -19.370  0.00  0.00    -0.000 C 
ATOM     12  C   UNL     1      33.524 -21.870 -19.090  0.00  0.00    -0.000 C 
ATOM     13  C   UNL     1      34.830 -22.251 -18.777  0.00  0.00    -0.000 C 
ENDBRANCH   7   8
ENDBRANCH   6   7
ENDBRANCH   4   6
ENDBRANCH   1   4
BRANCH   1  14
ATOM     14  C   UNL     1      34.479 -15.121 -21.941  0.00  0.00    -0.030 C 
ATOM     15  C   UNL     1      34.662 -15.241 -20.427  0.00  0.00    -0.021 C 
BRANCH  14  16
ATOM     16  C   UNL     1      33.426 -14.057 -22.328  0.00  0.00    +0.113 C 
BRANCH  16  17
ATOM     17  C   UNL     1      33.399 -13.738 -23.807  0.00  0.00    +0.002 C 
ATOM     18  C   UNL     1      32.968 -14.706 -24.698  0.00  0.00    +0.001 C 
ATOM     19  C   UNL     1      33.806 -12.487 -24.236  0.00  0.00    +0.001 C 
ATOM     20  C   UNL     1      32.945 -14.412 -26.062  0.00  0.00    +0.036 C 
ATOM     21  C   UNL     1      33.783 -12.194 -25.600  0.00  0.00    +0.036 C 
ATOM     22  C   UNL     1      33.352 -13.157 -26.513  0.00  0.00    +0.134 C 
BRANCH  22  23
ATOM     23  O   UNL     1      33.327 -12.871 -27.843  0.00  0.00    -0.506 OA
ATOM     24  H   UNL     1      33.264 -11.981 -28.130  0.00  0.00    +0.292 HD
ENDBRANCH  22  23
ENDBRANCH  16  17
BRANCH  16  25
ATOM     25  O   UNL     1      32.116 -14.516 -21.980  0.00  0.00    -0.382 OA
ATOM     26  H   UNL     1      32.012 -15.438 -22.263  0.00  0.00    +0.211 HD
ENDBRANCH  16  25
ENDBRANCH  14  16
ENDBRANCH   1  14
TORSDOF 9
ENDMDL
