MODEL 1
REMARK VINA RESULT:     -10.4      0.000      0.000
REMARK  Name = 16122581
REMARK  13 active torsions:
REMARK  status: ('A' for Active; 'I' for Inactive)
REMARK    1  A    between atoms: S_1  and  C_4
REMARK    2  A    between atoms: S_1  and  N_19
REMARK    3  A    between atoms: C_12  and  O_14
REMARK    4  A    between atoms: O_14  and  C_15
REMARK    5  A    between atoms: C_15  and  C_16
REMARK    6  A    between atoms: C_16  and  C_17
REMARK    7  A    between atoms: N_19  and  C_21
REMARK    8  A    between atoms: C_21  and  C_23
REMARK    9  A    between atoms: C_21  and  C_26
REMARK   10  A    between atoms: C_23  and  O_24
REMARK   11  A    between atoms: C_26  and  C_27
REMARK   12  A    between atoms: C_27  and  C_29
REMARK   13  A    between atoms: C_29  and  O_30
REMARK                            x       y       z     vdW  Elec       q    Type
REMARK                         _______ _______ _______ _____ _____    ______ ____
ROOT
ATOM      1  S   UNL     1      35.614 -24.304 -14.782  0.00  0.00    +0.061 S 
ATOM      2  O   UNL     1      34.515 -23.862 -13.944  0.00  0.00    -0.153 OA
ATOM      3  O   UNL     1      35.660 -25.671 -15.263  0.00  0.00    -0.153 OA
ENDROOT
BRANCH   1   4
ATOM      4  C   UNL     1      35.672 -23.254 -16.203  0.00  0.00    +0.122 C 
ATOM      5  C   UNL     1      34.560 -22.252 -18.121  0.00  0.00    +0.002 C 
ATOM      6  C   UNL     1      35.763 -21.587 -18.461  0.00  0.00    +0.003 C 
ATOM      7  C   UNL     1      34.531 -23.082 -16.988  0.00  0.00    +0.020 C 
ATOM      8  C   UNL     1      36.854 -22.601 -16.538  0.00  0.00    +0.020 C 
ATOM      9  C   UNL     1      36.901 -21.773 -17.660  0.00  0.00    +0.001 C 
ATOM     10  C   UNL     1      35.791 -20.757 -19.594  0.00  0.00    +0.037 C 
ATOM     11  C   UNL     1      33.422 -22.066 -18.922  0.00  0.00    +0.003 C 
ATOM     12  C   UNL     1      34.651 -20.586 -20.379  0.00  0.00    +0.139 C 
ATOM     13  C   UNL     1      33.469 -21.239 -20.044  0.00  0.00    +0.037 C 
BRANCH  12  14
ATOM     14  O   UNL     1      34.696 -19.776 -21.473  0.00  0.00    -0.475 OA
BRANCH  14  15
ATOM     15  C   UNL     1      35.798 -18.875 -21.568  0.00  0.00    +0.205 C 
BRANCH  15  16
ATOM     16  C   UNL     1      35.714 -18.134 -22.895  0.00  0.00    +0.047 C 
BRANCH  16  17
ATOM     17  C   UNL     1      34.999 -18.963 -23.958  0.00  0.00    +0.004 C 
ATOM     18  C   UNL     1      34.434 -18.085 -25.063  0.00  0.00    +0.000 C 
ENDBRANCH  16  17
ENDBRANCH  15  16
ENDBRANCH  14  15
ENDBRANCH  12  14
ENDBRANCH   1   4
BRANCH   1  19
ATOM     19  N   UNL     1      37.087 -23.938 -14.017  0.00  0.00    -0.170 NA
ATOM     20  H   UNL     1      37.073 -22.939 -13.812  0.00  0.00    +0.149 HD
BRANCH  19  21
ATOM     21  C   UNL     1      37.456 -24.627 -12.760  0.00  0.00    +0.174 C 
BRANCH  21  23
ATOM     22  O   UNL     1      38.265 -22.579 -11.726  0.00  0.00    -0.249 OA
ATOM     23  C   UNL     1      37.569 -23.585 -11.673  0.00  0.00    +0.330 C 
BRANCH  23  24
ATOM     24  O   UNL     1      36.781 -23.874 -10.604  0.00  0.00    -0.479 OA
ATOM     25  H   UNL     1      37.165 -24.211  -9.817  0.00  0.00    +0.295 HD
ENDBRANCH  23  24
ENDBRANCH  21  23
BRANCH  21  26
ATOM     26  C   UNL     1      38.717 -25.476 -12.960  0.00  0.00    +0.040 C 
BRANCH  26  27
ATOM     27  C   UNL     1      38.988 -25.968 -14.385  0.00  0.00    +0.111 C 
BRANCH  27  29
ATOM     28  O   UNL     1      41.072 -24.747 -14.366  0.00  0.00    -0.250 OA
ATOM     29  C   UNL     1      40.298 -25.487 -14.958  0.00  0.00    +0.314 C 
BRANCH  29  30
ATOM     30  O   UNL     1      40.522 -25.947 -16.214  0.00  0.00    -0.480 OA
ATOM     31  H   UNL     1      41.393 -25.957 -16.560  0.00  0.00    +0.295 HD
ENDBRANCH  29  30
ENDBRANCH  27  29
ENDBRANCH  26  27
ENDBRANCH  21  26
ENDBRANCH  19  21
ENDBRANCH   1  19
TORSDOF 13
ENDMDL
MODEL 2
REMARK VINA RESULT:     -10.0      0.671      1.599
REMARK  Name = 16122581
REMARK  13 active torsions:
REMARK  status: ('A' for Active; 'I' for Inactive)
REMARK    1  A    between atoms: S_1  and  C_4
REMARK    2  A    between atoms: S_1  and  N_19
REMARK    3  A    between atoms: C_12  and  O_14
REMARK    4  A    between atoms: O_14  and  C_15
REMARK    5  A    between atoms: C_15  and  C_16
REMARK    6  A    between atoms: C_16  and  C_17
REMARK    7  A    between atoms: N_19  and  C_21
REMARK    8  A    between atoms: C_21  and  C_23
REMARK    9  A    between atoms: C_21  and  C_26
REMARK   10  A    between atoms: C_23  and  O_24
REMARK   11  A    between atoms: C_26  and  C_27
REMARK   12  A    between atoms: C_27  and  C_29
REMARK   13  A    between atoms: C_29  and  O_30
REMARK                            x       y       z     vdW  Elec       q    Type
REMARK                         _______ _______ _______ _____ _____    ______ ____
ROOT
ATOM      1  S   UNL     1      35.079 -24.423 -14.479  0.00  0.00    +0.061 S 
ATOM      2  O   UNL     1      33.962 -24.156 -13.593  0.00  0.00    -0.153 OA
ATOM      3  O   UNL     1      35.414 -25.786 -14.842  0.00  0.00    -0.153 OA
ENDROOT
BRANCH   1   4
ATOM      4  C   UNL     1      34.803 -23.540 -15.986  0.00  0.00    +0.122 C 
ATOM      5  C   UNL     1      35.646 -22.130 -17.780  0.00  0.00    +0.002 C 
ATOM      6  C   UNL     1      34.364 -22.140 -18.380  0.00  0.00    +0.003 C 
ATOM      7  C   UNL     1      35.849 -22.836 -16.583  0.00  0.00    +0.020 C 
ATOM      8  C   UNL     1      33.542 -23.550 -16.577  0.00  0.00    +0.020 C 
ATOM      9  C   UNL     1      33.323 -22.854 -17.765  0.00  0.00    +0.001 C 
ATOM     10  C   UNL     1      34.161 -21.434 -19.577  0.00  0.00    +0.037 C 
ATOM     11  C   UNL     1      36.687 -21.416 -18.395  0.00  0.00    +0.003 C 
ATOM     12  C   UNL     1      35.208 -20.729 -20.174  0.00  0.00    +0.139 C 
ATOM     13  C   UNL     1      36.467 -20.720 -19.584  0.00  0.00    +0.037 C 
BRANCH  12  14
ATOM     14  O   UNL     1      34.995 -20.052 -21.335  0.00  0.00    -0.475 OA
BRANCH  14  15
ATOM     15  C   UNL     1      35.840 -18.933 -21.598  0.00  0.00    +0.205 C 
BRANCH  15  16
ATOM     16  C   UNL     1      35.212 -18.090 -22.699  0.00  0.00    +0.047 C 
BRANCH  16  17
ATOM     17  C   UNL     1      34.754 -18.949 -23.874  0.00  0.00    +0.004 C 
ATOM     18  C   UNL     1      34.439 -18.101 -25.095  0.00  0.00    +0.000 C 
ENDBRANCH  16  17
ENDBRANCH  15  16
ENDBRANCH  14  15
ENDBRANCH  12  14
ENDBRANCH   1   4
BRANCH   1  19
ATOM     19  N   UNL     1      36.471 -23.656 -13.876  0.00  0.00    -0.170 NA
ATOM     20  H   UNL     1      36.193 -22.713 -13.602  0.00  0.00    +0.149 HD
BRANCH  19  21
ATOM     21  C   UNL     1      37.194 -24.240 -12.724  0.00  0.00    +0.174 C 
BRANCH  21  23
ATOM     22  O   UNL     1      36.571 -23.418 -10.521  0.00  0.00    -0.249 OA
ATOM     23  C   UNL     1      37.145 -23.246 -11.589  0.00  0.00    +0.330 C 
BRANCH  23  24
ATOM     24  O   UNL     1      37.840 -22.112 -11.870  0.00  0.00    -0.479 OA
ATOM     25  H   UNL     1      38.728 -22.169 -12.164  0.00  0.00    +0.295 HD
ENDBRANCH  23  24
ENDBRANCH  21  23
BRANCH  21  26
ATOM     26  C   UNL     1      38.608 -24.667 -13.135  0.00  0.00    +0.040 C 
BRANCH  26  27
ATOM     27  C   UNL     1      38.766 -25.231 -14.550  0.00  0.00    +0.111 C 
BRANCH  27  29
ATOM     28  O   UNL     1      41.114 -24.668 -14.483  0.00  0.00    -0.250 OA
ATOM     29  C   UNL     1      40.188 -25.232 -15.052  0.00  0.00    +0.314 C 
BRANCH  29  30
ATOM     30  O   UNL     1      40.334 -25.912 -16.216  0.00  0.00    -0.480 OA
ATOM     31  H   UNL     1      41.173 -25.955 -16.631  0.00  0.00    +0.295 HD
ENDBRANCH  29  30
ENDBRANCH  27  29
ENDBRANCH  26  27
ENDBRANCH  21  26
ENDBRANCH  19  21
ENDBRANCH   1  19
TORSDOF 13
ENDMDL
MODEL 3
REMARK VINA RESULT:      -9.8      4.913     10.465
REMARK  Name = 16122581
REMARK  13 active torsions:
REMARK  status: ('A' for Active; 'I' for Inactive)
REMARK    1  A    between atoms: S_1  and  C_4
REMARK    2  A    between atoms: S_1  and  N_19
REMARK    3  A    between atoms: C_12  and  O_14
REMARK    4  A    between atoms: O_14  and  C_15
REMARK    5  A    between atoms: C_15  and  C_16
REMARK    6  A    between atoms: C_16  and  C_17
REMARK    7  A    between atoms: N_19  and  C_21
REMARK    8  A    between atoms: C_21  and  C_23
REMARK    9  A    between atoms: C_21  and  C_26
REMARK   10  A    between atoms: C_23  and  O_24
REMARK   11  A    between atoms: C_26  and  C_27
REMARK   12  A    between atoms: C_27  and  C_29
REMARK   13  A    between atoms: C_29  and  O_30
REMARK                            x       y       z     vdW  Elec       q    Type
REMARK                         _______ _______ _______ _____ _____    ______ ____
ROOT
ATOM      1  S   UNL     1      35.348 -18.569 -22.759  0.00  0.00    +0.061 S 
ATOM      2  O   UNL     1      36.698 -18.205 -22.372  0.00  0.00    -0.153 OA
ATOM      3  O   UNL     1      35.106 -19.230 -24.027  0.00  0.00    -0.153 OA
ENDROOT
BRANCH   1   4
ATOM      4  C   UNL     1      34.683 -19.614 -21.497  0.00  0.00    +0.122 C 
ATOM      5  C   UNL     1      35.027 -21.108 -19.609  0.00  0.00    +0.002 C 
ATOM      6  C   UNL     1      33.627 -21.273 -19.493  0.00  0.00    +0.003 C 
ATOM      7  C   UNL     1      35.539 -20.275 -20.616  0.00  0.00    +0.020 C 
ATOM      8  C   UNL     1      33.305 -19.777 -21.383  0.00  0.00    +0.020 C 
ATOM      9  C   UNL     1      32.779 -20.601 -20.389  0.00  0.00    +0.001 C 
ATOM     10  C   UNL     1      33.114 -22.106 -18.485  0.00  0.00    +0.037 C 
ATOM     11  C   UNL     1      35.875 -21.780 -18.713  0.00  0.00    +0.003 C 
ATOM     12  C   UNL     1      33.972 -22.768 -17.605  0.00  0.00    +0.139 C 
ATOM     13  C   UNL     1      35.348 -22.605 -17.719  0.00  0.00    +0.037 C 
BRANCH  12  14
ATOM     14  O   UNL     1      33.458 -23.570 -16.632  0.00  0.00    -0.475 OA
BRANCH  14  15
ATOM     15  C   UNL     1      32.053 -23.492 -16.401  0.00  0.00    +0.205 C 
BRANCH  15  16
ATOM     16  C   UNL     1      31.814 -22.918 -15.011  0.00  0.00    +0.047 C 
BRANCH  16  17
ATOM     17  C   UNL     1      32.464 -23.775 -13.929  0.00  0.00    +0.004 C 
ATOM     18  C   UNL     1      31.743 -25.102 -13.762  0.00  0.00    +0.000 C 
ENDBRANCH  16  17
ENDBRANCH  15  16
ENDBRANCH  14  15
ENDBRANCH  12  14
ENDBRANCH   1   4
BRANCH   1  19
ATOM     19  N   UNL     1      34.343 -17.204 -22.648  0.00  0.00    -0.170 NA
ATOM     20  H   UNL     1      33.667 -17.394 -21.907  0.00  0.00    +0.149 HD
BRANCH  19  21
ATOM     21  C   UNL     1      34.931 -15.876 -22.358  0.00  0.00    +0.174 C 
BRANCH  21  23
ATOM     22  O   UNL     1      35.046 -15.935 -19.930  0.00  0.00    -0.249 OA
ATOM     23  C   UNL     1      34.541 -15.489 -20.952  0.00  0.00    +0.330 C 
BRANCH  23  24
ATOM     24  O   UNL     1      33.557 -14.552 -20.933  0.00  0.00    -0.479 OA
ATOM     25  H   UNL     1      33.028 -14.413 -21.695  0.00  0.00    +0.295 HD
ENDBRANCH  23  24
ENDBRANCH  21  23
BRANCH  21  26
ATOM     26  C   UNL     1      34.526 -14.861 -23.434  0.00  0.00    +0.040 C 
BRANCH  26  27
ATOM     27  C   UNL     1      33.403 -15.286 -24.384  0.00  0.00    +0.111 C 
BRANCH  27  29
ATOM     28  O   UNL     1      33.510 -15.095 -26.789  0.00  0.00    -0.250 OA
ATOM     29  C   UNL     1      33.880 -15.656 -25.766  0.00  0.00    +0.314 C 
BRANCH  29  30
ATOM     30  O   UNL     1      34.752 -16.694 -25.760  0.00  0.00    -0.480 OA
ATOM     31  H   UNL     1      35.635 -16.565 -26.046  0.00  0.00    +0.295 HD
ENDBRANCH  29  30
ENDBRANCH  27  29
ENDBRANCH  26  27
ENDBRANCH  21  26
ENDBRANCH  19  21
ENDBRANCH   1  19
TORSDOF 13
ENDMDL
MODEL 4
REMARK VINA RESULT:      -9.8      1.871      3.320
REMARK  Name = 16122581
REMARK  13 active torsions:
REMARK  status: ('A' for Active; 'I' for Inactive)
REMARK    1  A    between atoms: S_1  and  C_4
REMARK    2  A    between atoms: S_1  and  N_19
REMARK    3  A    between atoms: C_12  and  O_14
REMARK    4  A    between atoms: O_14  and  C_15
REMARK    5  A    between atoms: C_15  and  C_16
REMARK    6  A    between atoms: C_16  and  C_17
REMARK    7  A    between atoms: N_19  and  C_21
REMARK    8  A    between atoms: C_21  and  C_23
REMARK    9  A    between atoms: C_21  and  C_26
REMARK   10  A    between atoms: C_23  and  O_24
REMARK   11  A    between atoms: C_26  and  C_27
REMARK   12  A    between atoms: C_27  and  C_29
REMARK   13  A    between atoms: C_29  and  O_30
REMARK                            x       y       z     vdW  Elec       q    Type
REMARK                         _______ _______ _______ _____ _____    ______ ____
ROOT
ATOM      1  S   UNL     1      36.388 -23.510 -15.455  0.00  0.00    +0.061 S 
ATOM      2  O   UNL     1      36.362 -24.949 -15.642  0.00  0.00    -0.153 OA
ATOM      3  O   UNL     1      37.644 -22.830 -15.205  0.00  0.00    -0.153 OA
ENDROOT
BRANCH   1   4
ATOM      4  C   UNL     1      35.671 -22.760 -16.887  0.00  0.00    +0.122 C 
ATOM      5  C   UNL     1      35.890 -21.327 -18.840  0.00  0.00    +0.002 C 
ATOM      6  C   UNL     1      34.534 -21.570 -19.161  0.00  0.00    +0.003 C 
ATOM      7  C   UNL     1      36.444 -21.931 -17.699  0.00  0.00    +0.020 C 
ATOM      8  C   UNL     1      34.336 -22.999 -17.203  0.00  0.00    +0.020 C 
ATOM      9  C   UNL     1      33.770 -22.408 -18.332  0.00  0.00    +0.001 C 
ATOM     10  C   UNL     1      33.980 -20.967 -20.302  0.00  0.00    +0.037 C 
ATOM     11  C   UNL     1      36.654 -20.489 -19.669  0.00  0.00    +0.003 C 
ATOM     12  C   UNL     1      34.753 -20.136 -21.114  0.00  0.00    +0.139 C 
ATOM     13  C   UNL     1      36.087 -19.898 -20.798  0.00  0.00    +0.037 C 
BRANCH  12  14
ATOM     14  O   UNL     1      34.201 -19.560 -22.218  0.00  0.00    -0.475 OA
BRANCH  14  15
ATOM     15  C   UNL     1      35.055 -18.748 -23.021  0.00  0.00    +0.205 C 
BRANCH  15  16
ATOM     16  C   UNL     1      34.582 -18.816 -24.466  0.00  0.00    +0.047 C 
BRANCH  16  17
ATOM     17  C   UNL     1      34.624 -17.447 -25.138  0.00  0.00    +0.004 C 
ATOM     18  C   UNL     1      34.771 -16.330 -24.118  0.00  0.00    +0.000 C 
ENDBRANCH  16  17
ENDBRANCH  15  16
ENDBRANCH  14  15
ENDBRANCH  12  14
ENDBRANCH   1   4
BRANCH   1  19
ATOM     19  N   UNL     1      35.277 -23.080 -14.242  0.00  0.00    -0.170 NA
ATOM     20  H   UNL     1      34.504 -22.603 -14.706  0.00  0.00    +0.149 HD
BRANCH  19  21
ATOM     21  C   UNL     1      34.680 -24.128 -13.384  0.00  0.00    +0.174 C 
BRANCH  21  23
ATOM     22  O   UNL     1      32.375 -24.853 -13.100  0.00  0.00    -0.249 OA
ATOM     23  C   UNL     1      33.178 -24.009 -13.480  0.00  0.00    +0.330 C 
BRANCH  23  24
ATOM     24  O   UNL     1      32.791 -22.827 -14.028  0.00  0.00    -0.479 OA
ATOM     25  H   UNL     1      32.003 -22.411 -13.737  0.00  0.00    +0.295 HD
ENDBRANCH  23  24
ENDBRANCH  21  23
BRANCH  21  26
ATOM     26  C   UNL     1      35.235 -24.040 -11.958  0.00  0.00    +0.040 C 
BRANCH  26  27
ATOM     27  C   UNL     1      36.647 -24.593 -11.741  0.00  0.00    +0.111 C 
BRANCH  27  29
ATOM     28  O   UNL     1      38.854 -23.708 -12.159  0.00  0.00    -0.250 OA
ATOM     29  C   UNL     1      37.722 -23.536 -11.728  0.00  0.00    +0.314 C 
BRANCH  29  30
ATOM     30  O   UNL     1      37.308 -22.373 -11.167  0.00  0.00    -0.480 OA
ATOM     31  H   UNL     1      37.132 -21.628 -11.709  0.00  0.00    +0.295 HD
ENDBRANCH  29  30
ENDBRANCH  27  29
ENDBRANCH  26  27
ENDBRANCH  21  26
ENDBRANCH  19  21
ENDBRANCH   1  19
TORSDOF 13
ENDMDL
MODEL 5
REMARK VINA RESULT:      -9.7      1.539      3.444
REMARK  Name = 16122581
REMARK  13 active torsions:
REMARK  status: ('A' for Active; 'I' for Inactive)
REMARK    1  A    between atoms: S_1  and  C_4
REMARK    2  A    between atoms: S_1  and  N_19
REMARK    3  A    between atoms: C_12  and  O_14
REMARK    4  A    between atoms: O_14  and  C_15
REMARK    5  A    between atoms: C_15  and  C_16
REMARK    6  A    between atoms: C_16  and  C_17
REMARK    7  A    between atoms: N_19  and  C_21
REMARK    8  A    between atoms: C_21  and  C_23
REMARK    9  A    between atoms: C_21  and  C_26
REMARK   10  A    between atoms: C_23  and  O_24
REMARK   11  A    between atoms: C_26  and  C_27
REMARK   12  A    between atoms: C_27  and  C_29
REMARK   13  A    between atoms: C_29  and  O_30
REMARK                            x       y       z     vdW  Elec       q    Type
REMARK                         _______ _______ _______ _____ _____    ______ ____
ROOT
ATOM      1  S   UNL     1      35.279 -23.928 -15.099  0.00  0.00    +0.061 S 
ATOM      2  O   UNL     1      35.359 -22.940 -14.039  0.00  0.00    -0.153 OA
ATOM      3  O   UNL     1      34.307 -25.002 -15.024  0.00  0.00    -0.153 OA
ENDROOT
BRANCH   1   4
ATOM      4  C   UNL     1      34.988 -23.074 -16.620  0.00  0.00    +0.122 C 
ATOM      5  C   UNL     1      35.802 -21.663 -18.425  0.00  0.00    +0.002 C 
ATOM      6  C   UNL     1      34.527 -21.719 -19.035  0.00  0.00    +0.003 C 
ATOM      7  C   UNL     1      36.017 -22.346 -17.217  0.00  0.00    +0.020 C 
ATOM      8  C   UNL     1      33.733 -23.130 -17.219  0.00  0.00    +0.020 C 
ATOM      9  C   UNL     1      33.503 -22.457 -18.419  0.00  0.00    +0.001 C 
ATOM     10  C   UNL     1      34.312 -21.036 -20.243  0.00  0.00    +0.037 C 
ATOM     11  C   UNL     1      36.826 -20.925 -19.041  0.00  0.00    +0.003 C 
ATOM     12  C   UNL     1      35.341 -20.307 -20.840  0.00  0.00    +0.139 C 
ATOM     13  C   UNL     1      36.595 -20.252 -20.241  0.00  0.00    +0.037 C 
BRANCH  12  14
ATOM     14  O   UNL     1      35.117 -19.651 -22.012  0.00  0.00    -0.475 OA
BRANCH  14  15
ATOM     15  C   UNL     1      35.492 -18.276 -22.068  0.00  0.00    +0.205 C 
BRANCH  15  16
ATOM     16  C   UNL     1      34.278 -17.421 -21.729  0.00  0.00    +0.047 C 
BRANCH  16  17
ATOM     17  C   UNL     1      34.585 -15.932 -21.855  0.00  0.00    +0.004 C 
ATOM     18  C   UNL     1      34.540 -15.238 -20.503  0.00  0.00    +0.000 C 
ENDBRANCH  16  17
ENDBRANCH  15  16
ENDBRANCH  14  15
ENDBRANCH  12  14
ENDBRANCH   1   4
BRANCH   1  19
ATOM     19  N   UNL     1      36.819 -24.596 -15.362  0.00  0.00    -0.170 NA
ATOM     20  H   UNL     1      37.281 -24.008 -16.056  0.00  0.00    +0.149 HD
BRANCH  19  21
ATOM     21  C   UNL     1      37.763 -24.744 -14.231  0.00  0.00    +0.174 C 
BRANCH  21  23
ATOM     22  O   UNL     1      40.007 -24.726 -15.168  0.00  0.00    -0.249 OA
ATOM     23  C   UNL     1      39.037 -25.354 -14.763  0.00  0.00    +0.330 C 
BRANCH  23  24
ATOM     24  O   UNL     1      39.009 -26.712 -14.726  0.00  0.00    -0.479 OA
ATOM     25  H   UNL     1      39.152 -27.162 -13.916  0.00  0.00    +0.295 HD
ENDBRANCH  23  24
ENDBRANCH  21  23
BRANCH  21  26
ATOM     26  C   UNL     1      37.112 -25.527 -13.085  0.00  0.00    +0.040 C 
BRANCH  26  27
ATOM     27  C   UNL     1      37.104 -24.847 -11.713  0.00  0.00    +0.111 C 
BRANCH  27  29
ATOM     28  O   UNL     1      35.525 -24.425  -9.934  0.00  0.00    -0.250 OA
ATOM     29  C   UNL     1      35.729 -24.711 -11.107  0.00  0.00    +0.314 C 
BRANCH  29  30
ATOM     30  O   UNL     1      34.736 -24.960 -11.996  0.00  0.00    -0.480 OA
ATOM     31  H   UNL     1      33.931 -24.483 -11.944  0.00  0.00    +0.295 HD
ENDBRANCH  29  30
ENDBRANCH  27  29
ENDBRANCH  26  27
ENDBRANCH  21  26
ENDBRANCH  19  21
ENDBRANCH   1  19
TORSDOF 13
ENDMDL
MODEL 6
REMARK VINA RESULT:      -9.5      3.675      6.039
REMARK  Name = 16122581
REMARK  13 active torsions:
REMARK  status: ('A' for Active; 'I' for Inactive)
REMARK    1  A    between atoms: S_1  and  C_4
REMARK    2  A    between atoms: S_1  and  N_19
REMARK    3  A    between atoms: C_12  and  O_14
REMARK    4  A    between atoms: O_14  and  C_15
REMARK    5  A    between atoms: C_15  and  C_16
REMARK    6  A    between atoms: C_16  and  C_17
REMARK    7  A    between atoms: N_19  and  C_21
REMARK    8  A    between atoms: C_21  and  C_23
REMARK    9  A    between atoms: C_21  and  C_26
REMARK   10  A    between atoms: C_23  and  O_24
REMARK   11  A    between atoms: C_26  and  C_27
REMARK   12  A    between atoms: C_27  and  C_29
REMARK   13  A    between atoms: C_29  and  O_30
REMARK                            x       y       z     vdW  Elec       q    Type
REMARK                         _______ _______ _______ _____ _____    ______ ____
ROOT
ATOM      1  S   UNL     1      34.175 -23.493 -16.119  0.00  0.00    +0.061 S 
ATOM      2  O   UNL     1      34.953 -24.715 -16.197  0.00  0.00    -0.153 OA
ATOM      3  O   UNL     1      34.271 -22.641 -14.950  0.00  0.00    -0.153 OA
ENDROOT
BRANCH   1   4
ATOM      4  C   UNL     1      34.587 -22.495 -17.520  0.00  0.00    +0.122 C 
ATOM      5  C   UNL     1      33.884 -21.199 -19.455  0.00  0.00    +0.002 C 
ATOM      6  C   UNL     1      35.239 -20.909 -19.743  0.00  0.00    +0.003 C 
ATOM      7  C   UNL     1      33.575 -21.994 -18.339  0.00  0.00    +0.020 C 
ATOM      8  C   UNL     1      35.919 -22.209 -17.803  0.00  0.00    +0.020 C 
ATOM      9  C   UNL     1      36.244 -21.422 -18.908  0.00  0.00    +0.001 C 
ATOM     10  C   UNL     1      35.548 -20.114 -20.859  0.00  0.00    +0.037 C 
ATOM     11  C   UNL     1      32.879 -20.687 -20.291  0.00  0.00    +0.003 C 
ATOM     12  C   UNL     1      34.536 -19.614 -21.679  0.00  0.00    +0.139 C 
ATOM     13  C   UNL     1      33.205 -19.900 -21.395  0.00  0.00    +0.037 C 
BRANCH  12  14
ATOM     14  O   UNL     1      34.853 -18.844 -22.756  0.00  0.00    -0.475 OA
BRANCH  14  15
ATOM     15  C   UNL     1      35.772 -17.774 -22.540  0.00  0.00    +0.205 C 
BRANCH  15  16
ATOM     16  C   UNL     1      35.055 -16.453 -22.784  0.00  0.00    +0.047 C 
BRANCH  16  17
ATOM     17  C   UNL     1      34.686 -15.763 -21.474  0.00  0.00    +0.004 C 
ATOM     18  C   UNL     1      33.258 -16.082 -21.060  0.00  0.00    +0.000 C 
ENDBRANCH  16  17
ENDBRANCH  15  16
ENDBRANCH  14  15
ENDBRANCH  12  14
ENDBRANCH   1   4
BRANCH   1  19
ATOM     19  N   UNL     1      32.539 -23.847 -16.412  0.00  0.00    -0.170 NA
ATOM     20  H   UNL     1      32.474 -24.858 -16.536  0.00  0.00    +0.149 HD
BRANCH  19  21
ATOM     21  C   UNL     1      31.513 -23.473 -15.412  0.00  0.00    +0.174 C 
BRANCH  21  23
ATOM     22  O   UNL     1      31.870 -25.391 -13.959  0.00  0.00    -0.249 OA
ATOM     23  C   UNL     1      31.844 -24.177 -14.118  0.00  0.00    +0.330 C 
BRANCH  23  24
ATOM     24  O   UNL     1      32.139 -23.302 -13.120  0.00  0.00    -0.479 OA
ATOM     25  H   UNL     1      31.524 -22.635 -12.885  0.00  0.00    +0.295 HD
ENDBRANCH  23  24
ENDBRANCH  21  23
BRANCH  21  26
ATOM     26  C   UNL     1      30.106 -23.759 -15.950  0.00  0.00    +0.040 C 
BRANCH  26  27
ATOM     27  C   UNL     1      29.068 -22.648 -15.765  0.00  0.00    +0.111 C 
BRANCH  27  29
ATOM     28  O   UNL     1      27.398 -21.598 -17.158  0.00  0.00    -0.250 OA
ATOM     29  C   UNL     1      28.019 -22.606 -16.848  0.00  0.00    +0.314 C 
BRANCH  29  30
ATOM     30  O   UNL     1      27.819 -23.813 -17.433  0.00  0.00    -0.480 OA
ATOM     31  H   UNL     1      27.419 -24.508 -16.948  0.00  0.00    +0.295 HD
ENDBRANCH  29  30
ENDBRANCH  27  29
ENDBRANCH  26  27
ENDBRANCH  21  26
ENDBRANCH  19  21
ENDBRANCH   1  19
TORSDOF 13
ENDMDL
MODEL 7
REMARK VINA RESULT:      -9.5      5.496      8.832
REMARK  Name = 16122581
REMARK  13 active torsions:
REMARK  status: ('A' for Active; 'I' for Inactive)
REMARK    1  A    between atoms: S_1  and  C_4
REMARK    2  A    between atoms: S_1  and  N_19
REMARK    3  A    between atoms: C_12  and  O_14
REMARK    4  A    between atoms: O_14  and  C_15
REMARK    5  A    between atoms: C_15  and  C_16
REMARK    6  A    between atoms: C_16  and  C_17
REMARK    7  A    between atoms: N_19  and  C_21
REMARK    8  A    between atoms: C_21  and  C_23
REMARK    9  A    between atoms: C_21  and  C_26
REMARK   10  A    between atoms: C_23  and  O_24
REMARK   11  A    between atoms: C_26  and  C_27
REMARK   12  A    between atoms: C_27  and  C_29
REMARK   13  A    between atoms: C_29  and  O_30
REMARK                            x       y       z     vdW  Elec       q    Type
REMARK                         _______ _______ _______ _____ _____    ______ ____
ROOT
ATOM      1  S   UNL     1      35.390 -18.648 -22.061  0.00  0.00    +0.061 S 
ATOM      2  O   UNL     1      34.878 -19.415 -23.182  0.00  0.00    -0.153 OA
ATOM      3  O   UNL     1      36.796 -18.299 -21.998  0.00  0.00    -0.153 OA
ENDROOT
BRANCH   1   4
ATOM      4  C   UNL     1      34.479 -17.135 -21.974  0.00  0.00    +0.122 C 
ATOM      5  C   UNL     1      33.920 -14.962 -22.914  0.00  0.00    +0.002 C 
ATOM      6  C   UNL     1      33.032 -14.733 -21.837  0.00  0.00    +0.003 C 
ATOM      7  C   UNL     1      34.637 -16.169 -22.968  0.00  0.00    +0.020 C 
ATOM      8  C   UNL     1      33.605 -16.910 -20.914  0.00  0.00    +0.020 C 
ATOM      9  C   UNL     1      32.886 -15.717 -20.845  0.00  0.00    +0.001 C 
ATOM     10  C   UNL     1      32.315 -13.526 -21.782  0.00  0.00    +0.037 C 
ATOM     11  C   UNL     1      34.066 -13.979 -23.905  0.00  0.00    +0.003 C 
ATOM     12  C   UNL     1      32.474 -12.559 -22.776  0.00  0.00    +0.139 C 
ATOM     13  C   UNL     1      33.347 -12.786 -23.835  0.00  0.00    +0.037 C 
BRANCH  12  14
ATOM     14  O   UNL     1      31.770 -11.396 -22.710  0.00  0.00    -0.475 OA
BRANCH  14  15
ATOM     15  C   UNL     1      31.207 -11.050 -21.445  0.00  0.00    +0.205 C 
BRANCH  15  16
ATOM     16  C   UNL     1      31.805  -9.728 -20.985  0.00  0.00    +0.047 C 
BRANCH  16  17
ATOM     17  C   UNL     1      31.775  -9.595 -19.465  0.00  0.00    +0.004 C 
ATOM     18  C   UNL     1      31.417 -10.913 -18.798  0.00  0.00    +0.000 C 
ENDBRANCH  16  17
ENDBRANCH  15  16
ENDBRANCH  14  15
ENDBRANCH  12  14
ENDBRANCH   1   4
BRANCH   1  19
ATOM     19  N   UNL     1      34.944 -19.408 -20.608  0.00  0.00    -0.170 NA
ATOM     20  H   UNL     1      34.143 -18.896 -20.240  0.00  0.00    +0.149 HD
BRANCH  19  21
ATOM     21  C   UNL     1      34.571 -20.841 -20.610  0.00  0.00    +0.174 C 
BRANCH  21  23
ATOM     22  O   UNL     1      32.376 -20.152 -19.821  0.00  0.00    -0.249 OA
ATOM     23  C   UNL     1      33.272 -20.986 -19.854  0.00  0.00    +0.330 C 
BRANCH  23  24
ATOM     24  O   UNL     1      33.183 -22.180 -19.212  0.00  0.00    -0.479 OA
ATOM     25  H   UNL     1      33.141 -22.206 -18.275  0.00  0.00    +0.295 HD
ENDBRANCH  23  24
ENDBRANCH  21  23
BRANCH  21  26
ATOM     26  C   UNL     1      35.720 -21.699 -20.069  0.00  0.00    +0.040 C 
BRANCH  26  27
ATOM     27  C   UNL     1      36.602 -21.058 -18.994  0.00  0.00    +0.111 C 
BRANCH  27  29
ATOM     28  O   UNL     1      35.686 -22.602 -17.378  0.00  0.00    -0.250 OA
ATOM     29  C   UNL     1      36.465 -21.693 -17.632  0.00  0.00    +0.314 C 
BRANCH  29  30
ATOM     30  O   UNL     1      37.285 -21.135 -16.707  0.00  0.00    -0.480 OA
ATOM     31  H   UNL     1      36.940 -20.529 -16.081  0.00  0.00    +0.295 HD
ENDBRANCH  29  30
ENDBRANCH  27  29
ENDBRANCH  26  27
ENDBRANCH  21  26
ENDBRANCH  19  21
ENDBRANCH   1  19
TORSDOF 13
ENDMDL
MODEL 8
REMARK VINA RESULT:      -9.4      1.608      3.495
REMARK  Name = 16122581
REMARK  13 active torsions:
REMARK  status: ('A' for Active; 'I' for Inactive)
REMARK    1  A    between atoms: S_1  and  C_4
REMARK    2  A    between atoms: S_1  and  N_19
REMARK    3  A    between atoms: C_12  and  O_14
REMARK    4  A    between atoms: O_14  and  C_15
REMARK    5  A    between atoms: C_15  and  C_16
REMARK    6  A    between atoms: C_16  and  C_17
REMARK    7  A    between atoms: N_19  and  C_21
REMARK    8  A    between atoms: C_21  and  C_23
REMARK    9  A    between atoms: C_21  and  C_26
REMARK   10  A    between atoms: C_23  and  O_24
REMARK   11  A    between atoms: C_26  and  C_27
REMARK   12  A    between atoms: C_27  and  C_29
REMARK   13  A    between atoms: C_29  and  O_30
REMARK                            x       y       z     vdW  Elec       q    Type
REMARK                         _______ _______ _______ _____ _____    ______ ____
ROOT
ATOM      1  S   UNL     1      37.453 -23.184 -15.245  0.00  0.00    +0.061 S 
ATOM      2  O   UNL     1      38.750 -23.584 -15.759  0.00  0.00    -0.153 OA
ATOM      3  O   UNL     1      37.360 -22.191 -14.193  0.00  0.00    -0.153 OA
ENDROOT
BRANCH   1   4
ATOM      4  C   UNL     1      36.489 -22.589 -16.603  0.00  0.00    +0.122 C 
ATOM      5  C   UNL     1      36.318 -21.271 -18.640  0.00  0.00    +0.002 C 
ATOM      6  C   UNL     1      34.958 -21.645 -18.759  0.00  0.00    +0.003 C 
ATOM      7  C   UNL     1      37.070 -21.752 -17.555  0.00  0.00    +0.020 C 
ATOM      8  C   UNL     1      35.151 -22.958 -16.720  0.00  0.00    +0.020 C 
ATOM      9  C   UNL     1      34.390 -22.489 -17.791  0.00  0.00    +0.001 C 
ATOM     10  C   UNL     1      34.207 -21.164 -19.844  0.00  0.00    +0.037 C 
ATOM     11  C   UNL     1      36.886 -20.427 -19.608  0.00  0.00    +0.003 C 
ATOM     12  C   UNL     1      34.788 -20.326 -20.796  0.00  0.00    +0.139 C 
ATOM     13  C   UNL     1      36.124 -19.959 -20.678  0.00  0.00    +0.037 C 
BRANCH  12  14
ATOM     14  O   UNL     1      34.045 -19.870 -21.842  0.00  0.00    -0.475 OA
BRANCH  14  15
ATOM     15  C   UNL     1      34.509 -18.693 -22.502  0.00  0.00    +0.205 C 
BRANCH  15  16
ATOM     16  C   UNL     1      35.079 -19.082 -23.859  0.00  0.00    +0.047 C 
BRANCH  16  17
ATOM     17  C   UNL     1      34.253 -18.503 -25.004  0.00  0.00    +0.004 C 
ATOM     18  C   UNL     1      34.548 -17.027 -25.212  0.00  0.00    +0.000 C 
ENDBRANCH  16  17
ENDBRANCH  15  16
ENDBRANCH  14  15
ENDBRANCH  12  14
ENDBRANCH   1   4
BRANCH   1  19
ATOM     19  N   UNL     1      36.582 -24.566 -14.777  0.00  0.00    -0.170 NA
ATOM     20  H   UNL     1      36.324 -25.057 -15.634  0.00  0.00    +0.149 HD
BRANCH  19  21
ATOM     21  C   UNL     1      37.210 -25.567 -13.885  0.00  0.00    +0.174 C 
BRANCH  21  23
ATOM     22  O   UNL     1      38.345 -27.541 -14.740  0.00  0.00    -0.249 OA
ATOM     23  C   UNL     1      37.329 -26.864 -14.648  0.00  0.00    +0.330 C 
BRANCH  23  24
ATOM     24  O   UNL     1      36.154 -27.228 -15.225  0.00  0.00    -0.479 OA
ATOM     25  H   UNL     1      35.882 -26.827 -16.028  0.00  0.00    +0.295 HD
ENDBRANCH  23  24
ENDBRANCH  21  23
BRANCH  21  26
ATOM     26  C   UNL     1      36.437 -25.674 -12.565  0.00  0.00    +0.040 C 
BRANCH  26  27
ATOM     27  C   UNL     1      35.747 -24.398 -12.074  0.00  0.00    +0.111 C 
BRANCH  27  29
ATOM     28  O   UNL     1      36.201 -24.081  -9.724  0.00  0.00    -0.250 OA
ATOM     29  C   UNL     1      36.418 -23.759 -10.885  0.00  0.00    +0.314 C 
BRANCH  29  30
ATOM     30  O   UNL     1      37.278 -22.771 -11.235  0.00  0.00    -0.480 OA
ATOM     31  H   UNL     1      38.193 -22.862 -11.056  0.00  0.00    +0.295 HD
ENDBRANCH  29  30
ENDBRANCH  27  29
ENDBRANCH  26  27
ENDBRANCH  21  26
ENDBRANCH  19  21
ENDBRANCH   1  19
TORSDOF 13
ENDMDL
MODEL 9
REMARK VINA RESULT:      -9.4      4.293      5.984
REMARK  Name = 16122581
REMARK  13 active torsions:
REMARK  status: ('A' for Active; 'I' for Inactive)
REMARK    1  A    between atoms: S_1  and  C_4
REMARK    2  A    between atoms: S_1  and  N_19
REMARK    3  A    between atoms: C_12  and  O_14
REMARK    4  A    between atoms: O_14  and  C_15
REMARK    5  A    between atoms: C_15  and  C_16
REMARK    6  A    between atoms: C_16  and  C_17
REMARK    7  A    between atoms: N_19  and  C_21
REMARK    8  A    between atoms: C_21  and  C_23
REMARK    9  A    between atoms: C_21  and  C_26
REMARK   10  A    between atoms: C_23  and  O_24
REMARK   11  A    between atoms: C_26  and  C_27
REMARK   12  A    between atoms: C_27  and  C_29
REMARK   13  A    between atoms: C_29  and  O_30
REMARK                            x       y       z     vdW  Elec       q    Type
REMARK                         _______ _______ _______ _____ _____    ______ ____
ROOT
ATOM      1  S   UNL     1      33.701 -23.420 -17.812  0.00  0.00    +0.061 S 
ATOM      2  O   UNL     1      33.514 -24.589 -18.650  0.00  0.00    -0.153 OA
ATOM      3  O   UNL     1      34.542 -23.495 -16.633  0.00  0.00    -0.153 OA
ENDROOT
BRANCH   1   4
ATOM      4  C   UNL     1      34.346 -22.121 -18.823  0.00  0.00    +0.122 C 
ATOM      5  C   UNL     1      33.971 -20.250 -20.331  0.00  0.00    +0.002 C 
ATOM      6  C   UNL     1      35.370 -20.058 -20.429  0.00  0.00    +0.003 C 
ATOM      7  C   UNL     1      33.475 -21.286 -19.523  0.00  0.00    +0.020 C 
ATOM      8  C   UNL     1      35.722 -21.932 -18.920  0.00  0.00    +0.020 C 
ATOM      9  C   UNL     1      36.232 -20.908 -19.717  0.00  0.00    +0.001 C 
ATOM     10  C   UNL     1      35.866 -19.021 -21.236  0.00  0.00    +0.037 C 
ATOM     11  C   UNL     1      33.109 -19.399 -21.043  0.00  0.00    +0.003 C 
ATOM     12  C   UNL     1      34.995 -18.186 -21.938  0.00  0.00    +0.139 C 
ATOM     13  C   UNL     1      33.620 -18.375 -21.841  0.00  0.00    +0.037 C 
BRANCH  12  14
ATOM     14  O   UNL     1      35.492 -17.185 -22.715  0.00  0.00    -0.475 OA
BRANCH  14  15
ATOM     15  C   UNL     1      35.021 -15.865 -22.450  0.00  0.00    +0.205 C 
BRANCH  15  16
ATOM     16  C   UNL     1      34.314 -15.337 -23.691  0.00  0.00    +0.047 C 
BRANCH  16  17
ATOM     17  C   UNL     1      33.142 -14.430 -23.328  0.00  0.00    +0.004 C 
ATOM     18  C   UNL     1      32.641 -14.703 -21.920  0.00  0.00    +0.000 C 
ENDBRANCH  16  17
ENDBRANCH  15  16
ENDBRANCH  14  15
ENDBRANCH  12  14
ENDBRANCH   1   4
BRANCH   1  19
ATOM     19  N   UNL     1      32.184 -22.797 -17.368  0.00  0.00    -0.170 NA
ATOM     20  H   UNL     1      31.589 -22.851 -18.196  0.00  0.00    +0.149 HD
BRANCH  19  21
ATOM     21  C   UNL     1      31.427 -23.418 -16.257  0.00  0.00    +0.174 C 
BRANCH  21  23
ATOM     22  O   UNL     1      29.179 -24.322 -16.463  0.00  0.00    -0.249 OA
ATOM     23  C   UNL     1      29.962 -23.394 -16.620  0.00  0.00    +0.330 C 
BRANCH  23  24
ATOM     24  O   UNL     1      29.581 -22.194 -17.134  0.00  0.00    -0.479 OA
ATOM     25  H   UNL     1      29.552 -21.437 -16.582  0.00  0.00    +0.295 HD
ENDBRANCH  23  24
ENDBRANCH  21  23
BRANCH  21  26
ATOM     26  C   UNL     1      31.765 -22.735 -14.926  0.00  0.00    +0.040 C 
BRANCH  26  27
ATOM     27  C   UNL     1      31.011 -23.237 -13.692  0.00  0.00    +0.111 C 
BRANCH  27  29
ATOM     28  O   UNL     1      32.137 -25.294 -13.114  0.00  0.00    -0.250 OA
ATOM     29  C   UNL     1      31.115 -24.726 -13.476  0.00  0.00    +0.314 C 
BRANCH  29  30
ATOM     30  O   UNL     1      29.957 -25.379 -13.746  0.00  0.00    -0.480 OA
ATOM     31  H   UNL     1      29.167 -25.131 -13.307  0.00  0.00    +0.295 HD
ENDBRANCH  29  30
ENDBRANCH  27  29
ENDBRANCH  26  27
ENDBRANCH  21  26
ENDBRANCH  19  21
ENDBRANCH   1  19
TORSDOF 13
ENDMDL
