MODEL 1
REMARK VINA RESULT:      -5.6      0.000      0.000
REMARK  Name = 6951130
REMARK  4 active torsions:
REMARK  status: ('A' for Active; 'I' for Inactive)
REMARK    1  A    between atoms: C_1  and  N_3
REMARK    2  A    between atoms: C_1  and  C_9
REMARK    3  A    between atoms: C_1  and  C_10
REMARK    4  A    between atoms: C_10  and  C_11
REMARK                            x       y       z     vdW  Elec       q    Type
REMARK                         _______ _______ _______ _____ _____    ______ ____
ROOT
ATOM      1  C   UNL     1      35.233 -18.056 -22.929  0.00  0.00    +0.047 C 
ATOM      2  C   UNL     1      34.864 -19.136 -23.960  0.00  0.00    -0.011 C 
ENDROOT
BRANCH   1   3
ATOM      3  N   UNL     1      36.708 -18.198 -22.680  0.00  0.00    +0.390 N 
ATOM      4  H   UNL     1      36.877 -19.018 -22.098  0.00  0.00    -0.088 HD
ATOM      5  H   UNL     1      37.054 -17.365 -22.203  0.00  0.00    -0.088 HD
ATOM      6  H   UNL     1      37.194 -18.306 -23.570  0.00  0.00    -0.088 HD
ENDBRANCH   1   3
BRANCH   1   9
ATOM      7  O   UNL     1      34.177 -16.896 -24.721  0.00  0.00    -0.248 OA
ATOM      8  O   UNL     1      35.224 -15.676 -23.103  0.00  0.00    -0.248 OA
ATOM      9  C   UNL     1      34.844 -16.746 -23.657  0.00  0.00    +0.346 C 
ENDBRANCH   1   9
BRANCH   1  10
ATOM     10  C   UNL     1      34.482 -18.323 -21.607  0.00  0.00    -0.009 C 
BRANCH  10  11
ATOM     11  C   UNL     1      34.157 -19.793 -21.254  0.00  0.00    -0.001 C 
ATOM     12  C   UNL     1      32.784 -19.862 -20.575  0.00  0.00    -0.000 C 
ATOM     13  C   UNL     1      35.202 -20.452 -20.355  0.00  0.00    -0.000 C 
ENDBRANCH  10  11
ENDBRANCH   1  10
TORSDOF 4
ENDMDL
MODEL 2
REMARK VINA RESULT:      -5.5      1.272      2.090
REMARK  Name = 6951130
REMARK  4 active torsions:
REMARK  status: ('A' for Active; 'I' for Inactive)
REMARK    1  A    between atoms: C_1  and  N_3
REMARK    2  A    between atoms: C_1  and  C_9
REMARK    3  A    between atoms: C_1  and  C_10
REMARK    4  A    between atoms: C_10  and  C_11
REMARK                            x       y       z     vdW  Elec       q    Type
REMARK                         _______ _______ _______ _____ _____    ______ ____
ROOT
ATOM      1  C   UNL     1      35.189 -17.977 -22.499  0.00  0.00    +0.047 C 
ATOM      2  C   UNL     1      34.823 -17.506 -23.917  0.00  0.00    -0.011 C 
ENDROOT
BRANCH   1   3
ATOM      3  N   UNL     1      36.679 -18.178 -22.493  0.00  0.00    +0.390 N 
ATOM      4  H   UNL     1      37.122 -17.415 -21.982  0.00  0.00    -0.088 HD
ATOM      5  H   UNL     1      37.024 -18.189 -23.453  0.00  0.00    -0.088 HD
ATOM      6  H   UNL     1      36.900 -19.065 -22.042  0.00  0.00    -0.088 HD
ENDBRANCH   1   3
BRANCH   1   9
ATOM      7  O   UNL     1      35.293 -16.690 -20.498  0.00  0.00    -0.248 OA
ATOM      8  O   UNL     1      33.808 -16.068 -22.115  0.00  0.00    -0.248 OA
ATOM      9  C   UNL     1      34.713 -16.797 -21.617  0.00  0.00    +0.346 C 
ENDBRANCH   1   9
BRANCH   1  10
ATOM     10  C   UNL     1      34.508 -19.332 -22.210  0.00  0.00    -0.009 C 
BRANCH  10  11
ATOM     11  C   UNL     1      34.223 -19.687 -20.732  0.00  0.00    -0.001 C 
ATOM     12  C   UNL     1      35.258 -20.708 -20.245  0.00  0.00    -0.000 C 
ATOM     13  C   UNL     1      32.817 -20.236 -20.495  0.00  0.00    -0.000 C 
ENDBRANCH  10  11
ENDBRANCH   1  10
TORSDOF 4
ENDMDL
MODEL 3
REMARK VINA RESULT:      -5.4     11.680     12.550
REMARK  Name = 6951130
REMARK  4 active torsions:
REMARK  status: ('A' for Active; 'I' for Inactive)
REMARK    1  A    between atoms: C_1  and  N_3
REMARK    2  A    between atoms: C_1  and  C_9
REMARK    3  A    between atoms: C_1  and  C_10
REMARK    4  A    between atoms: C_10  and  C_11
REMARK                            x       y       z     vdW  Elec       q    Type
REMARK                         _______ _______ _______ _____ _____    ______ ____
ROOT
ATOM      1  C   UNL     1      37.034 -24.359 -12.095  0.00  0.00    +0.047 C 
ATOM      2  C   UNL     1      36.441 -23.408 -13.147  0.00  0.00    -0.011 C 
ENDROOT
BRANCH   1   3
ATOM      3  N   UNL     1      38.283 -23.697 -11.584  0.00  0.00    +0.390 N 
ATOM      4  H   UNL     1      38.077 -23.208 -10.713  0.00  0.00    -0.088 HD
ATOM      5  H   UNL     1      38.621 -23.029 -12.277  0.00  0.00    -0.088 HD
ATOM      6  H   UNL     1      38.998 -24.404 -11.417  0.00  0.00    -0.088 HD
ENDBRANCH   1   3
BRANCH   1   9
ATOM      7  O   UNL     1      34.789 -24.869 -11.483  0.00  0.00    -0.248 OA
ATOM      8  O   UNL     1      36.212 -24.114  -9.867  0.00  0.00    -0.248 OA
ATOM      9  C   UNL     1      35.900 -24.452 -11.044  0.00  0.00    +0.346 C 
ENDBRANCH   1   9
BRANCH   1  10
ATOM     10  C   UNL     1      37.423 -25.695 -12.763  0.00  0.00    -0.009 C 
BRANCH  10  11
ATOM     11  C   UNL     1      37.833 -25.655 -14.254  0.00  0.00    -0.001 C 
ATOM     12  C   UNL     1      37.071 -26.743 -15.021  0.00  0.00    -0.000 C 
ATOM     13  C   UNL     1      39.333 -25.830 -14.481  0.00  0.00    -0.000 C 
ENDBRANCH  10  11
ENDBRANCH   1  10
TORSDOF 4
ENDMDL
MODEL 4
REMARK VINA RESULT:      -5.4     11.148     12.217
REMARK  Name = 6951130
REMARK  4 active torsions:
REMARK  status: ('A' for Active; 'I' for Inactive)
REMARK    1  A    between atoms: C_1  and  N_3
REMARK    2  A    between atoms: C_1  and  C_9
REMARK    3  A    between atoms: C_1  and  C_10
REMARK    4  A    between atoms: C_10  and  C_11
REMARK                            x       y       z     vdW  Elec       q    Type
REMARK                         _______ _______ _______ _____ _____    ______ ____
ROOT
ATOM      1  C   UNL     1      38.724 -25.600 -14.037  0.00  0.00    +0.047 C 
ATOM      2  C   UNL     1      38.229 -24.575 -15.072  0.00  0.00    -0.011 C 
ENDROOT
BRANCH   1   3
ATOM      3  N   UNL     1      38.003 -26.884 -14.337  0.00  0.00    +0.390 N 
ATOM      4  H   UNL     1      38.559 -27.443 -14.984  0.00  0.00    -0.088 HD
ATOM      5  H   UNL     1      37.098 -26.675 -14.760  0.00  0.00    -0.088 HD
ATOM      6  H   UNL     1      37.862 -27.404 -13.472  0.00  0.00    -0.088 HD
ENDBRANCH   1   3
BRANCH   1   9
ATOM      7  O   UNL     1      40.685 -26.781 -14.695  0.00  0.00    -0.248 OA
ATOM      8  O   UNL     1      40.876 -24.573 -14.151  0.00  0.00    -0.248 OA
ATOM      9  C   UNL     1      40.246 -25.656 -14.318  0.00  0.00    +0.346 C 
ENDBRANCH   1   9
BRANCH   1  10
ATOM     10  C   UNL     1      38.334 -25.135 -12.618  0.00  0.00    -0.009 C 
BRANCH  10  11
ATOM     11  C   UNL     1      37.124 -24.180 -12.486  0.00  0.00    -0.001 C 
ATOM     12  C   UNL     1      37.567 -22.893 -11.780  0.00  0.00    -0.000 C 
ATOM     13  C   UNL     1      35.941 -24.790 -11.737  0.00  0.00    -0.000 C 
ENDBRANCH  10  11
ENDBRANCH   1  10
TORSDOF 4
ENDMDL
MODEL 5
REMARK VINA RESULT:      -5.3      1.251      2.039
REMARK  Name = 6951130
REMARK  4 active torsions:
REMARK  status: ('A' for Active; 'I' for Inactive)
REMARK    1  A    between atoms: C_1  and  N_3
REMARK    2  A    between atoms: C_1  and  C_9
REMARK    3  A    between atoms: C_1  and  C_10
REMARK    4  A    between atoms: C_10  and  C_11
REMARK                            x       y       z     vdW  Elec       q    Type
REMARK                         _______ _______ _______ _____ _____    ______ ____
ROOT
ATOM      1  C   UNL     1      35.381 -18.087 -22.065  0.00  0.00    +0.047 C 
ATOM      2  C   UNL     1      36.875 -18.436 -22.183  0.00  0.00    -0.011 C 
ENDROOT
BRANCH   1   3
ATOM      3  N   UNL     1      35.230 -17.303 -20.792  0.00  0.00    +0.390 N 
ATOM      4  H   UNL     1      36.098 -16.806 -20.595  0.00  0.00    -0.088 HD
ATOM      5  H   UNL     1      35.022 -17.941 -20.023  0.00  0.00    -0.088 HD
ATOM      6  H   UNL     1      34.469 -16.633 -20.894  0.00  0.00    -0.088 HD
ENDBRANCH   1   3
BRANCH   1   9
ATOM      7  O   UNL     1      35.372 -16.019 -23.247  0.00  0.00    -0.248 OA
ATOM      8  O   UNL     1      34.712 -17.904 -24.349  0.00  0.00    -0.248 OA
ATOM      9  C   UNL     1      35.125 -17.256 -23.346  0.00  0.00    +0.346 C 
ENDBRANCH   1   9
BRANCH   1  10
ATOM     10  C   UNL     1      34.553 -19.385 -21.946  0.00  0.00    -0.009 C 
BRANCH  10  11
ATOM     11  C   UNL     1      34.219 -19.891 -20.523  0.00  0.00    -0.001 C 
ATOM     12  C   UNL     1      35.228 -20.972 -20.119  0.00  0.00    -0.000 C 
ATOM     13  C   UNL     1      32.801 -20.443 -20.388  0.00  0.00    -0.000 C 
ENDBRANCH  10  11
ENDBRANCH   1  10
TORSDOF 4
ENDMDL
MODEL 6
REMARK VINA RESULT:      -5.2      2.673      4.117
REMARK  Name = 6951130
REMARK  4 active torsions:
REMARK  status: ('A' for Active; 'I' for Inactive)
REMARK    1  A    between atoms: C_1  and  N_3
REMARK    2  A    between atoms: C_1  and  C_9
REMARK    3  A    between atoms: C_1  and  C_10
REMARK    4  A    between atoms: C_10  and  C_11
REMARK                            x       y       z     vdW  Elec       q    Type
REMARK                         _______ _______ _______ _____ _____    ______ ____
ROOT
ATOM      1  C   UNL     1      35.499 -18.587 -21.407  0.00  0.00    +0.047 C 
ATOM      2  C   UNL     1      34.211 -19.411 -21.240  0.00  0.00    -0.011 C 
ENDROOT
BRANCH   1   3
ATOM      3  N   UNL     1      35.236 -17.258 -20.755  0.00  0.00    +0.390 N 
ATOM      4  H   UNL     1      34.230 -17.108 -20.685  0.00  0.00    -0.088 HD
ATOM      5  H   UNL     1      35.652 -16.516 -21.317  0.00  0.00    -0.088 HD
ATOM      6  H   UNL     1      35.648 -17.250 -19.823  0.00  0.00    -0.088 HD
ENDBRANCH   1   3
BRANCH   1   9
ATOM      7  O   UNL     1      37.754 -19.232 -20.995  0.00  0.00    -0.248 OA
ATOM      8  O   UNL     1      36.096 -20.263 -19.816  0.00  0.00    -0.248 OA
ATOM      9  C   UNL     1      36.552 -19.449 -20.668  0.00  0.00    +0.346 C 
ENDBRANCH   1   9
BRANCH   1  10
ATOM     10  C   UNL     1      35.775 -18.353 -22.908  0.00  0.00    -0.009 C 
BRANCH  10  11
ATOM     11  C   UNL     1      34.599 -17.861 -23.783  0.00  0.00    -0.001 C 
ATOM     12  C   UNL     1      34.372 -18.849 -24.933  0.00  0.00    -0.000 C 
ATOM     13  C   UNL     1      34.804 -16.458 -24.351  0.00  0.00    -0.000 C 
ENDBRANCH  10  11
ENDBRANCH   1  10
TORSDOF 4
ENDMDL
MODEL 7
REMARK VINA RESULT:      -5.2      8.540     10.004
REMARK  Name = 6951130
REMARK  4 active torsions:
REMARK  status: ('A' for Active; 'I' for Inactive)
REMARK    1  A    between atoms: C_1  and  N_3
REMARK    2  A    between atoms: C_1  and  C_9
REMARK    3  A    between atoms: C_1  and  C_10
REMARK    4  A    between atoms: C_10  and  C_11
REMARK                            x       y       z     vdW  Elec       q    Type
REMARK                         _______ _______ _______ _____ _____    ______ ____
ROOT
ATOM      1  C   UNL     1      29.370 -23.747 -15.739  0.00  0.00    +0.047 C 
ATOM      2  C   UNL     1      29.461 -22.501 -14.841  0.00  0.00    -0.011 C 
ENDROOT
BRANCH   1   3
ATOM      3  N   UNL     1      28.777 -24.836 -14.890  0.00  0.00    +0.390 N 
ATOM      4  H   UNL     1      29.490 -25.537 -14.689  0.00  0.00    -0.088 HD
ATOM      5  H   UNL     1      28.002 -25.272 -15.389  0.00  0.00    -0.088 HD
ATOM      6  H   UNL     1      28.436 -24.437 -14.015  0.00  0.00    -0.088 HD
ENDBRANCH   1   3
BRANCH   1   9
ATOM      7  O   UNL     1      28.449 -22.025 -17.102  0.00  0.00    -0.248 OA
ATOM      8  O   UNL     1      27.798 -24.179 -17.482  0.00  0.00    -0.248 OA
ATOM      9  C   UNL     1      28.444 -23.272 -16.885  0.00  0.00    +0.346 C 
ENDBRANCH   1   9
BRANCH   1  10
ATOM     10  C   UNL     1      30.788 -24.178 -16.173  0.00  0.00    -0.009 C 
BRANCH  10  11
ATOM     11  C   UNL     1      31.928 -23.145 -16.015  0.00  0.00    -0.001 C 
ATOM     12  C   UNL     1      32.670 -22.997 -17.349  0.00  0.00    -0.000 C 
ATOM     13  C   UNL     1      32.927 -23.500 -14.915  0.00  0.00    -0.000 C 
ENDBRANCH  10  11
ENDBRANCH   1  10
TORSDOF 4
ENDMDL
MODEL 8
REMARK VINA RESULT:      -5.1      3.063      4.163
REMARK  Name = 6951130
REMARK  4 active torsions:
REMARK  status: ('A' for Active; 'I' for Inactive)
REMARK    1  A    between atoms: C_1  and  N_3
REMARK    2  A    between atoms: C_1  and  C_9
REMARK    3  A    between atoms: C_1  and  C_10
REMARK    4  A    between atoms: C_10  and  C_11
REMARK                            x       y       z     vdW  Elec       q    Type
REMARK                         _______ _______ _______ _____ _____    ______ ____
ROOT
ATOM      1  C   UNL     1      34.548 -19.087 -21.445  0.00  0.00    +0.047 C 
ATOM      2  C   UNL     1      36.003 -19.076 -20.947  0.00  0.00    -0.011 C 
ENDROOT
BRANCH   1   3
ATOM      3  N   UNL     1      34.606 -19.424 -22.908  0.00  0.00    +0.390 N 
ATOM      4  H   UNL     1      33.663 -19.592 -23.256  0.00  0.00    -0.088 HD
ATOM      5  H   UNL     1      35.172 -20.262 -23.042  0.00  0.00    -0.088 HD
ATOM      6  H   UNL     1      35.024 -18.647 -23.419  0.00  0.00    -0.088 HD
ENDBRANCH   1   3
BRANCH   1   9
ATOM      7  O   UNL     1      32.644 -20.300 -20.685  0.00  0.00    -0.248 OA
ATOM      8  O   UNL     1      34.694 -20.864 -19.859  0.00  0.00    -0.248 OA
ATOM      9  C   UNL     1      33.900 -20.190 -20.573  0.00  0.00    +0.346 C 
ENDBRANCH   1   9
BRANCH   1  10
ATOM     10  C   UNL     1      33.935 -17.679 -21.287  0.00  0.00    -0.009 C 
BRANCH  10  11
ATOM     11  C   UNL     1      34.873 -16.465 -21.486  0.00  0.00    -0.001 C 
ATOM     12  C   UNL     1      34.499 -15.365 -20.485  0.00  0.00    -0.000 C 
ATOM     13  C   UNL     1      34.843 -15.894 -22.902  0.00  0.00    -0.000 C 
ENDBRANCH  10  11
ENDBRANCH   1  10
TORSDOF 4
ENDMDL
MODEL 9
REMARK VINA RESULT:      -5.1     11.007     11.721
REMARK  Name = 6951130
REMARK  4 active torsions:
REMARK  status: ('A' for Active; 'I' for Inactive)
REMARK    1  A    between atoms: C_1  and  N_3
REMARK    2  A    between atoms: C_1  and  C_9
REMARK    3  A    between atoms: C_1  and  C_10
REMARK    4  A    between atoms: C_10  and  C_11
REMARK                            x       y       z     vdW  Elec       q    Type
REMARK                         _______ _______ _______ _____ _____    ______ ____
ROOT
ATOM      1  C   UNL     1      37.685 -25.110 -14.441  0.00  0.00    +0.047 C 
ATOM      2  C   UNL     1      38.936 -25.387 -13.590  0.00  0.00    -0.011 C 
ENDROOT
BRANCH   1   3
ATOM      3  N   UNL     1      38.097 -24.105 -15.480  0.00  0.00    +0.390 N 
ATOM      4  H   UNL     1      37.265 -23.689 -15.899  0.00  0.00    -0.088 HD
ATOM      5  H   UNL     1      38.647 -24.569 -16.203  0.00  0.00    -0.088 HD
ATOM      6  H   UNL     1      38.658 -23.375 -15.042  0.00  0.00    -0.088 HD
ENDBRANCH   1   3
BRANCH   1   9
ATOM      7  O   UNL     1      36.263 -26.583 -15.659  0.00  0.00    -0.248 OA
ATOM      8  O   UNL     1      38.207 -27.411 -14.800  0.00  0.00    -0.248 OA
ATOM      9  C   UNL     1      37.352 -26.507 -15.020  0.00  0.00    +0.346 C 
ENDBRANCH   1   9
BRANCH   1  10
ATOM     10  C   UNL     1      36.585 -24.484 -13.558  0.00  0.00    -0.009 C 
BRANCH  10  11
ATOM     11  C   UNL     1      36.909 -24.265 -12.061  0.00  0.00    -0.001 C 
ATOM     12  C   UNL     1      35.668 -24.588 -11.220  0.00  0.00    -0.000 C 
ATOM     13  C   UNL     1      37.387 -22.850 -11.740  0.00  0.00    -0.000 C 
ENDBRANCH  10  11
ENDBRANCH   1  10
TORSDOF 4
ENDMDL
