MODEL 1
REMARK VINA RESULT:      -6.1      0.000      0.000
REMARK  Name = 72390
REMARK  2 active torsions:
REMARK  status: ('A' for Active; 'I' for Inactive)
REMARK    1  A    between atoms: C_4  and  C_9
REMARK    2  A    between atoms: C_9  and  O_10
REMARK                            x       y       z     vdW  Elec       q    Type
REMARK                         _______ _______ _______ _____ _____    ______ ____
ROOT
ATOM      1  S   UNK     1      37.250 -26.526 -13.325  0.00  0.00    -0.055 S 
ATOM      2  O   UNK     1      36.176 -26.595 -15.732  0.00  0.00    -0.263 OA
ATOM      3  N   UNK     1      38.096 -25.311 -15.421  0.00  0.00    -0.287 N 
ATOM      4  C   UNK     1      39.104 -25.000 -14.437  0.00  0.00    +0.183 C 
ATOM      5  C   UNK     1      38.518 -25.246 -13.060  0.00  0.00    +0.098 C 
ATOM      6  C   UNK     1      37.078 -26.153 -15.037  0.00  0.00    +0.274 C 
ATOM      7  H   UNK     1      38.135 -24.935 -16.330  0.00  0.00    +0.151 HD
ENDROOT
BRANCH   4   9
ATOM      8  O   UNK     1      40.942 -26.473 -13.897  0.00  0.00    -0.248 OA
ATOM      9  C   UNK     1      40.267 -25.893 -14.737  0.00  0.00    +0.333 C 
BRANCH   9  10
ATOM     10  O   UNK     1      40.478 -25.974 -16.073  0.00  0.00    -0.479 OA
ATOM     11  H   UNK     1      40.824 -25.238 -16.539  0.00  0.00    +0.295 HD
ENDBRANCH   9  10
ENDBRANCH   4   9
TORSDOF 2
ENDMDL
MODEL 2
REMARK VINA RESULT:      -5.8      2.093      2.565
REMARK  Name = 72390
REMARK  2 active torsions:
REMARK  status: ('A' for Active; 'I' for Inactive)
REMARK    1  A    between atoms: C_4  and  C_9
REMARK    2  A    between atoms: C_9  and  O_10
REMARK                            x       y       z     vdW  Elec       q    Type
REMARK                         _______ _______ _______ _____ _____    ______ ____
ROOT
ATOM      1  S   UNK     1      37.288 -23.919 -13.757  0.00  0.00    -0.055 S 
ATOM      2  O   UNK     1      37.955 -24.511 -11.276  0.00  0.00    -0.263 OA
ATOM      3  N   UNK     1      38.700 -25.916 -12.981  0.00  0.00    -0.287 N 
ATOM      4  C   UNK     1      38.737 -26.032 -14.418  0.00  0.00    +0.183 C 
ATOM      5  C   UNK     1      37.589 -25.223 -14.992  0.00  0.00    +0.098 C 
ATOM      6  C   UNK     1      38.039 -24.830 -12.452  0.00  0.00    +0.274 C 
ATOM      7  H   UNK     1      39.130 -26.586 -12.402  0.00  0.00    +0.151 HD
ENDROOT
BRANCH   4   9
ATOM      8  O   UNK     1      40.811 -24.819 -14.155  0.00  0.00    -0.248 OA
ATOM      9  C   UNK     1      40.076 -25.513 -14.843  0.00  0.00    +0.333 C 
BRANCH   9  10
ATOM     10  O   UNK     1      40.369 -25.917 -16.103  0.00  0.00    -0.479 OA
ATOM     11  H   UNK     1      40.061 -26.747 -16.413  0.00  0.00    +0.295 HD
ENDBRANCH   9  10
ENDBRANCH   4   9
TORSDOF 2
ENDMDL
MODEL 3
REMARK VINA RESULT:      -5.6      1.524      3.406
REMARK  Name = 72390
REMARK  2 active torsions:
REMARK  status: ('A' for Active; 'I' for Inactive)
REMARK    1  A    between atoms: C_4  and  C_9
REMARK    2  A    between atoms: C_9  and  O_10
REMARK                            x       y       z     vdW  Elec       q    Type
REMARK                         _______ _______ _______ _____ _____    ______ ____
ROOT
ATOM      1  S   UNK     1      38.267 -24.642 -12.783  0.00  0.00    -0.055 S 
ATOM      2  O   UNK     1      40.573 -24.996 -14.012  0.00  0.00    -0.263 OA
ATOM      3  N   UNK     1      38.882 -26.561 -14.371  0.00  0.00    -0.287 N 
ATOM      4  C   UNK     1      37.493 -26.814 -14.080  0.00  0.00    +0.183 C 
ATOM      5  C   UNK     1      37.125 -26.059 -12.816  0.00  0.00    +0.098 C 
ATOM      6  C   UNK     1      39.444 -25.426 -13.829  0.00  0.00    +0.274 C 
ATOM      7  H   UNK     1      39.408 -27.174 -14.934  0.00  0.00    +0.151 HD
ENDROOT
BRANCH   4   9
ATOM      8  O   UNK     1      36.122 -25.283 -15.352  0.00  0.00    -0.248 OA
ATOM      9  C   UNK     1      36.724 -26.344 -15.277  0.00  0.00    +0.333 C 
BRANCH   9  10
ATOM     10  O   UNK     1      36.784 -27.260 -16.274  0.00  0.00    -0.479 OA
ATOM     11  H   UNK     1      36.036 -27.789 -16.470  0.00  0.00    +0.295 HD
ENDBRANCH   9  10
ENDBRANCH   4   9
TORSDOF 2
ENDMDL
MODEL 4
REMARK VINA RESULT:      -5.4      2.538      3.355
REMARK  Name = 72390
REMARK  2 active torsions:
REMARK  status: ('A' for Active; 'I' for Inactive)
REMARK    1  A    between atoms: C_4  and  C_9
REMARK    2  A    between atoms: C_9  and  O_10
REMARK                            x       y       z     vdW  Elec       q    Type
REMARK                         _______ _______ _______ _____ _____    ______ ____
ROOT
ATOM      1  S   UNK     1      37.808 -24.521 -12.068  0.00  0.00    -0.055 S 
ATOM      2  O   UNK     1      35.453 -25.098 -11.031  0.00  0.00    -0.263 OA
ATOM      3  N   UNK     1      35.686 -25.185 -13.348  0.00  0.00    -0.287 N 
ATOM      4  C   UNK     1      36.676 -25.084 -14.392  0.00  0.00    +0.183 C 
ATOM      5  C   UNK     1      37.838 -24.260 -13.870  0.00  0.00    +0.098 C 
ATOM      6  C   UNK     1      36.111 -24.986 -12.054  0.00  0.00    +0.274 C 
ATOM      7  H   UNK     1      34.744 -25.388 -13.554  0.00  0.00    +0.151 HD
ENDROOT
BRANCH   4   9
ATOM      8  O   UNK     1      38.202 -26.943 -14.631  0.00  0.00    -0.248 OA
ATOM      9  C   UNK     1      37.070 -26.489 -14.728  0.00  0.00    +0.333 C 
BRANCH   9  10
ATOM     10  O   UNK     1      35.999 -27.198 -15.161  0.00  0.00    -0.479 OA
ATOM     11  H   UNK     1      35.635 -27.873 -14.622  0.00  0.00    +0.295 HD
ENDBRANCH   9  10
ENDBRANCH   4   9
TORSDOF 2
ENDMDL
MODEL 5
REMARK VINA RESULT:      -5.3      3.539      4.780
REMARK  Name = 72390
REMARK  2 active torsions:
REMARK  status: ('A' for Active; 'I' for Inactive)
REMARK    1  A    between atoms: C_4  and  C_9
REMARK    2  A    between atoms: C_9  and  O_10
REMARK                            x       y       z     vdW  Elec       q    Type
REMARK                         _______ _______ _______ _____ _____    ______ ____
ROOT
ATOM      1  S   UNK     1      37.091 -24.785 -14.169  0.00  0.00    -0.055 S 
ATOM      2  O   UNK     1      39.206 -25.944 -13.103  0.00  0.00    -0.263 OA
ATOM      3  N   UNK     1      38.066 -24.355 -11.835  0.00  0.00    -0.287 N 
ATOM      4  C   UNK     1      36.880 -23.534 -11.846  0.00  0.00    +0.183 C 
ATOM      5  C   UNK     1      36.463 -23.319 -13.289  0.00  0.00    +0.098 C 
ATOM      6  C   UNK     1      38.306 -25.133 -12.944  0.00  0.00    +0.274 C 
ATOM      7  H   UNK     1      38.679 -24.357 -11.064  0.00  0.00    +0.151 HD
ENDROOT
BRANCH   4   9
ATOM      8  O   UNK     1      34.900 -24.885 -11.530  0.00  0.00    -0.248 OA
ATOM      9  C   UNK     1      35.850 -24.280 -11.054  0.00  0.00    +0.333 C 
BRANCH   9  10
ATOM     10  O   UNK     1      36.112 -24.193  -9.727  0.00  0.00    -0.479 OA
ATOM     11  H   UNK     1      36.953 -23.901  -9.433  0.00  0.00    +0.295 HD
ENDBRANCH   9  10
ENDBRANCH   4   9
TORSDOF 2
ENDMDL
MODEL 6
REMARK VINA RESULT:      -5.2      2.481      3.029
REMARK  Name = 72390
REMARK  2 active torsions:
REMARK  status: ('A' for Active; 'I' for Inactive)
REMARK    1  A    between atoms: C_4  and  C_9
REMARK    2  A    between atoms: C_9  and  O_10
REMARK                            x       y       z     vdW  Elec       q    Type
REMARK                         _______ _______ _______ _____ _____    ______ ____
ROOT
ATOM      1  S   UNK     1      35.764 -24.931 -15.049  0.00  0.00    -0.055 S 
ATOM      2  O   UNK     1      36.671 -27.231 -15.967  0.00  0.00    -0.263 OA
ATOM      3  N   UNK     1      37.979 -26.067 -14.428  0.00  0.00    -0.287 N 
ATOM      4  C   UNK     1      37.958 -24.909 -13.569  0.00  0.00    +0.183 C 
ATOM      5  C   UNK     1      36.967 -23.911 -14.139  0.00  0.00    +0.098 C 
ATOM      6  C   UNK     1      36.880 -26.280 -15.229  0.00  0.00    +0.274 C 
ATOM      7  H   UNK     1      38.749 -26.681 -14.440  0.00  0.00    +0.151 HD
ENDROOT
BRANCH   4   9
ATOM      8  O   UNK     1      37.051 -26.491 -11.983  0.00  0.00    -0.248 OA
ATOM      9  C   UNK     1      37.561 -25.404 -12.212  0.00  0.00    +0.333 C 
BRANCH   9  10
ATOM     10  O   UNK     1      37.842 -24.477 -11.264  0.00  0.00    -0.479 OA
ATOM     11  H   UNK     1      37.561 -24.611 -10.380  0.00  0.00    +0.295 HD
ENDBRANCH   9  10
ENDBRANCH   4   9
TORSDOF 2
ENDMDL
MODEL 7
REMARK VINA RESULT:      -5.2      2.559      3.702
REMARK  Name = 72390
REMARK  2 active torsions:
REMARK  status: ('A' for Active; 'I' for Inactive)
REMARK    1  A    between atoms: C_4  and  C_9
REMARK    2  A    between atoms: C_9  and  O_10
REMARK                            x       y       z     vdW  Elec       q    Type
REMARK                         _______ _______ _______ _____ _____    ______ ____
ROOT
ATOM      1  S   UNK     1      38.454 -25.363 -14.827  0.00  0.00    -0.055 S 
ATOM      2  O   UNK     1      36.753 -27.085 -15.871  0.00  0.00    -0.263 OA
ATOM      3  N   UNK     1      36.612 -26.648 -13.586  0.00  0.00    -0.287 N 
ATOM      4  C   UNK     1      37.159 -25.793 -12.561  0.00  0.00    +0.183 C 
ATOM      5  C   UNK     1      38.532 -25.329 -13.008  0.00  0.00    +0.098 C 
ATOM      6  C   UNK     1      37.124 -26.515 -14.857  0.00  0.00    +0.274 C 
ATOM      7  H   UNK     1      35.902 -27.299 -13.385  0.00  0.00    +0.151 HD
ENDROOT
BRANCH   4   9
ATOM      8  O   UNK     1      36.432 -23.490 -12.656  0.00  0.00    -0.248 OA
ATOM      9  C   UNK     1      36.191 -24.662 -12.402  0.00  0.00    +0.333 C 
BRANCH   9  10
ATOM     10  O   UNK     1      35.000 -25.112 -11.934  0.00  0.00    -0.479 OA
ATOM     11  H   UNK     1      34.977 -25.801 -11.300  0.00  0.00    +0.295 HD
ENDBRANCH   9  10
ENDBRANCH   4   9
TORSDOF 2
ENDMDL
MODEL 8
REMARK VINA RESULT:      -5.0      2.320      3.114
REMARK  Name = 72390
REMARK  2 active torsions:
REMARK  status: ('A' for Active; 'I' for Inactive)
REMARK    1  A    between atoms: C_4  and  C_9
REMARK    2  A    between atoms: C_9  and  O_10
REMARK                            x       y       z     vdW  Elec       q    Type
REMARK                         _______ _______ _______ _____ _____    ______ ____
ROOT
ATOM      1  S   UNK     1      37.172 -23.659 -13.335  0.00  0.00    -0.055 S 
ATOM      2  O   UNK     1      37.260 -22.609 -15.752  0.00  0.00    -0.263 OA
ATOM      3  N   UNK     1      38.171 -24.732 -15.440  0.00  0.00    -0.287 N 
ATOM      4  C   UNK     1      38.307 -25.773 -14.451  0.00  0.00    +0.183 C 
ATOM      5  C   UNK     1      38.198 -25.140 -13.076  0.00  0.00    +0.098 C 
ATOM      6  C   UNK     1      37.539 -23.572 -15.054  0.00  0.00    +0.274 C 
ATOM      7  H   UNK     1      38.517 -24.848 -16.355  0.00  0.00    +0.151 HD
ENDROOT
BRANCH   4   9
ATOM      8  O   UNK     1      36.828 -27.091 -15.835  0.00  0.00    -0.248 OA
ATOM      9  C   UNK     1      37.208 -26.752 -14.723  0.00  0.00    +0.333 C 
BRANCH   9  10
ATOM     10  O   UNK     1      36.682 -27.217 -13.563  0.00  0.00    -0.479 OA
ATOM     11  H   UNK     1      37.245 -27.575 -12.904  0.00  0.00    +0.295 HD
ENDBRANCH   9  10
ENDBRANCH   4   9
TORSDOF 2
ENDMDL
MODEL 9
REMARK VINA RESULT:      -4.9     11.161     11.718
REMARK  Name = 72390
REMARK  2 active torsions:
REMARK  status: ('A' for Active; 'I' for Inactive)
REMARK    1  A    between atoms: C_4  and  C_9
REMARK    2  A    between atoms: C_9  and  O_10
REMARK                            x       y       z     vdW  Elec       q    Type
REMARK                         _______ _______ _______ _____ _____    ______ ____
ROOT
ATOM      1  S   UNK     1      42.126 -13.030 -15.918  0.00  0.00    -0.055 S 
ATOM      2  O   UNK     1      40.656 -13.722 -13.842  0.00  0.00    -0.263 OA
ATOM      3  N   UNK     1      40.628 -15.104 -15.719  0.00  0.00    -0.287 N 
ATOM      4  C   UNK     1      41.257 -15.281 -17.005  0.00  0.00    +0.183 C 
ATOM      5  C   UNK     1      41.795 -13.937 -17.462  0.00  0.00    +0.098 C 
ATOM      6  C   UNK     1      41.010 -14.010 -14.975  0.00  0.00    +0.274 C 
ATOM      7  H   UNK     1      39.953 -15.739 -15.388  0.00  0.00    +0.151 HD
ENDROOT
BRANCH   4   9
ATOM      8  O   UNK     1      43.497 -16.039 -16.506  0.00  0.00    -0.248 OA
ATOM      9  C   UNK     1      42.339 -16.296 -16.803  0.00  0.00    +0.333 C 
BRANCH   9  10
ATOM     10  O   UNK     1      41.862 -17.550 -16.997  0.00  0.00    -0.479 OA
ATOM     11  H   UNK     1      41.245 -17.716 -17.682  0.00  0.00    +0.295 HD
ENDBRANCH   9  10
ENDBRANCH   4   9
TORSDOF 2
ENDMDL
