MODEL 1
REMARK VINA RESULT:      -9.2      0.000      0.000
REMARK  Name = 59084697
REMARK  6 active torsions:
REMARK  status: ('A' for Active; 'I' for Inactive)
REMARK    1  A    between atoms: C_1  and  C_13
REMARK    2  A    between atoms: C_9  and  O_11
REMARK    3  A    between atoms: C_13  and  C_14
REMARK    4  A    between atoms: C_13  and  C_21
REMARK    5  A    between atoms: C_14  and  C_18
REMARK    6  A    between atoms: C_18  and  O_19
REMARK                            x       y       z     vdW  Elec       q    Type
REMARK                         _______ _______ _______ _____ _____    ______ ____
ROOT
ATOM      1  C   UNL     1      35.953 -23.592 -15.098  0.00  0.00    -0.022 C 
ATOM      2  C   UNL     1      36.406 -22.900 -16.222  0.00  0.00    -0.004 C 
ATOM      3  C   UNL     1      34.610 -23.936 -14.986  0.00  0.00    -0.004 C 
ATOM      4  C   UNL     1      35.518 -22.543 -17.250  0.00  0.00    -0.000 C 
ATOM      5  C   UNL     1      34.152 -22.895 -17.136  0.00  0.00    +0.003 C 
ATOM      6  C   UNL     1      33.714 -23.591 -15.998  0.00  0.00    -0.000 C 
ATOM      7  C   UNL     1      35.956 -21.848 -18.387  0.00  0.00    +0.003 C 
ATOM      8  C   UNL     1      33.263 -22.538 -18.164  0.00  0.00    +0.037 C 
ATOM      9  C   UNL     1      33.716 -21.846 -19.288  0.00  0.00    +0.139 C 
ATOM     10  C   UNL     1      35.060 -21.502 -19.400  0.00  0.00    +0.037 C 
ENDROOT
BRANCH   9  11
ATOM     11  O   UNL     1      32.842 -21.508 -20.276  0.00  0.00    -0.471 OA
ATOM     12  C   UNL     1      32.766 -20.128 -20.631  0.00  0.00    +0.252 C 
ENDBRANCH   9  11
BRANCH   1  13
ATOM     13  C   UNL     1      36.933 -23.970 -13.988  0.00  0.00    +0.032 C 
BRANCH  13  14
ATOM     14  C   UNL     1      37.506 -25.435 -14.119  0.00  0.00    +0.093 C 
ATOM     15  C   UNL     1      37.502 -26.214 -12.789  0.00  0.00    +0.011 C 
ATOM     16  C   UNL     1      36.716 -26.272 -15.151  0.00  0.00    +0.011 C 
BRANCH  14  18
ATOM     17  O   UNL     1      39.532 -24.339 -14.977  0.00  0.00    -0.250 OA
ATOM     18  C   UNL     1      38.959 -25.358 -14.617  0.00  0.00    +0.313 C 
BRANCH  18  19
ATOM     19  O   UNL     1      39.553 -26.580 -14.637  0.00  0.00    -0.480 OA
ATOM     20  H   UNL     1      39.202 -27.262 -15.174  0.00  0.00    +0.295 HD
ENDBRANCH  18  19
ENDBRANCH  14  18
ENDBRANCH  13  14
BRANCH  13  21
ATOM     21  C   UNL     1      36.363 -23.666 -12.575  0.00  0.00    +0.005 C 
ATOM     22  C   UNL     1      37.318 -22.852 -11.707  0.00  0.00    +0.000 C 
ENDBRANCH  13  21
ENDBRANCH   1  13
TORSDOF 6
ENDMDL
MODEL 2
REMARK VINA RESULT:      -9.2      4.391     10.211
REMARK  Name = 59084697
REMARK  6 active torsions:
REMARK  status: ('A' for Active; 'I' for Inactive)
REMARK    1  A    between atoms: C_1  and  C_13
REMARK    2  A    between atoms: C_9  and  O_11
REMARK    3  A    between atoms: C_13  and  C_14
REMARK    4  A    between atoms: C_13  and  C_21
REMARK    5  A    between atoms: C_14  and  C_18
REMARK    6  A    between atoms: C_18  and  O_19
REMARK                            x       y       z     vdW  Elec       q    Type
REMARK                         _______ _______ _______ _____ _____    ______ ____
ROOT
ATOM      1  C   UNL     1      34.848 -17.615 -21.905  0.00  0.00    -0.022 C 
ATOM      2  C   UNL     1      33.762 -18.359 -21.441  0.00  0.00    -0.004 C 
ATOM      3  C   UNL     1      36.147 -18.055 -21.668  0.00  0.00    -0.004 C 
ATOM      4  C   UNL     1      33.963 -19.555 -20.732  0.00  0.00    -0.000 C 
ATOM      5  C   UNL     1      35.284 -20.002 -20.492  0.00  0.00    +0.003 C 
ATOM      6  C   UNL     1      36.365 -19.241 -20.966  0.00  0.00    -0.000 C 
ATOM      7  C   UNL     1      32.883 -20.316 -20.259  0.00  0.00    +0.003 C 
ATOM      8  C   UNL     1      35.485 -21.198 -19.783  0.00  0.00    +0.037 C 
ATOM      9  C   UNL     1      34.400 -21.942 -19.319  0.00  0.00    +0.139 C 
ATOM     10  C   UNL     1      33.101 -21.502 -19.557  0.00  0.00    +0.037 C 
ENDROOT
BRANCH   9  11
ATOM     11  O   UNL     1      34.612 -23.099 -18.634  0.00  0.00    -0.471 OA
ATOM     12  C   UNL     1      33.766 -23.354 -17.513  0.00  0.00    +0.252 C 
ENDBRANCH   9  11
BRANCH   1  13
ATOM     13  C   UNL     1      34.611 -16.315 -22.673  0.00  0.00    +0.032 C 
BRANCH  13  14
ATOM     14  C   UNL     1      33.834 -15.221 -21.842  0.00  0.00    +0.093 C 
ATOM     15  C   UNL     1      32.521 -15.741 -21.224  0.00  0.00    +0.011 C 
ATOM     16  C   UNL     1      34.696 -14.652 -20.692  0.00  0.00    +0.011 C 
BRANCH  14  18
ATOM     17  O   UNL     1      32.356 -13.709 -23.097  0.00  0.00    -0.250 OA
ATOM     18  C   UNL     1      33.486 -14.045 -22.771  0.00  0.00    +0.313 C 
BRANCH  18  19
ATOM     19  O   UNL     1      34.600 -13.411 -23.223  0.00  0.00    -0.480 OA
ATOM     20  H   UNL     1      34.528 -12.760 -23.892  0.00  0.00    +0.295 HD
ENDBRANCH  18  19
ENDBRANCH  14  18
ENDBRANCH  13  14
BRANCH  13  21
ATOM     21  C   UNL     1      33.987 -16.569 -24.073  0.00  0.00    +0.005 C 
ATOM     22  C   UNL     1      34.805 -17.536 -24.925  0.00  0.00    +0.000 C 
ENDBRANCH  13  21
ENDBRANCH   1  13
TORSDOF 6
ENDMDL
MODEL 3
REMARK VINA RESULT:      -9.0      2.129      3.217
REMARK  Name = 59084697
REMARK  6 active torsions:
REMARK  status: ('A' for Active; 'I' for Inactive)
REMARK    1  A    between atoms: C_1  and  C_13
REMARK    2  A    between atoms: C_9  and  O_11
REMARK    3  A    between atoms: C_13  and  C_14
REMARK    4  A    between atoms: C_13  and  C_21
REMARK    5  A    between atoms: C_14  and  C_18
REMARK    6  A    between atoms: C_18  and  O_19
REMARK                            x       y       z     vdW  Elec       q    Type
REMARK                         _______ _______ _______ _____ _____    ______ ____
ROOT
ATOM      1  C   UNL     1      35.250 -23.768 -14.592  0.00  0.00    -0.022 C 
ATOM      2  C   UNL     1      33.995 -23.854 -13.987  0.00  0.00    -0.004 C 
ATOM      3  C   UNL     1      35.355 -23.415 -15.934  0.00  0.00    -0.004 C 
ATOM      4  C   UNL     1      32.827 -23.586 -14.720  0.00  0.00    -0.000 C 
ATOM      5  C   UNL     1      32.934 -23.225 -16.084  0.00  0.00    +0.003 C 
ATOM      6  C   UNL     1      34.205 -23.144 -16.676  0.00  0.00    -0.000 C 
ATOM      7  C   UNL     1      31.557 -23.667 -14.128  0.00  0.00    +0.003 C 
ATOM      8  C   UNL     1      31.766 -22.957 -16.817  0.00  0.00    +0.037 C 
ATOM      9  C   UNL     1      30.511 -23.043 -16.212  0.00  0.00    +0.139 C 
ATOM     10  C   UNL     1      30.407 -23.396 -14.870  0.00  0.00    +0.037 C 
ENDROOT
BRANCH   9  11
ATOM     11  O   UNL     1      29.389 -22.779 -16.936  0.00  0.00    -0.471 OA
ATOM     12  C   UNL     1      28.337 -23.743 -16.878  0.00  0.00    +0.252 C 
ENDBRANCH   9  11
BRANCH   1  13
ATOM     13  C   UNL     1      36.510 -24.065 -13.780  0.00  0.00    +0.032 C 
BRANCH  13  14
ATOM     14  C   UNL     1      37.129 -25.489 -14.068  0.00  0.00    +0.093 C 
ATOM     15  C   UNL     1      37.245 -26.370 -12.809  0.00  0.00    +0.011 C 
ATOM     16  C   UNL     1      36.304 -26.275 -15.112  0.00  0.00    +0.011 C 
BRANCH  14  18
ATOM     17  O   UNL     1      39.025 -24.248 -15.023  0.00  0.00    -0.250 OA
ATOM     18  C   UNL     1      38.541 -25.308 -14.650  0.00  0.00    +0.313 C 
BRANCH  18  19
ATOM     19  O   UNL     1      39.210 -26.488 -14.730  0.00  0.00    -0.480 OA
ATOM     20  H   UNL     1      40.145 -26.501 -14.677  0.00  0.00    +0.295 HD
ENDBRANCH  18  19
ENDBRANCH  14  18
ENDBRANCH  13  14
BRANCH  13  21
ATOM     21  C   UNL     1      36.309 -23.787 -12.266  0.00  0.00    +0.005 C 
ATOM     22  C   UNL     1      37.349 -22.828 -11.691  0.00  0.00    +0.000 C 
ENDBRANCH  13  21
ENDBRANCH   1  13
TORSDOF 6
ENDMDL
MODEL 4
REMARK VINA RESULT:      -8.5      3.524      8.950
REMARK  Name = 59084697
REMARK  6 active torsions:
REMARK  status: ('A' for Active; 'I' for Inactive)
REMARK    1  A    between atoms: C_1  and  C_13
REMARK    2  A    between atoms: C_9  and  O_11
REMARK    3  A    between atoms: C_13  and  C_14
REMARK    4  A    between atoms: C_13  and  C_21
REMARK    5  A    between atoms: C_14  and  C_18
REMARK    6  A    between atoms: C_18  and  O_19
REMARK                            x       y       z     vdW  Elec       q    Type
REMARK                         _______ _______ _______ _____ _____    ______ ____
ROOT
ATOM      1  C   UNL     1      33.983 -19.112 -21.219  0.00  0.00    -0.022 C 
ATOM      2  C   UNL     1      35.088 -19.647 -20.555  0.00  0.00    -0.004 C 
ATOM      3  C   UNL     1      32.716 -19.646 -21.004  0.00  0.00    -0.004 C 
ATOM      4  C   UNL     1      34.938 -20.724 -19.666  0.00  0.00    -0.000 C 
ATOM      5  C   UNL     1      33.650 -21.266 -19.448  0.00  0.00    +0.003 C 
ATOM      6  C   UNL     1      32.549 -20.715 -20.124  0.00  0.00    -0.000 C 
ATOM      7  C   UNL     1      36.039 -21.274 -18.990  0.00  0.00    +0.003 C 
ATOM      8  C   UNL     1      33.499 -22.344 -18.559  0.00  0.00    +0.037 C 
ATOM      9  C   UNL     1      34.604 -22.878 -17.896  0.00  0.00    +0.139 C 
ATOM     10  C   UNL     1      35.872 -22.343 -18.110  0.00  0.00    +0.037 C 
ENDROOT
BRANCH   9  11
ATOM     11  O   UNL     1      34.442 -23.922 -17.037  0.00  0.00    -0.471 OA
ATOM     12  C   UNL     1      34.537 -23.635 -15.642  0.00  0.00    +0.252 C 
ENDBRANCH   9  11
BRANCH   1  13
ATOM     13  C   UNL     1      34.165 -17.941 -22.184  0.00  0.00    +0.032 C 
BRANCH  13  14
ATOM     14  C   UNL     1      35.127 -18.260 -23.393  0.00  0.00    +0.093 C 
ATOM     15  C   UNL     1      36.616 -18.302 -22.996  0.00  0.00    +0.011 C 
ATOM     16  C   UNL     1      34.786 -19.612 -24.060  0.00  0.00    +0.011 C 
BRANCH  14  18
ATOM     17  O   UNL     1      34.256 -17.264 -25.466  0.00  0.00    -0.250 OA
ATOM     18  C   UNL     1      34.955 -17.171 -24.466  0.00  0.00    +0.313 C 
BRANCH  18  19
ATOM     19  O   UNL     1      35.699 -16.068 -24.191  0.00  0.00    -0.480 OA
ATOM     20  H   UNL     1      35.283 -15.289 -23.879  0.00  0.00    +0.295 HD
ENDBRANCH  18  19
ENDBRANCH  14  18
ENDBRANCH  13  14
BRANCH  13  21
ATOM     21  C   UNL     1      34.536 -16.627 -21.444  0.00  0.00    +0.005 C 
ATOM     22  C   UNL     1      33.321 -15.763 -21.115  0.00  0.00    +0.000 C 
ENDBRANCH  13  21
ENDBRANCH   1  13
TORSDOF 6
ENDMDL
MODEL 5
REMARK VINA RESULT:      -8.2      2.649      3.806
REMARK  Name = 59084697
REMARK  6 active torsions:
REMARK  status: ('A' for Active; 'I' for Inactive)
REMARK    1  A    between atoms: C_1  and  C_13
REMARK    2  A    between atoms: C_9  and  O_11
REMARK    3  A    between atoms: C_13  and  C_14
REMARK    4  A    between atoms: C_13  and  C_21
REMARK    5  A    between atoms: C_14  and  C_18
REMARK    6  A    between atoms: C_18  and  O_19
REMARK                            x       y       z     vdW  Elec       q    Type
REMARK                         _______ _______ _______ _____ _____    ______ ____
ROOT
ATOM      1  C   UNL     1      35.290 -23.818 -15.106  0.00  0.00    -0.022 C 
ATOM      2  C   UNL     1      34.395 -23.509 -16.132  0.00  0.00    -0.004 C 
ATOM      3  C   UNL     1      34.830 -23.970 -13.802  0.00  0.00    -0.004 C 
ATOM      4  C   UNL     1      33.026 -23.348 -15.863  0.00  0.00    -0.000 C 
ATOM      5  C   UNL     1      32.558 -23.504 -14.537  0.00  0.00    +0.003 C 
ATOM      6  C   UNL     1      33.473 -23.815 -13.517  0.00  0.00    -0.000 C 
ATOM      7  C   UNL     1      32.111 -23.038 -16.882  0.00  0.00    +0.003 C 
ATOM      8  C   UNL     1      31.189 -23.343 -14.268  0.00  0.00    +0.037 C 
ATOM      9  C   UNL     1      30.294 -23.034 -15.293  0.00  0.00    +0.139 C 
ATOM     10  C   UNL     1      30.755 -22.883 -16.598  0.00  0.00    +0.037 C 
ENDROOT
BRANCH   9  11
ATOM     11  O   UNL     1      28.970 -22.882 -15.016  0.00  0.00    -0.471 OA
ATOM     12  C   UNL     1      28.105 -22.600 -16.116  0.00  0.00    +0.252 C 
ENDBRANCH   9  11
BRANCH   1  13
ATOM     13  C   UNL     1      36.777 -23.988 -15.417  0.00  0.00    +0.032 C 
BRANCH  13  14
ATOM     14  C   UNL     1      37.482 -25.103 -14.551  0.00  0.00    +0.093 C 
ATOM     15  C   UNL     1      38.991 -25.235 -14.837  0.00  0.00    +0.011 C 
ATOM     16  C   UNL     1      37.316 -24.849 -13.036  0.00  0.00    +0.011 C 
BRANCH  14  18
ATOM     17  O   UNL     1      36.438 -26.829 -15.957  0.00  0.00    -0.250 OA
ATOM     18  C   UNL     1      36.823 -26.459 -14.857  0.00  0.00    +0.313 C 
BRANCH  18  19
ATOM     19  O   UNL     1      36.690 -27.221 -13.739  0.00  0.00    -0.480 OA
ATOM     20  H   UNL     1      37.449 -27.577 -13.322  0.00  0.00    +0.295 HD
ENDBRANCH  18  19
ENDBRANCH  14  18
ENDBRANCH  13  14
BRANCH  13  21
ATOM     21  C   UNL     1      37.537 -22.633 -15.395  0.00  0.00    +0.005 C 
ATOM     22  C   UNL     1      37.285 -21.787 -16.640  0.00  0.00    +0.000 C 
ENDBRANCH  13  21
ENDBRANCH   1  13
TORSDOF 6
ENDMDL
MODEL 6
REMARK VINA RESULT:      -8.1      8.708     12.719
REMARK  Name = 59084697
REMARK  6 active torsions:
REMARK  status: ('A' for Active; 'I' for Inactive)
REMARK    1  A    between atoms: C_1  and  C_13
REMARK    2  A    between atoms: C_9  and  O_11
REMARK    3  A    between atoms: C_13  and  C_14
REMARK    4  A    between atoms: C_13  and  C_21
REMARK    5  A    between atoms: C_14  and  C_18
REMARK    6  A    between atoms: C_18  and  O_19
REMARK                            x       y       z     vdW  Elec       q    Type
REMARK                         _______ _______ _______ _____ _____    ______ ____
ROOT
ATOM      1  C   UNL     1      33.386 -14.196 -22.966  0.00  0.00    -0.022 C 
ATOM      2  C   UNL     1      32.478 -13.587 -22.099  0.00  0.00    -0.004 C 
ATOM      3  C   UNL     1      34.023 -13.446 -23.949  0.00  0.00    -0.004 C 
ATOM      4  C   UNL     1      32.194 -12.215 -22.207  0.00  0.00    -0.000 C 
ATOM      5  C   UNL     1      32.843 -11.452 -23.207  0.00  0.00    +0.003 C 
ATOM      6  C   UNL     1      33.754 -12.082 -24.070  0.00  0.00    -0.000 C 
ATOM      7  C   UNL     1      31.284 -11.586 -21.344  0.00  0.00    +0.003 C 
ATOM      8  C   UNL     1      32.559 -10.080 -23.316  0.00  0.00    +0.037 C 
ATOM      9  C   UNL     1      31.651  -9.471 -22.450  0.00  0.00    +0.139 C 
ATOM     10  C   UNL     1      31.015 -10.222 -21.465  0.00  0.00    +0.037 C 
ENDROOT
BRANCH   9  11
ATOM     11  O   UNL     1      31.388  -8.141 -22.567  0.00  0.00    -0.471 OA
ATOM     12  C   UNL     1      31.040  -7.659 -23.865  0.00  0.00    +0.252 C 
ENDBRANCH   9  11
BRANCH   1  13
ATOM     13  C   UNL     1      33.681 -15.690 -22.835  0.00  0.00    +0.032 C 
BRANCH  13  14
ATOM     14  C   UNL     1      33.761 -16.193 -21.341  0.00  0.00    +0.093 C 
ATOM     15  C   UNL     1      34.631 -15.294 -20.440  0.00  0.00    +0.011 C 
ATOM     16  C   UNL     1      32.362 -16.289 -20.689  0.00  0.00    +0.011 C 
BRANCH  14  18
ATOM     17  O   UNL     1      33.862 -18.600 -21.828  0.00  0.00    -0.250 OA
ATOM     18  C   UNL     1      34.366 -17.606 -21.323  0.00  0.00    +0.313 C 
BRANCH  18  19
ATOM     19  O   UNL     1      35.546 -17.643 -20.650  0.00  0.00    -0.480 OA
ATOM     20  H   UNL     1      36.071 -18.419 -20.668  0.00  0.00    +0.295 HD
ENDBRANCH  18  19
ENDBRANCH  14  18
ENDBRANCH  13  14
BRANCH  13  21
ATOM     21  C   UNL     1      34.907 -16.121 -23.686  0.00  0.00    +0.005 C 
ATOM     22  C   UNL     1      34.520 -16.914 -24.932  0.00  0.00    +0.000 C 
ENDBRANCH  13  21
ENDBRANCH   1  13
TORSDOF 6
ENDMDL
MODEL 7
REMARK VINA RESULT:      -8.1      2.513      3.515
REMARK  Name = 59084697
REMARK  6 active torsions:
REMARK  status: ('A' for Active; 'I' for Inactive)
REMARK    1  A    between atoms: C_1  and  C_13
REMARK    2  A    between atoms: C_9  and  O_11
REMARK    3  A    between atoms: C_13  and  C_14
REMARK    4  A    between atoms: C_13  and  C_21
REMARK    5  A    between atoms: C_14  and  C_18
REMARK    6  A    between atoms: C_18  and  O_19
REMARK                            x       y       z     vdW  Elec       q    Type
REMARK                         _______ _______ _______ _____ _____    ______ ____
ROOT
ATOM      1  C   UNL     1      35.123 -23.953 -14.970  0.00  0.00    -0.022 C 
ATOM      2  C   UNL     1      34.286 -23.604 -16.031  0.00  0.00    -0.004 C 
ATOM      3  C   UNL     1      34.601 -24.097 -13.689  0.00  0.00    -0.004 C 
ATOM      4  C   UNL     1      32.913 -23.396 -15.822  0.00  0.00    -0.000 C 
ATOM      5  C   UNL     1      32.382 -23.544 -14.519  0.00  0.00    +0.003 C 
ATOM      6  C   UNL     1      33.239 -23.896 -13.463  0.00  0.00    -0.000 C 
ATOM      7  C   UNL     1      32.056 -23.045 -16.877  0.00  0.00    +0.003 C 
ATOM      8  C   UNL     1      31.009 -23.335 -14.309  0.00  0.00    +0.037 C 
ATOM      9  C   UNL     1      30.172 -22.986 -15.369  0.00  0.00    +0.139 C 
ATOM     10  C   UNL     1      30.695 -22.843 -16.652  0.00  0.00    +0.037 C 
ENDROOT
BRANCH   9  11
ATOM     11  O   UNL     1      28.843 -22.789 -15.150  0.00  0.00    -0.471 OA
ATOM     12  C   UNL     1      28.028 -22.528 -16.293  0.00  0.00    +0.252 C 
ENDBRANCH   9  11
BRANCH   1  13
ATOM     13  C   UNL     1      36.615 -24.174 -15.216  0.00  0.00    +0.032 C 
BRANCH  13  14
ATOM     14  C   UNL     1      37.218 -25.388 -14.408  0.00  0.00    +0.093 C 
ATOM     15  C   UNL     1      36.810 -25.395 -12.922  0.00  0.00    +0.011 C 
ATOM     16  C   UNL     1      36.799 -26.747 -15.012  0.00  0.00    +0.011 C 
BRANCH  14  18
ATOM     17  O   UNL     1      39.482 -24.871 -13.602  0.00  0.00    -0.250 OA
ATOM     18  C   UNL     1      38.753 -25.317 -14.477  0.00  0.00    +0.313 C 
BRANCH  18  19
ATOM     19  O   UNL     1      39.230 -25.798 -15.655  0.00  0.00    -0.480 OA
ATOM     20  H   UNL     1      40.103 -25.595 -15.924  0.00  0.00    +0.295 HD
ENDBRANCH  18  19
ENDBRANCH  14  18
ENDBRANCH  13  14
BRANCH  13  21
ATOM     21  C   UNL     1      37.436 -22.865 -15.047  0.00  0.00    +0.005 C 
ATOM     22  C   UNL     1      37.510 -22.037 -16.327  0.00  0.00    +0.000 C 
ENDBRANCH  13  21
ENDBRANCH   1  13
TORSDOF 6
ENDMDL
MODEL 8
REMARK VINA RESULT:      -8.1      2.021      2.815
REMARK  Name = 59084697
REMARK  6 active torsions:
REMARK  status: ('A' for Active; 'I' for Inactive)
REMARK    1  A    between atoms: C_1  and  C_13
REMARK    2  A    between atoms: C_9  and  O_11
REMARK    3  A    between atoms: C_13  and  C_14
REMARK    4  A    between atoms: C_13  and  C_21
REMARK    5  A    between atoms: C_14  and  C_18
REMARK    6  A    between atoms: C_18  and  O_19
REMARK                            x       y       z     vdW  Elec       q    Type
REMARK                         _______ _______ _______ _____ _____    ______ ____
ROOT
ATOM      1  C   UNL     1      35.176 -23.882 -13.970  0.00  0.00    -0.022 C 
ATOM      2  C   UNL     1      34.895 -23.427 -15.260  0.00  0.00    -0.004 C 
ATOM      3  C   UNL     1      34.138 -24.221 -13.109  0.00  0.00    -0.004 C 
ATOM      4  C   UNL     1      33.568 -23.305 -15.703  0.00  0.00    -0.000 C 
ATOM      5  C   UNL     1      32.512 -23.651 -14.827  0.00  0.00    +0.003 C 
ATOM      6  C   UNL     1      32.814 -24.108 -13.533  0.00  0.00    -0.000 C 
ATOM      7  C   UNL     1      33.267 -22.850 -16.996  0.00  0.00    +0.003 C 
ATOM      8  C   UNL     1      31.185 -23.530 -15.270  0.00  0.00    +0.037 C 
ATOM      9  C   UNL     1      30.903 -23.075 -16.559  0.00  0.00    +0.139 C 
ATOM     10  C   UNL     1      31.943 -22.736 -17.421  0.00  0.00    +0.037 C 
ENDROOT
BRANCH   9  11
ATOM     11  O   UNL     1      29.612 -22.964 -16.974  0.00  0.00    -0.471 OA
ATOM     12  C   UNL     1      28.655 -22.529 -16.008  0.00  0.00    +0.252 C 
ENDBRANCH   9  11
BRANCH   1  13
ATOM     13  C   UNL     1      36.627 -24.005 -13.504  0.00  0.00    +0.032 C 
BRANCH  13  14
ATOM     14  C   UNL     1      37.313 -25.364 -13.920  0.00  0.00    +0.093 C 
ATOM     15  C   UNL     1      37.366 -26.397 -12.777  0.00  0.00    +0.011 C 
ATOM     16  C   UNL     1      36.595 -26.031 -15.115  0.00  0.00    +0.011 C 
BRANCH  14  18
ATOM     17  O   UNL     1      39.762 -25.567 -13.870  0.00  0.00    -0.250 OA
ATOM     18  C   UNL     1      38.757 -25.076 -14.364  0.00  0.00    +0.313 C 
BRANCH  18  19
ATOM     19  O   UNL     1      38.804 -24.176 -15.381  0.00  0.00    -0.480 OA
ATOM     20  H   UNL     1      39.630 -23.916 -15.738  0.00  0.00    +0.295 HD
ENDBRANCH  18  19
ENDBRANCH  14  18
ENDBRANCH  13  14
BRANCH  13  21
ATOM     21  C   UNL     1      36.784 -23.684 -11.992  0.00  0.00    +0.005 C 
ATOM     22  C   UNL     1      37.800 -22.579 -11.719  0.00  0.00    +0.000 C 
ENDBRANCH  13  21
ENDBRANCH   1  13
TORSDOF 6
ENDMDL
MODEL 9
REMARK VINA RESULT:      -7.9     11.665     17.117
REMARK  Name = 59084697
REMARK  6 active torsions:
REMARK  status: ('A' for Active; 'I' for Inactive)
REMARK    1  A    between atoms: C_1  and  C_13
REMARK    2  A    between atoms: C_9  and  O_11
REMARK    3  A    between atoms: C_13  and  C_14
REMARK    4  A    between atoms: C_13  and  C_21
REMARK    5  A    between atoms: C_14  and  C_18
REMARK    6  A    between atoms: C_18  and  O_19
REMARK                            x       y       z     vdW  Elec       q    Type
REMARK                         _______ _______ _______ _____ _____    ______ ____
ROOT
ATOM      1  C   UNL     1      32.572  -8.621 -22.647  0.00  0.00    -0.022 C 
ATOM      2  C   UNL     1      33.050  -9.656 -23.452  0.00  0.00    -0.004 C 
ATOM      3  C   UNL     1      31.884  -8.912 -21.473  0.00  0.00    -0.004 C 
ATOM      4  C   UNL     1      32.844 -10.998 -23.091  0.00  0.00    -0.000 C 
ATOM      5  C   UNL     1      32.146 -11.293 -21.897  0.00  0.00    +0.003 C 
ATOM      6  C   UNL     1      31.673 -10.239 -21.098  0.00  0.00    -0.000 C 
ATOM      7  C   UNL     1      33.318 -12.051 -23.889  0.00  0.00    +0.003 C 
ATOM      8  C   UNL     1      31.940 -12.635 -21.536  0.00  0.00    +0.037 C 
ATOM      9  C   UNL     1      32.417 -13.670 -22.341  0.00  0.00    +0.139 C 
ATOM     10  C   UNL     1      33.105 -13.378 -23.515  0.00  0.00    +0.037 C 
ENDROOT
BRANCH   9  11
ATOM     11  O   UNL     1      32.210 -14.965 -21.977  0.00  0.00    -0.471 OA
ATOM     12  C   UNL     1      32.653 -15.352 -20.676  0.00  0.00    +0.252 C 
ENDBRANCH   9  11
BRANCH   1  13
ATOM     13  C   UNL     1      32.803  -7.167 -23.056  0.00  0.00    +0.032 C 
BRANCH  13  14
ATOM     14  C   UNL     1      31.480  -6.401 -23.450  0.00  0.00    +0.093 C 
ATOM     15  C   UNL     1      31.664  -5.432 -24.634  0.00  0.00    +0.011 C 
ATOM     16  C   UNL     1      30.338  -7.375 -23.819  0.00  0.00    +0.011 C 
BRANCH  14  18
ATOM     17  O   UNL     1      29.869  -5.149 -22.078  0.00  0.00    -0.250 OA
ATOM     18  C   UNL     1      31.002  -5.582 -22.239  0.00  0.00    +0.313 C 
BRANCH  18  19
ATOM     19  O   UNL     1      32.004  -5.362 -21.348  0.00  0.00    -0.480 OA
ATOM     20  H   UNL     1      31.828  -5.393 -20.429  0.00  0.00    +0.295 HD
ENDBRANCH  18  19
ENDBRANCH  14  18
ENDBRANCH  13  14
BRANCH  13  21
ATOM     21  C   UNL     1      33.923  -7.031 -24.124  0.00  0.00    +0.005 C 
ATOM     22  C   UNL     1      35.307  -7.383 -23.587  0.00  0.00    +0.000 C 
ENDBRANCH  13  21
ENDBRANCH   1  13
TORSDOF 6
ENDMDL
