MODEL 1
REMARK VINA RESULT:      -8.2      0.000      0.000
REMARK  Name = 132302
REMARK  4 active torsions:
REMARK  status: ('A' for Active; 'I' for Inactive)
REMARK    1  A    between atoms: N_1  and  S_13
REMARK    2  A    between atoms: C_11  and  C_19
REMARK    3  A    between atoms: S_13  and  N_16
REMARK    4  A    between atoms: C_19  and  O_20
REMARK                            x       y       z     vdW  Elec       q    Type
REMARK                         _______ _______ _______ _____ _____    ______ ____
ROOT
ATOM      1  N   UNL     1      35.489 -23.515 -14.304  0.00  0.00    -0.142 NA
ATOM      2  N   UNL     1      32.738 -24.019 -14.776  0.00  0.00    -0.280 N 
ATOM      3  N   UNL     1      30.723 -23.279 -15.839  0.00  0.00    -0.337 NA
ATOM      4  N   UNL     1      28.662 -24.475 -15.481  0.00  0.00    -0.184 NA
ATOM      5  C   UNL     1      35.020 -23.845 -15.679  0.00  0.00    +0.118 C 
ATOM      6  C   UNL     1      34.676 -24.227 -13.278  0.00  0.00    +0.118 C 
ATOM      7  C   UNL     1      33.562 -23.420 -15.836  0.00  0.00    +0.112 C 
ATOM      8  C   UNL     1      33.213 -23.812 -13.404  0.00  0.00    +0.112 C 
ATOM      9  C   UNL     1      31.368 -24.162 -15.021  0.00  0.00    +0.196 C 
ATOM     10  C   UNL     1      30.687 -25.218 -14.413  0.00  0.00    +0.070 C 
ATOM     11  C   UNL     1      29.405 -23.490 -16.021  0.00  0.00    +0.096 C 
ATOM     12  C   UNL     1      29.337 -25.324 -14.679  0.00  0.00    +0.114 C 
ENDROOT
BRANCH   1  13
ATOM     13  S   UNL     1      37.185 -23.575 -14.071  0.00  0.00    +0.102 S 
ATOM     14  O   UNL     1      37.501 -22.824 -12.871  0.00  0.00    -0.141 OA
ATOM     15  O   UNL     1      37.824 -23.241 -15.329  0.00  0.00    -0.141 OA
BRANCH  13  16
ATOM     16  N   UNL     1      37.411 -25.258 -13.756  0.00  0.00    -0.142 NA
ATOM     17  C   UNL     1      37.902 -26.097 -14.881  0.00  0.00    +0.116 C 
ATOM     18  C   UNL     1      38.055 -25.625 -12.468  0.00  0.00    +0.116 C 
ENDBRANCH  13  16
ENDBRANCH   1  13
BRANCH  11  19
ATOM     19  C   UNL     1      28.694 -22.530 -16.912  0.00  0.00    +0.251 C 
BRANCH  19  20
ATOM     20  O   UNL     1      27.763 -23.239 -17.722  0.00  0.00    -0.368 OA
ATOM     21  H   UNL     1      27.563 -22.718 -18.516  0.00  0.00    +0.212 HD
ENDBRANCH  19  20
ENDBRANCH  11  19
TORSDOF 4
ENDMDL
MODEL 2
REMARK VINA RESULT:      -7.9     10.893     12.301
REMARK  Name = 132302
REMARK  4 active torsions:
REMARK  status: ('A' for Active; 'I' for Inactive)
REMARK    1  A    between atoms: N_1  and  S_13
REMARK    2  A    between atoms: C_11  and  C_19
REMARK    3  A    between atoms: S_13  and  N_16
REMARK    4  A    between atoms: C_19  and  O_20
REMARK                            x       y       z     vdW  Elec       q    Type
REMARK                         _______ _______ _______ _____ _____    ______ ____
ROOT
ATOM      1  N   UNL     1      34.549 -17.241 -22.523  0.00  0.00    -0.142 NA
ATOM      2  N   UNL     1      33.725 -14.532 -22.704  0.00  0.00    -0.280 N 
ATOM      3  N   UNL     1      32.235 -12.837 -21.904  0.00  0.00    -0.337 NA
ATOM      4  N   UNL     1      32.252 -10.646 -22.905  0.00  0.00    -0.184 NA
ATOM      5  C   UNL     1      34.764 -16.321 -21.370  0.00  0.00    +0.118 C 
ATOM      6  C   UNL     1      34.669 -16.512 -23.817  0.00  0.00    +0.118 C 
ATOM      7  C   UNL     1      33.714 -15.212 -21.401  0.00  0.00    +0.112 C 
ATOM      8  C   UNL     1      33.622 -15.404 -23.881  0.00  0.00    +0.112 C 
ATOM      9  C   UNL     1      33.222 -13.228 -22.762  0.00  0.00    +0.196 C 
ATOM     10  C   UNL     1      33.751 -12.349 -23.709  0.00  0.00    +0.070 C 
ATOM     11  C   UNL     1      31.808 -11.566 -22.027  0.00  0.00    +0.096 C 
ATOM     12  C   UNL     1      33.228 -11.073 -23.733  0.00  0.00    +0.114 C 
ENDROOT
BRANCH   1  13
ATOM     13  S   UNL     1      35.386 -18.733 -22.438  0.00  0.00    +0.102 S 
ATOM     14  O   UNL     1      36.792 -18.448 -22.218  0.00  0.00    -0.141 OA
ATOM     15  O   UNL     1      34.975 -19.545 -23.566  0.00  0.00    -0.141 OA
BRANCH  13  16
ATOM     16  N   UNL     1      34.717 -19.400 -20.992  0.00  0.00    -0.142 NA
ATOM     17  C   UNL     1      33.260 -19.695 -20.994  0.00  0.00    +0.116 C 
ATOM     18  C   UNL     1      35.499 -20.468 -20.315  0.00  0.00    +0.116 C 
ENDBRANCH  13  16
ENDBRANCH   1  13
BRANCH  11  19
ATOM     19  C   UNL     1      30.730 -11.132 -21.094  0.00  0.00    +0.251 C 
BRANCH  19  20
ATOM     20  O   UNL     1      31.143 -11.367 -19.753  0.00  0.00    -0.368 OA
ATOM     21  H   UNL     1      30.605 -10.830 -19.150  0.00  0.00    +0.212 HD
ENDBRANCH  19  20
ENDBRANCH  11  19
TORSDOF 4
ENDMDL
MODEL 3
REMARK VINA RESULT:      -7.8      3.980      7.092
REMARK  Name = 132302
REMARK  4 active torsions:
REMARK  status: ('A' for Active; 'I' for Inactive)
REMARK    1  A    between atoms: N_1  and  S_13
REMARK    2  A    between atoms: C_11  and  C_19
REMARK    3  A    between atoms: S_13  and  N_16
REMARK    4  A    between atoms: C_19  and  O_20
REMARK                            x       y       z     vdW  Elec       q    Type
REMARK                         _______ _______ _______ _____ _____    ______ ____
ROOT
ATOM      1  N   UNL     1      34.603 -22.576 -17.391  0.00  0.00    -0.142 NA
ATOM      2  N   UNL     1      35.959 -23.418 -15.045  0.00  0.00    -0.280 N 
ATOM      3  N   UNL     1      35.893 -23.612 -12.659  0.00  0.00    -0.337 NA
ATOM      4  N   UNL     1      37.815 -24.439 -11.464  0.00  0.00    -0.184 NA
ATOM      5  C   UNL     1      34.068 -23.715 -16.592  0.00  0.00    +0.118 C 
ATOM      6  C   UNL     1      36.092 -22.541 -17.339  0.00  0.00    +0.118 C 
ATOM      7  C   UNL     1      34.498 -23.562 -15.136  0.00  0.00    +0.112 C 
ATOM      8  C   UNL     1      36.551 -22.376 -15.892  0.00  0.00    +0.112 C 
ATOM      9  C   UNL     1      36.572 -23.758 -13.835  0.00  0.00    +0.196 C 
ATOM     10  C   UNL     1      37.880 -24.244 -13.861  0.00  0.00    +0.070 C 
ATOM     11  C   UNL     1      36.557 -23.963 -11.541  0.00  0.00    +0.096 C 
ATOM     12  C   UNL     1      38.450 -24.567 -12.647  0.00  0.00    +0.114 C 
ENDROOT
BRANCH   1  13
ATOM     13  S   UNL     1      33.917 -22.384 -18.949  0.00  0.00    +0.102 S 
ATOM     14  O   UNL     1      32.570 -21.869 -18.786  0.00  0.00    -0.141 OA
ATOM     15  O   UNL     1      34.144 -23.607 -19.694  0.00  0.00    -0.141 OA
BRANCH  13  16
ATOM     16  N   UNL     1      34.921 -21.137 -19.596  0.00  0.00    -0.142 NA
ATOM     17  C   UNL     1      36.235 -21.547 -20.155  0.00  0.00    +0.116 C 
ATOM     18  C   UNL     1      34.258 -20.103 -20.433  0.00  0.00    +0.116 C 
ENDBRANCH  13  16
ENDBRANCH   1  13
BRANCH  11  19
ATOM     19  C   UNL     1      35.823 -23.807 -10.253  0.00  0.00    +0.251 C 
BRANCH  19  20
ATOM     20  O   UNL     1      35.204 -25.041  -9.910  0.00  0.00    -0.368 OA
ATOM     21  H   UNL     1      35.409 -25.260  -8.987  0.00  0.00    +0.212 HD
ENDBRANCH  19  20
ENDBRANCH  11  19
TORSDOF 4
ENDMDL
MODEL 4
REMARK VINA RESULT:      -7.4     11.194     12.460
REMARK  Name = 132302
REMARK  4 active torsions:
REMARK  status: ('A' for Active; 'I' for Inactive)
REMARK    1  A    between atoms: N_1  and  S_13
REMARK    2  A    between atoms: C_11  and  C_19
REMARK    3  A    between atoms: S_13  and  N_16
REMARK    4  A    between atoms: C_19  and  O_20
REMARK                            x       y       z     vdW  Elec       q    Type
REMARK                         _______ _______ _______ _____ _____    ______ ____
ROOT
ATOM      1  N   UNL     1      35.232 -17.037 -22.426  0.00  0.00    -0.142 NA
ATOM      2  N   UNL     1      33.817 -14.579 -22.432  0.00  0.00    -0.280 N 
ATOM      3  N   UNL     1      33.701 -12.340 -23.276  0.00  0.00    -0.337 NA
ATOM      4  N   UNL     1      31.992 -10.839 -22.480  0.00  0.00    -0.184 NA
ATOM      5  C   UNL     1      34.552 -16.575 -23.669  0.00  0.00    +0.118 C 
ATOM      6  C   UNL     1      34.477 -16.611 -21.215  0.00  0.00    +0.118 C 
ATOM      7  C   UNL     1      34.464 -15.051 -23.665  0.00  0.00    +0.112 C 
ATOM      8  C   UNL     1      34.383 -15.088 -21.178  0.00  0.00    +0.112 C 
ATOM      9  C   UNL     1      33.212 -13.317 -22.457  0.00  0.00    +0.196 C 
ATOM     10  C   UNL     1      32.108 -13.089 -21.633  0.00  0.00    +0.070 C 
ATOM     11  C   UNL     1      33.059 -11.156 -23.238  0.00  0.00    +0.096 C 
ATOM     12  C   UNL     1      31.541 -11.832 -21.687  0.00  0.00    +0.114 C 
ENDROOT
BRANCH   1  13
ATOM     13  S   UNL     1      35.748 -18.671 -22.435  0.00  0.00    +0.102 S 
ATOM     14  O   UNL     1      37.174 -18.693 -22.171  0.00  0.00    -0.141 OA
ATOM     15  O   UNL     1      35.217 -19.303 -23.627  0.00  0.00    -0.141 OA
BRANCH  13  16
ATOM     16  N   UNL     1      34.911 -19.284 -21.054  0.00  0.00    -0.142 NA
ATOM     17  C   UNL     1      33.490 -19.675 -21.242  0.00  0.00    +0.116 C 
ATOM     18  C   UNL     1      35.644 -20.249 -20.193  0.00  0.00    +0.116 C 
ENDBRANCH  13  16
ENDBRANCH   1  13
BRANCH  11  19
ATOM     19  C   UNL     1      33.587 -10.084 -24.129  0.00  0.00    +0.251 C 
BRANCH  19  20
ATOM     20  O   UNL     1      35.002 -10.018 -24.000  0.00  0.00    -0.368 OA
ATOM     21  H   UNL     1      35.292 -10.627 -23.302  0.00  0.00    +0.212 HD
ENDBRANCH  19  20
ENDBRANCH  11  19
TORSDOF 4
ENDMDL
MODEL 5
REMARK VINA RESULT:      -7.4     12.523     14.613
REMARK  Name = 132302
REMARK  4 active torsions:
REMARK  status: ('A' for Active; 'I' for Inactive)
REMARK    1  A    between atoms: N_1  and  S_13
REMARK    2  A    between atoms: C_11  and  C_19
REMARK    3  A    between atoms: S_13  and  N_16
REMARK    4  A    between atoms: C_19  and  O_20
REMARK                            x       y       z     vdW  Elec       q    Type
REMARK                         _______ _______ _______ _____ _____    ______ ____
ROOT
ATOM      1  N   UNL     1      32.574 -11.510 -22.633  0.00  0.00    -0.142 NA
ATOM      2  N   UNL     1      33.489 -14.103 -23.332  0.00  0.00    -0.280 N 
ATOM      3  N   UNL     1      34.526 -16.128 -22.581  0.00  0.00    -0.337 NA
ATOM      4  N   UNL     1      35.036 -17.877 -24.157  0.00  0.00    -0.184 NA
ATOM      5  C   UNL     1      31.901 -12.713 -22.067  0.00  0.00    +0.118 C 
ATOM      6  C   UNL     1      33.072 -11.777 -24.012  0.00  0.00    +0.118 C 
ATOM      7  C   UNL     1      32.892 -13.872 -22.008  0.00  0.00    +0.112 C 
ATOM      8  C   UNL     1      34.076 -12.926 -23.982  0.00  0.00    +0.112 C 
ATOM      9  C   UNL     1      34.012 -15.373 -23.597  0.00  0.00    +0.196 C 
ATOM     10  C   UNL     1      33.995 -15.842 -24.911  0.00  0.00    +0.070 C 
ATOM     11  C   UNL     1      35.007 -17.338 -22.923  0.00  0.00    +0.096 C 
ATOM     12  C   UNL     1      34.520 -17.099 -25.131  0.00  0.00    +0.114 C 
ENDROOT
BRANCH   1  13
ATOM     13  S   UNL     1      31.733 -10.032 -22.427  0.00  0.00    +0.102 S 
ATOM     14  O   UNL     1      30.314 -10.326 -22.369  0.00  0.00    -0.141 OA
ATOM     15  O   UNL     1      32.242  -9.086 -23.401  0.00  0.00    -0.141 OA
BRANCH  13  16
ATOM     16  N   UNL     1      32.275  -9.566 -20.855  0.00  0.00    -0.142 NA
ATOM     17  C   UNL     1      32.628  -8.136 -20.657  0.00  0.00    +0.116 C 
ATOM     18  C   UNL     1      31.533 -10.120 -19.692  0.00  0.00    +0.116 C 
ENDBRANCH  13  16
ENDBRANCH   1  13
BRANCH  11  19
ATOM     19  C   UNL     1      35.570 -18.167 -21.820  0.00  0.00    +0.251 C 
BRANCH  19  20
ATOM     20  O   UNL     1      35.434 -17.468 -20.588  0.00  0.00    -0.368 OA
ATOM     21  H   UNL     1      34.849 -17.967 -19.996  0.00  0.00    +0.212 HD
ENDBRANCH  19  20
ENDBRANCH  11  19
TORSDOF 4
ENDMDL
MODEL 6
REMARK VINA RESULT:      -7.4      1.758      2.479
REMARK  Name = 132302
REMARK  4 active torsions:
REMARK  status: ('A' for Active; 'I' for Inactive)
REMARK    1  A    between atoms: N_1  and  S_13
REMARK    2  A    between atoms: C_11  and  C_19
REMARK    3  A    between atoms: S_13  and  N_16
REMARK    4  A    between atoms: C_19  and  O_20
REMARK                            x       y       z     vdW  Elec       q    Type
REMARK                         _______ _______ _______ _____ _____    ______ ____
ROOT
ATOM      1  N   UNL     1      36.126 -24.563 -13.337  0.00  0.00    -0.142 NA
ATOM      2  N   UNL     1      33.653 -23.964 -14.591  0.00  0.00    -0.280 N 
ATOM      3  N   UNL     1      31.302 -24.415 -14.696  0.00  0.00    -0.337 NA
ATOM      4  N   UNL     1      29.946 -23.358 -16.383  0.00  0.00    -0.184 NA
ATOM      5  C   UNL     1      35.043 -23.894 -12.562  0.00  0.00    +0.118 C 
ATOM      6  C   UNL     1      36.100 -24.139 -14.765  0.00  0.00    +0.118 C 
ATOM      7  C   UNL     1      33.687 -24.270 -13.153  0.00  0.00    +0.112 C 
ATOM      8  C   UNL     1      34.756 -24.513 -15.387  0.00  0.00    +0.112 C 
ATOM      9  C   UNL     1      32.401 -23.768 -15.185  0.00  0.00    +0.196 C 
ATOM     10  C   UNL     1      32.308 -22.905 -16.278  0.00  0.00    +0.070 C 
ATOM     11  C   UNL     1      30.138 -24.170 -15.326  0.00  0.00    +0.096 C 
ATOM     12  C   UNL     1      31.057 -22.739 -16.835  0.00  0.00    +0.114 C 
ENDROOT
BRANCH   1  13
ATOM     13  S   UNL     1      37.670 -24.558 -12.596  0.00  0.00    +0.102 S 
ATOM     14  O   UNL     1      37.491 -24.820 -11.181  0.00  0.00    -0.141 OA
ATOM     15  O   UNL     1      38.375 -23.369 -13.033  0.00  0.00    -0.141 OA
BRANCH  13  16
ATOM     16  N   UNL     1      38.391 -25.942 -13.336  0.00  0.00    -0.142 NA
ATOM     17  C   UNL     1      37.481 -26.887 -14.035  0.00  0.00    +0.116 C 
ATOM     18  C   UNL     1      39.653 -25.725 -14.091  0.00  0.00    +0.116 C 
ENDBRANCH  13  16
ENDBRANCH   1  13
BRANCH  11  19
ATOM     19  C   UNL     1      28.934 -24.872 -14.797  0.00  0.00    +0.251 C 
BRANCH  19  20
ATOM     20  O   UNL     1      29.271 -26.219 -14.490  0.00  0.00    -0.368 OA
ATOM     21  H   UNL     1      28.863 -26.470 -13.645  0.00  0.00    +0.212 HD
ENDBRANCH  19  20
ENDBRANCH  11  19
TORSDOF 4
ENDMDL
MODEL 7
REMARK VINA RESULT:      -7.4      1.734      2.033
REMARK  Name = 132302
REMARK  4 active torsions:
REMARK  status: ('A' for Active; 'I' for Inactive)
REMARK    1  A    between atoms: N_1  and  S_13
REMARK    2  A    between atoms: C_11  and  C_19
REMARK    3  A    between atoms: S_13  and  N_16
REMARK    4  A    between atoms: C_19  and  O_20
REMARK                            x       y       z     vdW  Elec       q    Type
REMARK                         _______ _______ _______ _____ _____    ______ ____
ROOT
ATOM      1  N   UNL     1      36.659 -24.589 -13.339  0.00  0.00    -0.142 NA
ATOM      2  N   UNL     1      33.903 -24.460 -13.997  0.00  0.00    -0.280 N 
ATOM      3  N   UNL     1      32.235 -23.548 -15.455  0.00  0.00    -0.337 NA
ATOM      4  N   UNL     1      29.903 -24.001 -15.052  0.00  0.00    -0.184 NA
ATOM      5  C   UNL     1      36.175 -25.162 -14.627  0.00  0.00    +0.118 C 
ATOM      6  C   UNL     1      35.632 -24.738 -12.270  0.00  0.00    +0.118 C 
ATOM      7  C   UNL     1      34.910 -24.429 -15.067  0.00  0.00    +0.112 C 
ATOM      8  C   UNL     1      34.357 -24.003 -12.679  0.00  0.00    +0.112 C 
ATOM      9  C   UNL     1      32.562 -24.298 -14.361  0.00  0.00    +0.196 C 
ATOM     10  C   UNL     1      31.579 -24.917 -13.587  0.00  0.00    +0.070 C 
ATOM     11  C   UNL     1      30.922 -23.445 -15.735  0.00  0.00    +0.096 C 
ATOM     12  C   UNL     1      30.269 -24.733 -13.980  0.00  0.00    +0.114 C 
ENDROOT
BRANCH   1  13
ATOM     13  S   UNL     1      38.254 -25.028 -12.893  0.00  0.00    +0.102 S 
ATOM     14  O   UNL     1      38.197 -26.319 -12.234  0.00  0.00    -0.141 OA
ATOM     15  O   UNL     1      38.861 -23.895 -12.223  0.00  0.00    -0.141 OA
BRANCH  13  16
ATOM     16  N   UNL     1      38.985 -25.221 -14.445  0.00  0.00    -0.142 NA
ATOM     17  C   UNL     1      38.980 -24.040 -15.347  0.00  0.00    +0.116 C 
ATOM     18  C   UNL     1      40.277 -25.955 -14.498  0.00  0.00    +0.116 C 
ENDBRANCH  13  16
ENDBRANCH   1  13
BRANCH  11  19
ATOM     19  C   UNL     1      30.558 -22.627 -16.927  0.00  0.00    +0.251 C 
BRANCH  19  20
ATOM     20  O   UNL     1      29.156 -22.390 -16.926  0.00  0.00    -0.368 OA
ATOM     21  H   UNL     1      28.690 -23.207 -16.689  0.00  0.00    +0.212 HD
ENDBRANCH  19  20
ENDBRANCH  11  19
TORSDOF 4
ENDMDL
MODEL 8
REMARK VINA RESULT:      -7.4     14.077     15.899
REMARK  Name = 132302
REMARK  4 active torsions:
REMARK  status: ('A' for Active; 'I' for Inactive)
REMARK    1  A    between atoms: N_1  and  S_13
REMARK    2  A    between atoms: C_11  and  C_19
REMARK    3  A    between atoms: S_13  and  N_16
REMARK    4  A    between atoms: C_19  and  O_20
REMARK                            x       y       z     vdW  Elec       q    Type
REMARK                         _______ _______ _______ _____ _____    ______ ____
ROOT
ATOM      1  N   UNL     1      32.165 -10.024 -23.079  0.00  0.00    -0.142 NA
ATOM      2  N   UNL     1      33.247 -12.639 -22.891  0.00  0.00    -0.280 N 
ATOM      3  N   UNL     1      33.857 -14.640 -24.058  0.00  0.00    -0.337 NA
ATOM      4  N   UNL     1      34.664 -16.552 -22.833  0.00  0.00    -0.184 NA
ATOM      5  C   UNL     1      33.476 -10.333 -23.717  0.00  0.00    +0.118 C 
ATOM      6  C   UNL     1      31.979 -10.818 -21.832  0.00  0.00    +0.118 C 
ATOM      7  C   UNL     1      33.531 -11.816 -24.075  0.00  0.00    +0.112 C 
ATOM      8  C   UNL     1      32.017 -12.308 -22.162  0.00  0.00    +0.112 C 
ATOM      9  C   UNL     1      33.723 -13.955 -22.884  0.00  0.00    +0.196 C 
ATOM     10  C   UNL     1      34.052 -14.541 -21.660  0.00  0.00    +0.070 C 
ATOM     11  C   UNL     1      34.321 -15.901 -23.961  0.00  0.00    +0.096 C 
ATOM     12  C   UNL     1      34.517 -15.839 -21.697  0.00  0.00    +0.114 C 
ENDROOT
BRANCH   1  13
ATOM     13  S   UNL     1      31.783  -8.358 -22.955  0.00  0.00    +0.102 S 
ATOM     14  O   UNL     1      31.786  -8.000 -21.550  0.00  0.00    -0.141 OA
ATOM     15  O   UNL     1      30.611  -8.104 -23.770  0.00  0.00    -0.141 OA
BRANCH  13  16
ATOM     16  N   UNL     1      33.161  -7.650 -23.718  0.00  0.00    -0.142 NA
ATOM     17  C   UNL     1      32.932  -6.424 -24.526  0.00  0.00    +0.116 C 
ATOM     18  C   UNL     1      34.407  -7.560 -22.913  0.00  0.00    +0.116 C 
ENDBRANCH  13  16
ENDBRANCH   1  13
BRANCH  11  19
ATOM     19  C   UNL     1      34.470 -16.655 -25.238  0.00  0.00    +0.251 C 
BRANCH  19  20
ATOM     20  O   UNL     1      33.850 -15.928 -26.291  0.00  0.00    -0.368 OA
ATOM     21  H   UNL     1      33.921 -14.977 -26.113  0.00  0.00    +0.212 HD
ENDBRANCH  19  20
ENDBRANCH  11  19
TORSDOF 4
ENDMDL
MODEL 9
REMARK VINA RESULT:      -7.3      4.036      5.052
REMARK  Name = 132302
REMARK  4 active torsions:
REMARK  status: ('A' for Active; 'I' for Inactive)
REMARK    1  A    between atoms: N_1  and  S_13
REMARK    2  A    between atoms: C_11  and  C_19
REMARK    3  A    between atoms: S_13  and  N_16
REMARK    4  A    between atoms: C_19  and  O_20
REMARK                            x       y       z     vdW  Elec       q    Type
REMARK                         _______ _______ _______ _____ _____    ______ ____
ROOT
ATOM      1  N   UNL     1      35.957 -24.238 -13.530  0.00  0.00    -0.142 NA
ATOM      2  N   UNL     1      35.240 -23.270 -16.098  0.00  0.00    -0.280 N 
ATOM      3  N   UNL     1      35.905 -21.991 -18.011  0.00  0.00    -0.337 NA
ATOM      4  N   UNL     1      34.350 -21.619 -19.813  0.00  0.00    -0.184 NA
ATOM      5  C   UNL     1      36.680 -24.729 -14.737  0.00  0.00    +0.118 C 
ATOM      6  C   UNL     1      34.529 -23.948 -13.843  0.00  0.00    +0.118 C 
ATOM      7  C   UNL     1      36.630 -23.663 -15.829  0.00  0.00    +0.112 C 
ATOM      8  C   UNL     1      34.449 -22.875 -14.926  0.00  0.00    +0.112 C 
ATOM      9  C   UNL     1      34.952 -22.710 -17.347  0.00  0.00    +0.196 C 
ATOM     10  C   UNL     1      33.681 -22.904 -17.891  0.00  0.00    +0.070 C 
ATOM     11  C   UNL     1      35.546 -21.488 -19.207  0.00  0.00    +0.096 C 
ATOM     12  C   UNL     1      33.438 -22.336 -19.124  0.00  0.00    +0.114 C 
ENDROOT
BRANCH   1  13
ATOM     13  S   UNL     1      36.228 -25.134 -12.095  0.00  0.00    +0.102 S 
ATOM     14  O   UNL     1      36.852 -26.392 -12.462  0.00  0.00    -0.141 OA
ATOM     15  O   UNL     1      35.002 -25.128 -11.322  0.00  0.00    -0.141 OA
BRANCH  13  16
ATOM     16  N   UNL     1      37.396 -24.138 -11.304  0.00  0.00    -0.142 NA
ATOM     17  C   UNL     1      38.732 -24.021 -11.946  0.00  0.00    +0.116 C 
ATOM     18  C   UNL     1      36.921 -22.836 -10.768  0.00  0.00    +0.116 C 
ENDBRANCH  13  16
ENDBRANCH   1  13
BRANCH  11  19
ATOM     19  C   UNL     1      36.581 -20.702 -19.937  0.00  0.00    +0.251 C 
BRANCH  19  20
ATOM     20  O   UNL     1      36.004 -19.495 -20.420  0.00  0.00    -0.368 OA
ATOM     21  H   UNL     1      36.640 -18.770 -20.320  0.00  0.00    +0.212 HD
ENDBRANCH  19  20
ENDBRANCH  11  19
TORSDOF 4
ENDMDL
