MODEL 1
REMARK VINA RESULT:      -8.0      0.000      0.000
REMARK  Name = 151118
REMARK  3 active torsions:
REMARK  status: ('A' for Active; 'I' for Inactive)
REMARK    1  A    between atoms: C_1  and  C_14
REMARK    2  A    between atoms: C_4  and  N_8
REMARK    3  A    between atoms: N_13  and  C_16
REMARK                            x       y       z     vdW  Elec       q    Type
REMARK                         _______ _______ _______ _____ _____    ______ ____
ROOT
ATOM      1  C   UNL     1      34.571 -22.116 -18.483  0.00  0.00    +0.053 C 
ATOM      2  C   UNL     1      35.855 -21.761 -18.846  0.00  0.00    +0.006 C 
ATOM      3  C   UNL     1      33.460 -21.626 -19.137  0.00  0.00    +0.006 C 
ATOM      4  C   UNL     1      34.925 -20.366 -20.586  0.00  0.00    +0.050 C 
ATOM      5  C   UNL     1      36.033 -20.876 -19.910  0.00  0.00    +0.015 C 
ATOM      6  C   UNL     1      33.638 -20.741 -20.199  0.00  0.00    +0.015 C 
ENDROOT
BRANCH   4   8
ATOM      7  O   UNL     1      35.341 -17.384 -20.599  0.00  0.00    -0.275 OA
ATOM      8  N   UNL     1      35.103 -19.481 -21.650  0.00  0.00    -0.284 N 
ATOM      9  C   UNL     1      35.292 -18.093 -21.599  0.00  0.00    +0.227 C 
ATOM     10  C   UNL     1      35.446 -17.499 -22.975  0.00  0.00    +0.095 C 
ATOM     11  H   UNL     1      35.094 -19.881 -22.549  0.00  0.00    +0.155 HD
ENDBRANCH   4   8
BRANCH   1  14
ATOM     12  O   UNL     1      33.557 -23.963 -17.454  0.00  0.00    -0.270 OA
ATOM     13  N   UNL     1      35.188 -22.840 -16.250  0.00  0.00    -0.304 N 
ATOM     14  C   UNL     1      34.381 -23.058 -17.350  0.00  0.00    +0.246 C 
ATOM     15  H   UNL     1      35.819 -22.084 -16.264  0.00  0.00    +0.150 HD
BRANCH  13  16
ATOM     16  C   UNL     1      35.139 -23.690 -15.074  0.00  0.00    +0.057 C 
ATOM     17  C   UNL     1      36.090 -23.135 -14.008  0.00  0.00    +0.020 C 
ATOM     18  C   UNL     1      33.706 -23.710 -14.532  0.00  0.00    +0.020 C 
ATOM     19  C   UNL     1      35.569 -25.110 -15.457  0.00  0.00    +0.020 C 
ENDBRANCH  13  16
ENDBRANCH   1  14
TORSDOF 3
ENDMDL
MODEL 2
REMARK VINA RESULT:      -8.0      0.014      1.577
REMARK  Name = 151118
REMARK  3 active torsions:
REMARK  status: ('A' for Active; 'I' for Inactive)
REMARK    1  A    between atoms: C_1  and  C_14
REMARK    2  A    between atoms: C_4  and  N_8
REMARK    3  A    between atoms: N_13  and  C_16
REMARK                            x       y       z     vdW  Elec       q    Type
REMARK                         _______ _______ _______ _____ _____    ______ ____
ROOT
ATOM      1  C   UNL     1      34.573 -22.113 -18.496  0.00  0.00    +0.053 C 
ATOM      2  C   UNL     1      33.459 -21.622 -19.148  0.00  0.00    +0.006 C 
ATOM      3  C   UNL     1      35.855 -21.756 -18.859  0.00  0.00    +0.006 C 
ATOM      4  C   UNL     1      34.924 -20.361 -20.598  0.00  0.00    +0.050 C 
ATOM      5  C   UNL     1      33.637 -20.736 -20.210  0.00  0.00    +0.015 C 
ATOM      6  C   UNL     1      36.032 -20.871 -19.922  0.00  0.00    +0.015 C 
ENDROOT
BRANCH   4   8
ATOM      7  O   UNL     1      35.339 -17.379 -20.607  0.00  0.00    -0.275 OA
ATOM      8  N   UNL     1      35.103 -19.474 -21.660  0.00  0.00    -0.284 N 
ATOM      9  C   UNL     1      35.292 -18.087 -21.608  0.00  0.00    +0.227 C 
ATOM     10  C   UNL     1      35.447 -17.491 -22.983  0.00  0.00    +0.095 C 
ATOM     11  H   UNL     1      35.095 -19.874 -22.560  0.00  0.00    +0.155 HD
ENDBRANCH   4   8
BRANCH   1  14
ATOM     12  O   UNL     1      33.564 -23.967 -17.473  0.00  0.00    -0.270 OA
ATOM     13  N   UNL     1      35.186 -22.837 -16.262  0.00  0.00    -0.304 N 
ATOM     14  C   UNL     1      34.383 -23.057 -17.365  0.00  0.00    +0.246 C 
ATOM     15  H   UNL     1      35.812 -22.077 -16.273  0.00  0.00    +0.150 HD
BRANCH  13  16
ATOM     16  C   UNL     1      35.137 -23.688 -15.087  0.00  0.00    +0.057 C 
ATOM     17  C   UNL     1      35.559 -25.110 -15.473  0.00  0.00    +0.020 C 
ATOM     18  C   UNL     1      36.093 -23.133 -14.027  0.00  0.00    +0.020 C 
ATOM     19  C   UNL     1      33.707 -23.709 -14.535  0.00  0.00    +0.020 C 
ENDBRANCH  13  16
ENDBRANCH   1  14
TORSDOF 3
ENDMDL
MODEL 3
REMARK VINA RESULT:      -7.9      5.375      8.553
REMARK  Name = 151118
REMARK  3 active torsions:
REMARK  status: ('A' for Active; 'I' for Inactive)
REMARK    1  A    between atoms: C_1  and  C_14
REMARK    2  A    between atoms: C_4  and  N_8
REMARK    3  A    between atoms: N_13  and  C_16
REMARK                            x       y       z     vdW  Elec       q    Type
REMARK                         _______ _______ _______ _____ _____    ______ ____
ROOT
ATOM      1  C   UNL     1      33.788 -15.023 -21.727  0.00  0.00    +0.053 C 
ATOM      2  C   UNL     1      33.029 -14.468 -20.717  0.00  0.00    +0.006 C 
ATOM      3  C   UNL     1      33.918 -14.425 -22.963  0.00  0.00    +0.006 C 
ATOM      4  C   UNL     1      32.486 -12.636 -22.197  0.00  0.00    +0.050 C 
ATOM      5  C   UNL     1      32.371 -13.261 -20.955  0.00  0.00    +0.015 C 
ATOM      6  C   UNL     1      33.260 -13.219 -23.201  0.00  0.00    +0.015 C 
ENDROOT
BRANCH   4   8
ATOM      7  O   UNL     1      33.536 -10.010 -23.229  0.00  0.00    -0.275 OA
ATOM      8  N   UNL     1      31.829 -11.429 -22.435  0.00  0.00    -0.284 N 
ATOM      9  C   UNL     1      32.370 -10.230 -22.918  0.00  0.00    +0.227 C 
ATOM     10  C   UNL     1      31.323  -9.152 -23.036  0.00  0.00    +0.095 C 
ATOM     11  H   UNL     1      30.864 -11.418 -22.240  0.00  0.00    +0.155 HD
ENDBRANCH   4   8
BRANCH   1  14
ATOM     12  O   UNL     1      35.074 -16.473 -20.408  0.00  0.00    -0.270 OA
ATOM     13  N   UNL     1      34.397 -17.247 -22.485  0.00  0.00    -0.304 N 
ATOM     14  C   UNL     1      34.487 -16.309 -21.474  0.00  0.00    +0.246 C 
ATOM     15  H   UNL     1      33.903 -17.017 -23.305  0.00  0.00    +0.150 HD
BRANCH  13  16
ATOM     16  C   UNL     1      35.005 -18.561 -22.378  0.00  0.00    +0.057 C 
ATOM     17  C   UNL     1      34.294 -19.362 -21.281  0.00  0.00    +0.020 C 
ATOM     18  C   UNL     1      34.869 -19.286 -23.721  0.00  0.00    +0.020 C 
ATOM     19  C   UNL     1      36.488 -18.405 -22.020  0.00  0.00    +0.020 C 
ENDBRANCH  13  16
ENDBRANCH   1  14
TORSDOF 3
ENDMDL
MODEL 4
REMARK VINA RESULT:      -7.9      4.589     10.311
REMARK  Name = 151118
REMARK  3 active torsions:
REMARK  status: ('A' for Active; 'I' for Inactive)
REMARK    1  A    between atoms: C_1  and  C_14
REMARK    2  A    between atoms: C_4  and  N_8
REMARK    3  A    between atoms: N_13  and  C_16
REMARK                            x       y       z     vdW  Elec       q    Type
REMARK                         _______ _______ _______ _____ _____    ______ ____
ROOT
ATOM      1  C   UNL     1      34.049 -14.592 -22.640  0.00  0.00    +0.053 C 
ATOM      2  C   UNL     1      34.646 -15.526 -23.462  0.00  0.00    +0.006 C 
ATOM      3  C   UNL     1      33.969 -14.758 -21.273  0.00  0.00    +0.006 C 
ATOM      4  C   UNL     1      35.116 -16.871 -21.510  0.00  0.00    +0.050 C 
ATOM      5  C   UNL     1      35.185 -16.679 -22.890  0.00  0.00    +0.015 C 
ATOM      6  C   UNL     1      34.507 -15.910 -20.702  0.00  0.00    +0.015 C 
ENDROOT
BRANCH   4   8
ATOM      7  O   UNL     1      34.183 -19.731 -21.625  0.00  0.00    -0.275 OA
ATOM      8  N   UNL     1      35.655 -18.023 -20.937  0.00  0.00    -0.284 N 
ATOM      9  C   UNL     1      35.177 -19.337 -21.023  0.00  0.00    +0.227 C 
ATOM     10  C   UNL     1      36.049 -20.301 -20.260  0.00  0.00    +0.095 C 
ATOM     11  H   UNL     1      36.475 -17.897 -20.407  0.00  0.00    +0.155 HD
ENDBRANCH   4   8
BRANCH   1  14
ATOM     12  O   UNL     1      32.260 -13.182 -23.198  0.00  0.00    -0.270 OA
ATOM     13  N   UNL     1      34.386 -12.496 -23.818  0.00  0.00    -0.304 N 
ATOM     14  C   UNL     1      33.474 -13.364 -23.248  0.00  0.00    +0.246 C 
ATOM     15  H   UNL     1      35.341 -12.735 -23.808  0.00  0.00    +0.150 HD
BRANCH  13  16
ATOM     16  C   UNL     1      33.982 -11.243 -24.430  0.00  0.00    +0.057 C 
ATOM     17  C   UNL     1      32.932 -10.561 -23.546  0.00  0.00    +0.020 C 
ATOM     18  C   UNL     1      35.210 -10.337 -24.571  0.00  0.00    +0.020 C 
ATOM     19  C   UNL     1      33.384 -11.525 -25.814  0.00  0.00    +0.020 C 
ENDBRANCH  13  16
ENDBRANCH   1  14
TORSDOF 3
ENDMDL
MODEL 5
REMARK VINA RESULT:      -7.9      8.617     12.148
REMARK  Name = 151118
REMARK  3 active torsions:
REMARK  status: ('A' for Active; 'I' for Inactive)
REMARK    1  A    between atoms: C_1  and  C_14
REMARK    2  A    between atoms: C_4  and  N_8
REMARK    3  A    between atoms: N_13  and  C_16
REMARK                            x       y       z     vdW  Elec       q    Type
REMARK                         _______ _______ _______ _____ _____    ______ ____
ROOT
ATOM      1  C   UNL     1      32.597 -12.006 -22.848  0.00  0.00    +0.053 C 
ATOM      2  C   UNL     1      32.173 -13.090 -22.106  0.00  0.00    +0.006 C 
ATOM      3  C   UNL     1      33.466 -12.137 -23.911  0.00  0.00    +0.006 C 
ATOM      4  C   UNL     1      33.520 -14.519 -23.513  0.00  0.00    +0.050 C 
ATOM      5  C   UNL     1      32.640 -14.361 -22.443  0.00  0.00    +0.015 C 
ATOM      6  C   UNL     1      33.933 -13.407 -24.247  0.00  0.00    +0.015 C 
ENDROOT
BRANCH   4   8
ATOM      7  O   UNL     1      33.736 -15.874 -26.194  0.00  0.00    -0.275 OA
ATOM      8  N   UNL     1      33.988 -15.790 -23.851  0.00  0.00    -0.284 N 
ATOM      9  C   UNL     1      34.065 -16.373 -25.122  0.00  0.00    +0.227 C 
ATOM     10  C   UNL     1      34.631 -17.769 -25.063  0.00  0.00    +0.095 C 
ATOM     11  H   UNL     1      34.302 -16.346 -23.102  0.00  0.00    +0.155 HD
ENDBRANCH   4   8
BRANCH   1  14
ATOM     12  O   UNL     1      31.024 -10.544 -21.906  0.00  0.00    -0.270 OA
ATOM     13  N   UNL     1      32.929  -9.602 -22.832  0.00  0.00    -0.304 N 
ATOM     14  C   UNL     1      32.101 -10.653 -22.488  0.00  0.00    +0.246 C 
ATOM     15  H   UNL     1      33.774  -9.795 -23.300  0.00  0.00    +0.150 HD
BRANCH  13  16
ATOM     16  C   UNL     1      32.596  -8.222 -22.527  0.00  0.00    +0.057 C 
ATOM     17  C   UNL     1      33.721  -7.307 -23.024  0.00  0.00    +0.020 C 
ATOM     18  C   UNL     1      31.283  -7.858 -23.227  0.00  0.00    +0.020 C 
ATOM     19  C   UNL     1      32.437  -8.063 -21.010  0.00  0.00    +0.020 C 
ENDBRANCH  13  16
ENDBRANCH   1  14
TORSDOF 3
ENDMDL
MODEL 6
REMARK VINA RESULT:      -7.8      5.129      6.327
REMARK  Name = 151118
REMARK  3 active torsions:
REMARK  status: ('A' for Active; 'I' for Inactive)
REMARK    1  A    between atoms: C_1  and  C_14
REMARK    2  A    between atoms: C_4  and  N_8
REMARK    3  A    between atoms: N_13  and  C_16
REMARK                            x       y       z     vdW  Elec       q    Type
REMARK                         _______ _______ _______ _____ _____    ______ ____
ROOT
ATOM      1  C   UNL     1      33.571 -23.899 -15.131  0.00  0.00    +0.053 C 
ATOM      2  C   UNL     1      32.896 -23.986 -13.930  0.00  0.00    +0.006 C 
ATOM      3  C   UNL     1      32.952 -23.498 -16.296  0.00  0.00    +0.006 C 
ATOM      4  C   UNL     1      30.891 -23.248 -15.059  0.00  0.00    +0.050 C 
ATOM      5  C   UNL     1      31.541 -23.656 -13.894  0.00  0.00    +0.015 C 
ATOM      6  C   UNL     1      31.597 -23.169 -16.260  0.00  0.00    +0.015 C 
ENDROOT
BRANCH   4   8
ATOM      7  O   UNL     1      29.025 -22.413 -17.270  0.00  0.00    -0.275 OA
ATOM      8  N   UNL     1      29.536 -22.919 -15.024  0.00  0.00    -0.284 N 
ATOM      9  C   UNL     1      28.711 -22.534 -16.089  0.00  0.00    +0.227 C 
ATOM     10  C   UNL     1      27.300 -22.261 -15.634  0.00  0.00    +0.095 C 
ATOM     11  H   UNL     1      29.105 -22.962 -14.140  0.00  0.00    +0.155 HD
ENDBRANCH   4   8
BRANCH   1  14
ATOM     12  O   UNL     1      35.712 -23.820 -16.084  0.00  0.00    -0.270 OA
ATOM     13  N   UNL     1      35.464 -25.039 -14.128  0.00  0.00    -0.304 N 
ATOM     14  C   UNL     1      35.014 -24.251 -15.169  0.00  0.00    +0.246 C 
ATOM     15  H   UNL     1      34.823 -25.335 -13.442  0.00  0.00    +0.150 HD
BRANCH  13  16
ATOM     16  C   UNL     1      36.853 -25.447 -14.011  0.00  0.00    +0.057 C 
ATOM     17  C   UNL     1      37.161 -26.509 -15.072  0.00  0.00    +0.020 C 
ATOM     18  C   UNL     1      37.752 -24.224 -14.225  0.00  0.00    +0.020 C 
ATOM     19  C   UNL     1      37.094 -26.030 -12.614  0.00  0.00    +0.020 C 
ENDBRANCH  13  16
ENDBRANCH   1  14
TORSDOF 3
ENDMDL
MODEL 7
REMARK VINA RESULT:      -7.8      0.963      1.947
REMARK  Name = 151118
REMARK  3 active torsions:
REMARK  status: ('A' for Active; 'I' for Inactive)
REMARK    1  A    between atoms: C_1  and  C_14
REMARK    2  A    between atoms: C_4  and  N_8
REMARK    3  A    between atoms: N_13  and  C_16
REMARK                            x       y       z     vdW  Elec       q    Type
REMARK                         _______ _______ _______ _____ _____    ______ ____
ROOT
ATOM      1  C   UNL     1      35.178 -22.191 -17.988  0.00  0.00    +0.053 C 
ATOM      2  C   UNL     1      33.999 -21.969 -18.669  0.00  0.00    +0.006 C 
ATOM      3  C   UNL     1      36.384 -21.678 -18.418  0.00  0.00    +0.006 C 
ATOM      4  C   UNL     1      35.234 -20.670 -20.289  0.00  0.00    +0.050 C 
ATOM      5  C   UNL     1      34.027 -21.199 -19.832  0.00  0.00    +0.015 C 
ATOM      6  C   UNL     1      36.413 -20.910 -19.581  0.00  0.00    +0.015 C 
ENDROOT
BRANCH   4   8
ATOM      7  O   UNL     1      35.443 -17.688 -20.655  0.00  0.00    -0.275 OA
ATOM      8  N   UNL     1      35.264 -19.900 -21.452  0.00  0.00    -0.284 N 
ATOM      9  C   UNL     1      35.362 -18.507 -21.565  0.00  0.00    +0.227 C 
ATOM     10  C   UNL     1      35.362 -18.061 -23.005  0.00  0.00    +0.095 C 
ATOM     11  H   UNL     1      35.210 -20.398 -22.299  0.00  0.00    +0.155 HD
ENDBRANCH   4   8
BRANCH   1  14
ATOM     12  O   UNL     1      34.073 -23.448 -16.346  0.00  0.00    -0.270 OA
ATOM     13  N   UNL     1      36.373 -23.237 -16.153  0.00  0.00    -0.304 N 
ATOM     14  C   UNL     1      35.148 -23.011 -16.750  0.00  0.00    +0.246 C 
ATOM     15  H   UNL     1      37.180 -22.841 -16.555  0.00  0.00    +0.150 HD
BRANCH  13  16
ATOM     16  C   UNL     1      36.512 -24.040 -14.951  0.00  0.00    +0.057 C 
ATOM     17  C   UNL     1      35.742 -25.354 -15.127  0.00  0.00    +0.020 C 
ATOM     18  C   UNL     1      37.997 -24.337 -14.717  0.00  0.00    +0.020 C 
ATOM     19  C   UNL     1      35.942 -23.267 -13.756  0.00  0.00    +0.020 C 
ENDBRANCH  13  16
ENDBRANCH   1  14
TORSDOF 3
ENDMDL
MODEL 8
REMARK VINA RESULT:      -7.7      2.234      3.100
REMARK  Name = 151118
REMARK  3 active torsions:
REMARK  status: ('A' for Active; 'I' for Inactive)
REMARK    1  A    between atoms: C_1  and  C_14
REMARK    2  A    between atoms: C_4  and  N_8
REMARK    3  A    between atoms: N_13  and  C_16
REMARK                            x       y       z     vdW  Elec       q    Type
REMARK                         _______ _______ _______ _____ _____    ______ ____
ROOT
ATOM      1  C   UNL     1      33.292 -22.045 -18.481  0.00  0.00    +0.053 C 
ATOM      2  C   UNL     1      32.519 -21.195 -19.247  0.00  0.00    +0.006 C 
ATOM      3  C   UNL     1      34.644 -22.206 -18.699  0.00  0.00    +0.006 C 
ATOM      4  C   UNL     1      34.493 -20.623 -20.518  0.00  0.00    +0.050 C 
ATOM      5  C   UNL     1      33.127 -20.476 -20.276  0.00  0.00    +0.015 C 
ATOM      6  C   UNL     1      35.252 -21.488 -19.729  0.00  0.00    +0.015 C 
ENDROOT
BRANCH   4   8
ATOM      7  O   UNL     1      35.442 -17.767 -20.611  0.00  0.00    -0.275 OA
ATOM      8  N   UNL     1      35.102 -19.904 -21.547  0.00  0.00    -0.284 N 
ATOM      9  C   UNL     1      35.525 -18.568 -21.537  0.00  0.00    +0.227 C 
ATOM     10  C   UNL     1      36.138 -18.166 -22.854  0.00  0.00    +0.095 C 
ATOM     11  H   UNL     1      35.253 -20.397 -22.385  0.00  0.00    +0.155 HD
ENDBRANCH   4   8
BRANCH   1  14
ATOM     12  O   UNL     1      33.296 -23.660 -16.781  0.00  0.00    -0.270 OA
ATOM     13  N   UNL     1      31.331 -22.477 -17.119  0.00  0.00    -0.304 N 
ATOM     14  C   UNL     1      32.645 -22.811 -17.386  0.00  0.00    +0.246 C 
ATOM     15  H   UNL     1      30.896 -21.781 -17.663  0.00  0.00    +0.150 HD
BRANCH  13  16
ATOM     16  C   UNL     1      30.569 -23.118 -16.061  0.00  0.00    +0.057 C 
ATOM     17  C   UNL     1      30.641 -24.639 -16.236  0.00  0.00    +0.020 C 
ATOM     18  C   UNL     1      31.165 -22.723 -14.706  0.00  0.00    +0.020 C 
ATOM     19  C   UNL     1      29.109 -22.660 -16.140  0.00  0.00    +0.020 C 
ENDBRANCH  13  16
ENDBRANCH   1  14
TORSDOF 3
ENDMDL
MODEL 9
REMARK VINA RESULT:      -7.6      7.072     12.207
REMARK  Name = 151118
REMARK  3 active torsions:
REMARK  status: ('A' for Active; 'I' for Inactive)
REMARK    1  A    between atoms: C_1  and  C_14
REMARK    2  A    between atoms: C_4  and  N_8
REMARK    3  A    between atoms: N_13  and  C_16
REMARK                            x       y       z     vdW  Elec       q    Type
REMARK                         _______ _______ _______ _____ _____    ______ ____
ROOT
ATOM      1  C   UNL     1      32.511 -11.839 -22.608  0.00  0.00    +0.053 C 
ATOM      2  C   UNL     1      32.000 -12.658 -21.622  0.00  0.00    +0.006 C 
ATOM      3  C   UNL     1      33.423 -12.288 -23.539  0.00  0.00    +0.006 C 
ATOM      4  C   UNL     1      33.346 -14.465 -22.495  0.00  0.00    +0.050 C 
ATOM      5  C   UNL     1      32.423 -13.987 -21.565  0.00  0.00    +0.015 C 
ATOM      6  C   UNL     1      33.846 -13.615 -23.482  0.00  0.00    +0.015 C 
ENDROOT
BRANCH   4   8
ATOM      7  O   UNL     1      35.010 -15.902 -20.437  0.00  0.00    -0.275 OA
ATOM      8  N   UNL     1      33.769 -15.794 -22.439  0.00  0.00    -0.284 N 
ATOM      9  C   UNL     1      34.548 -16.413 -21.453  0.00  0.00    +0.227 C 
ATOM     10  C   UNL     1      34.788 -17.869 -21.761  0.00  0.00    +0.095 C 
ATOM     11  H   UNL     1      33.485 -16.368 -23.186  0.00  0.00    +0.155 HD
ENDBRANCH   4   8
BRANCH   1  14
ATOM     12  O   UNL     1      30.878 -10.161 -22.467  0.00  0.00    -0.270 OA
ATOM     13  N   UNL     1      33.049  -9.494 -22.932  0.00  0.00    -0.304 N 
ATOM     14  C   UNL     1      32.061 -10.424 -22.668  0.00  0.00    +0.246 C 
ATOM     15  H   UNL     1      33.970  -9.807 -23.080  0.00  0.00    +0.150 HD
BRANCH  13  16
ATOM     16  C   UNL     1      32.773  -8.070 -22.998  0.00  0.00    +0.057 C 
ATOM     17  C   UNL     1      31.581  -7.827 -23.930  0.00  0.00    +0.020 C 
ATOM     18  C   UNL     1      32.445  -7.559 -21.591  0.00  0.00    +0.020 C 
ATOM     19  C   UNL     1      34.007  -7.340 -23.540  0.00  0.00    +0.020 C 
ENDBRANCH  13  16
ENDBRANCH   1  14
TORSDOF 3
ENDMDL
