MODEL 1
REMARK VINA RESULT:      -9.6      0.000      0.000
REMARK  Name = 12229396
REMARK  3 active torsions:
REMARK  status: ('A' for Active; 'I' for Inactive)
REMARK    1  A    between atoms: C_1  and  C_13
REMARK    2  A    between atoms: C_2  and  C_7
REMARK    3  A    between atoms: C_13  and  N_14
REMARK                            x       y       z     vdW  Elec       q    Type
REMARK                         _______ _______ _______ _____ _____    ______ ____
ROOT
ATOM      1  C   UNL     1      34.583 -16.140 -22.620  0.00  0.00    -0.002 C 
ATOM      2  C   UNL     1      34.554 -18.589 -21.283  0.00  0.00    -0.000 C 
ATOM      3  C   UNL     1      35.490 -17.140 -22.974  0.00  0.00    -0.003 C 
ATOM      4  C   UNL     1      33.663 -16.366 -21.597  0.00  0.00    -0.003 C 
ATOM      5  C   UNL     1      35.475 -18.365 -22.307  0.00  0.00    -0.000 C 
ATOM      6  C   UNL     1      33.647 -17.590 -20.928  0.00  0.00    -0.000 C 
ENDROOT
BRANCH   2   7
ATOM      7  C   UNL     1      34.538 -19.859 -20.591  0.00  0.00    -0.000 C 
ATOM      8  C   UNL     1      35.736 -20.521 -20.318  0.00  0.00    -0.000 C 
ATOM      9  C   UNL     1      33.325 -20.422 -20.193  0.00  0.00    -0.000 C 
ATOM     10  C   UNL     1      35.720 -21.746 -19.650  0.00  0.00    +0.000 C 
ATOM     11  C   UNL     1      33.309 -21.646 -19.525  0.00  0.00    +0.000 C 
ATOM     12  C   UNL     1      34.507 -22.308 -19.253  0.00  0.00    +0.000 C 
ENDBRANCH   2   7
BRANCH   1  13
ATOM     13  C   UNL     1      34.599 -14.832 -23.335  0.00  0.00    +0.124 C 
BRANCH  13  14
ATOM     14  N   UNL     1      33.886 -14.899 -24.614  0.00  0.00    -0.264 N 
ATOM     15  N   UNL     1      33.141 -15.716 -26.514  0.00  0.00    -0.225 NA
ATOM     16  C   UNL     1      33.141 -13.905 -25.150  0.00  0.00    +0.088 C 
ATOM     17  C   UNL     1      33.868 -15.965 -25.447  0.00  0.00    +0.168 C 
ATOM     18  C   UNL     1      32.686 -14.433 -26.335  0.00  0.00    +0.117 C 
ENDBRANCH  13  14
ENDBRANCH   1  13
TORSDOF 3
ENDMDL
MODEL 2
REMARK VINA RESULT:      -9.5      1.391      1.880
REMARK  Name = 12229396
REMARK  3 active torsions:
REMARK  status: ('A' for Active; 'I' for Inactive)
REMARK    1  A    between atoms: C_1  and  C_13
REMARK    2  A    between atoms: C_2  and  C_7
REMARK    3  A    between atoms: C_13  and  N_14
REMARK                            x       y       z     vdW  Elec       q    Type
REMARK                         _______ _______ _______ _____ _____    ______ ____
ROOT
ATOM      1  C   UNL     1      34.764 -16.616 -23.168  0.00  0.00    -0.002 C 
ATOM      2  C   UNL     1      34.737 -18.852 -21.500  0.00  0.00    -0.000 C 
ATOM      3  C   UNL     1      34.584 -17.889 -23.710  0.00  0.00    -0.003 C 
ATOM      4  C   UNL     1      34.932 -16.462 -21.792  0.00  0.00    -0.003 C 
ATOM      5  C   UNL     1      34.569 -19.007 -22.876  0.00  0.00    -0.000 C 
ATOM      6  C   UNL     1      34.917 -17.580 -20.958  0.00  0.00    -0.000 C 
ENDROOT
BRANCH   2   7
ATOM      7  C   UNL     1      34.722 -20.012 -20.635  0.00  0.00    -0.000 C 
ATOM      8  C   UNL     1      35.922 -20.583 -20.213  0.00  0.00    -0.000 C 
ATOM      9  C   UNL     1      33.506 -20.559 -20.222  0.00  0.00    -0.000 C 
ATOM     10  C   UNL     1      35.908 -21.702 -19.379  0.00  0.00    +0.000 C 
ATOM     11  C   UNL     1      33.492 -21.677 -19.388  0.00  0.00    +0.000 C 
ATOM     12  C   UNL     1      34.692 -22.248 -18.966  0.00  0.00    +0.000 C 
ENDBRANCH   2   7
BRANCH   1  13
ATOM     13  C   UNL     1      34.779 -15.421 -24.059  0.00  0.00    +0.124 C 
BRANCH  13  14
ATOM     14  N   UNL     1      33.862 -14.378 -23.590  0.00  0.00    -0.264 N 
ATOM     15  N   UNL     1      32.962 -12.387 -23.346  0.00  0.00    -0.225 NA
ATOM     16  C   UNL     1      32.820 -14.569 -22.749  0.00  0.00    +0.088 C 
ATOM     17  C   UNL     1      33.923 -13.069 -23.929  0.00  0.00    +0.168 C 
ATOM     18  C   UNL     1      32.272 -13.316 -22.608  0.00  0.00    +0.117 C 
ENDBRANCH  13  14
ENDBRANCH   1  13
TORSDOF 3
ENDMDL
MODEL 3
REMARK VINA RESULT:      -9.4      2.745      7.043
REMARK  Name = 12229396
REMARK  3 active torsions:
REMARK  status: ('A' for Active; 'I' for Inactive)
REMARK    1  A    between atoms: C_1  and  C_13
REMARK    2  A    between atoms: C_2  and  C_7
REMARK    3  A    between atoms: C_13  and  N_14
REMARK                            x       y       z     vdW  Elec       q    Type
REMARK                         _______ _______ _______ _____ _____    ______ ____
ROOT
ATOM      1  C   UNL     1      35.498 -18.759 -21.546  0.00  0.00    -0.002 C 
ATOM      2  C   UNL     1      34.579 -16.710 -23.202  0.00  0.00    -0.000 C 
ATOM      3  C   UNL     1      35.259 -19.008 -22.898  0.00  0.00    -0.003 C 
ATOM      4  C   UNL     1      35.276 -17.485 -21.023  0.00  0.00    -0.003 C 
ATOM      5  C   UNL     1      34.800 -17.983 -23.727  0.00  0.00    -0.000 C 
ATOM      6  C   UNL     1      34.817 -16.460 -21.851  0.00  0.00    -0.000 C 
ENDROOT
BRANCH   2   7
ATOM      7  C   UNL     1      34.103 -15.647 -24.061  0.00  0.00    -0.000 C 
ATOM      8  C   UNL     1      33.732 -15.925 -25.377  0.00  0.00    -0.000 C 
ATOM      9  C   UNL     1      34.014 -14.343 -23.573  0.00  0.00    -0.000 C 
ATOM     10  C   UNL     1      33.274 -14.900 -26.204  0.00  0.00    +0.000 C 
ATOM     11  C   UNL     1      33.556 -13.318 -24.400  0.00  0.00    +0.000 C 
ATOM     12  C   UNL     1      33.185 -13.597 -25.716  0.00  0.00    +0.000 C 
ENDBRANCH   2   7
BRANCH   1  13
ATOM     13  C   UNL     1      35.988 -19.854 -20.661  0.00  0.00    +0.124 C 
BRANCH  13  14
ATOM     14  N   UNL     1      34.886 -20.647 -20.110  0.00  0.00    -0.264 N 
ATOM     15  N   UNL     1      32.829 -21.255 -19.628  0.00  0.00    -0.225 NA
ATOM     16  C   UNL     1      35.020 -21.791 -19.401  0.00  0.00    +0.088 C 
ATOM     17  C   UNL     1      33.571 -20.351 -20.230  0.00  0.00    +0.168 C 
ATOM     18  C   UNL     1      33.727 -22.154 -19.108  0.00  0.00    +0.117 C 
ENDBRANCH  13  14
ENDBRANCH   1  13
TORSDOF 3
ENDMDL
MODEL 4
REMARK VINA RESULT:      -9.3      4.161      8.092
REMARK  Name = 12229396
REMARK  3 active torsions:
REMARK  status: ('A' for Active; 'I' for Inactive)
REMARK    1  A    between atoms: C_1  and  C_13
REMARK    2  A    between atoms: C_2  and  C_7
REMARK    3  A    between atoms: C_13  and  N_14
REMARK                            x       y       z     vdW  Elec       q    Type
REMARK                         _______ _______ _______ _____ _____    ______ ____
ROOT
ATOM      1  C   UNL     1      34.065 -21.905 -19.223  0.00  0.00    -0.002 C 
ATOM      2  C   UNL     1      34.452 -19.790 -21.000  0.00  0.00    -0.000 C 
ATOM      3  C   UNL     1      32.975 -21.150 -19.657  0.00  0.00    -0.003 C 
ATOM      4  C   UNL     1      35.348 -21.601 -19.677  0.00  0.00    -0.003 C 
ATOM      5  C   UNL     1      33.168 -20.093 -20.546  0.00  0.00    -0.000 C 
ATOM      6  C   UNL     1      35.542 -20.544 -20.566  0.00  0.00    -0.000 C 
ENDROOT
BRANCH   2   7
ATOM      7  C   UNL     1      34.653 -18.693 -21.922  0.00  0.00    -0.000 C 
ATOM      8  C   UNL     1      34.750 -17.386 -21.443  0.00  0.00    -0.000 C 
ATOM      9  C   UNL     1      34.751 -18.942 -23.292  0.00  0.00    -0.000 C 
ATOM     10  C   UNL     1      34.944 -16.329 -22.332  0.00  0.00    +0.000 C 
ATOM     11  C   UNL     1      34.944 -17.885 -24.181  0.00  0.00    +0.000 C 
ATOM     12  C   UNL     1      35.041 -16.579 -23.701  0.00  0.00    +0.000 C 
ENDBRANCH   2   7
BRANCH   1  13
ATOM     13  C   UNL     1      33.858 -23.036 -18.273  0.00  0.00    +0.124 C 
BRANCH  13  14
ATOM     14  N   UNL     1      34.647 -22.873 -17.049  0.00  0.00    -0.264 N 
ATOM     15  N   UNL     1      36.349 -22.380 -15.748  0.00  0.00    -0.225 NA
ATOM     16  C   UNL     1      34.222 -23.161 -15.797  0.00  0.00    +0.088 C 
ATOM     17  C   UNL     1      35.917 -22.411 -16.990  0.00  0.00    +0.168 C 
ATOM     18  C   UNL     1      35.298 -22.848 -15.000  0.00  0.00    +0.117 C 
ENDBRANCH  13  14
ENDBRANCH   1  13
TORSDOF 3
ENDMDL
MODEL 5
REMARK VINA RESULT:      -9.3      4.202      8.071
REMARK  Name = 12229396
REMARK  3 active torsions:
REMARK  status: ('A' for Active; 'I' for Inactive)
REMARK    1  A    between atoms: C_1  and  C_13
REMARK    2  A    between atoms: C_2  and  C_7
REMARK    3  A    between atoms: C_13  and  N_14
REMARK                            x       y       z     vdW  Elec       q    Type
REMARK                         _______ _______ _______ _____ _____    ______ ____
ROOT
ATOM      1  C   UNL     1      34.080 -21.952 -19.125  0.00  0.00    -0.002 C 
ATOM      2  C   UNL     1      34.453 -19.817 -20.881  0.00  0.00    -0.000 C 
ATOM      3  C   UNL     1      35.359 -21.645 -19.589  0.00  0.00    -0.003 C 
ATOM      4  C   UNL     1      32.988 -21.191 -19.540  0.00  0.00    -0.003 C 
ATOM      5  C   UNL     1      35.547 -20.578 -20.467  0.00  0.00    -0.000 C 
ATOM      6  C   UNL     1      33.174 -20.123 -20.418  0.00  0.00    -0.000 C 
ENDROOT
BRANCH   2   7
ATOM      7  C   UNL     1      34.646 -18.710 -21.792  0.00  0.00    -0.000 C 
ATOM      8  C   UNL     1      34.753 -18.943 -23.164  0.00  0.00    -0.000 C 
ATOM      9  C   UNL     1      34.726 -17.407 -21.299  0.00  0.00    -0.000 C 
ATOM     10  C   UNL     1      34.940 -17.875 -24.041  0.00  0.00    +0.000 C 
ATOM     11  C   UNL     1      34.912 -16.339 -22.177  0.00  0.00    +0.000 C 
ATOM     12  C   UNL     1      35.019 -16.573 -23.548  0.00  0.00    +0.000 C 
ENDBRANCH   2   7
BRANCH   1  13
ATOM     13  C   UNL     1      33.881 -23.093 -18.185  0.00  0.00    +0.124 C 
BRANCH  13  14
ATOM     14  N   UNL     1      34.652 -22.925 -16.950  0.00  0.00    -0.264 N 
ATOM     15  N   UNL     1      36.333 -22.420 -15.627  0.00  0.00    -0.225 NA
ATOM     16  C   UNL     1      34.215 -23.222 -15.705  0.00  0.00    +0.088 C 
ATOM     17  C   UNL     1      35.917 -22.450 -16.874  0.00  0.00    +0.168 C 
ATOM     18  C   UNL     1      35.277 -22.901 -14.894  0.00  0.00    +0.117 C 
ENDBRANCH  13  14
ENDBRANCH   1  13
TORSDOF 3
ENDMDL
MODEL 6
REMARK VINA RESULT:      -9.2      6.198     10.190
REMARK  Name = 12229396
REMARK  3 active torsions:
REMARK  status: ('A' for Active; 'I' for Inactive)
REMARK    1  A    between atoms: C_1  and  C_13
REMARK    2  A    between atoms: C_2  and  C_7
REMARK    3  A    between atoms: C_13  and  N_14
REMARK                            x       y       z     vdW  Elec       q    Type
REMARK                         _______ _______ _______ _____ _____    ______ ____
ROOT
ATOM      1  C   UNL     1      35.216 -23.684 -15.723  0.00  0.00    -0.002 C 
ATOM      2  C   UNL     1      34.845 -22.142 -18.018  0.00  0.00    -0.000 C 
ATOM      3  C   UNL     1      36.247 -22.868 -16.190  0.00  0.00    -0.003 C 
ATOM      4  C   UNL     1      34.001 -23.730 -16.405  0.00  0.00    -0.003 C 
ATOM      5  C   UNL     1      36.062 -22.096 -17.337  0.00  0.00    -0.000 C 
ATOM      6  C   UNL     1      33.815 -22.958 -17.553  0.00  0.00    -0.000 C 
ENDROOT
BRANCH   2   7
ATOM      7  C   UNL     1      34.652 -21.343 -19.208  0.00  0.00    -0.000 C 
ATOM      8  C   UNL     1      35.756 -20.875 -19.923  0.00  0.00    -0.000 C 
ATOM      9  C   UNL     1      33.362 -21.038 -19.643  0.00  0.00    -0.000 C 
ATOM     10  C   UNL     1      35.570 -20.104 -21.070  0.00  0.00    +0.000 C 
ATOM     11  C   UNL     1      33.175 -20.267 -20.790  0.00  0.00    +0.000 C 
ATOM     12  C   UNL     1      34.279 -19.800 -21.504  0.00  0.00    +0.000 C 
ENDBRANCH   2   7
BRANCH   1  13
ATOM     13  C   UNL     1      35.415 -24.508 -14.496  0.00  0.00    +0.124 C 
BRANCH  13  14
ATOM     14  N   UNL     1      36.655 -25.287 -14.556  0.00  0.00    -0.264 N 
ATOM     15  N   UNL     1      38.025 -26.942 -15.021  0.00  0.00    -0.225 NA
ATOM     16  C   UNL     1      37.847 -24.905 -14.044  0.00  0.00    +0.088 C 
ATOM     17  C   UNL     1      36.791 -26.505 -15.131  0.00  0.00    +0.168 C 
ATOM     18  C   UNL     1      38.689 -25.950 -14.343  0.00  0.00    +0.117 C 
ENDBRANCH  13  14
ENDBRANCH   1  13
TORSDOF 3
ENDMDL
MODEL 7
REMARK VINA RESULT:      -9.0      4.283      8.138
REMARK  Name = 12229396
REMARK  3 active torsions:
REMARK  status: ('A' for Active; 'I' for Inactive)
REMARK    1  A    between atoms: C_1  and  C_13
REMARK    2  A    between atoms: C_2  and  C_7
REMARK    3  A    between atoms: C_13  and  N_14
REMARK                            x       y       z     vdW  Elec       q    Type
REMARK                         _______ _______ _______ _____ _____    ______ ____
ROOT
ATOM      1  C   UNL     1      34.098 -22.334 -19.101  0.00  0.00    -0.002 C 
ATOM      2  C   UNL     1      34.490 -20.052 -20.656  0.00  0.00    -0.000 C 
ATOM      3  C   UNL     1      33.003 -21.577 -19.516  0.00  0.00    -0.003 C 
ATOM      4  C   UNL     1      35.388 -21.949 -19.462  0.00  0.00    -0.003 C 
ATOM      5  C   UNL     1      33.198 -20.436 -20.295  0.00  0.00    -0.000 C 
ATOM      6  C   UNL     1      35.585 -20.809 -20.241  0.00  0.00    -0.000 C 
ENDROOT
BRANCH   2   7
ATOM      7  C   UNL     1      34.693 -18.869 -21.463  0.00  0.00    -0.000 C 
ATOM      8  C   UNL     1      34.936 -18.989 -22.832  0.00  0.00    -0.000 C 
ATOM      9  C   UNL     1      34.645 -17.605 -20.873  0.00  0.00    -0.000 C 
ATOM     10  C   UNL     1      35.133 -17.848 -23.609  0.00  0.00    +0.000 C 
ATOM     11  C   UNL     1      34.842 -16.464 -21.651  0.00  0.00    +0.000 C 
ATOM     12  C   UNL     1      35.085 -16.585 -23.019  0.00  0.00    +0.000 C 
ENDBRANCH   2   7
BRANCH   1  13
ATOM     13  C   UNL     1      33.888 -23.554 -18.269  0.00  0.00    +0.124 C 
BRANCH  13  14
ATOM     14  N   UNL     1      33.177 -23.251 -17.023  0.00  0.00    -0.264 N 
ATOM     15  N   UNL     1      31.512 -22.792 -15.664  0.00  0.00    -0.225 NA
ATOM     16  C   UNL     1      33.747 -23.137 -15.802  0.00  0.00    +0.088 C 
ATOM     17  C   UNL     1      31.845 -23.040 -16.912  0.00  0.00    +0.168 C 
ATOM     18  C   UNL     1      32.693 -22.850 -14.968  0.00  0.00    +0.117 C 
ENDBRANCH  13  14
ENDBRANCH   1  13
TORSDOF 3
ENDMDL
MODEL 8
REMARK VINA RESULT:      -8.9      1.992      3.909
REMARK  Name = 12229396
REMARK  3 active torsions:
REMARK  status: ('A' for Active; 'I' for Inactive)
REMARK    1  A    between atoms: C_1  and  C_13
REMARK    2  A    between atoms: C_2  and  C_7
REMARK    3  A    between atoms: C_13  and  N_14
REMARK                            x       y       z     vdW  Elec       q    Type
REMARK                         _______ _______ _______ _____ _____    ______ ____
ROOT
ATOM      1  C   UNL     1      34.658 -19.720 -21.629  0.00  0.00    -0.002 C 
ATOM      2  C   UNL     1      34.827 -21.272 -19.318  0.00  0.00    -0.000 C 
ATOM      3  C   UNL     1      35.906 -20.050 -21.100  0.00  0.00    -0.003 C 
ATOM      4  C   UNL     1      33.495 -20.166 -21.001  0.00  0.00    -0.003 C 
ATOM      5  C   UNL     1      35.991 -20.827 -19.945  0.00  0.00    -0.000 C 
ATOM      6  C   UNL     1      33.579 -20.943 -19.846  0.00  0.00    -0.000 C 
ENDROOT
BRANCH   2   7
ATOM      7  C   UNL     1      34.915 -22.078 -18.119  0.00  0.00    -0.000 C 
ATOM      8  C   UNL     1      33.820 -22.837 -17.706  0.00  0.00    -0.000 C 
ATOM      9  C   UNL     1      36.096 -22.097 -17.376  0.00  0.00    -0.000 C 
ATOM     10  C   UNL     1      33.905 -23.613 -16.550  0.00  0.00    +0.000 C 
ATOM     11  C   UNL     1      36.181 -22.873 -16.220  0.00  0.00    +0.000 C 
ATOM     12  C   UNL     1      35.086 -23.632 -15.808  0.00  0.00    +0.000 C 
ENDBRANCH   2   7
BRANCH   1  13
ATOM     13  C   UNL     1      34.567 -18.890 -22.865  0.00  0.00    +0.124 C 
BRANCH  13  14
ATOM     14  N   UNL     1      34.639 -17.456 -22.567  0.00  0.00    -0.264 N 
ATOM     15  N   UNL     1      34.944 -15.302 -22.882  0.00  0.00    -0.225 NA
ATOM     16  C   UNL     1      34.386 -16.891 -21.365  0.00  0.00    +0.088 C 
ATOM     17  C   UNL     1      34.969 -16.487 -23.452  0.00  0.00    +0.168 C 
ATOM     18  C   UNL     1      34.583 -15.548 -21.580  0.00  0.00    +0.117 C 
ENDBRANCH  13  14
ENDBRANCH   1  13
TORSDOF 3
ENDMDL
MODEL 9
REMARK VINA RESULT:      -8.9      3.503      7.075
REMARK  Name = 12229396
REMARK  3 active torsions:
REMARK  status: ('A' for Active; 'I' for Inactive)
REMARK    1  A    between atoms: C_1  and  C_13
REMARK    2  A    between atoms: C_2  and  C_7
REMARK    3  A    between atoms: C_13  and  N_14
REMARK                            x       y       z     vdW  Elec       q    Type
REMARK                         _______ _______ _______ _____ _____    ______ ____
ROOT
ATOM      1  C   UNL     1      34.819 -16.533 -22.240  0.00  0.00    -0.002 C 
ATOM      2  C   UNL     1      33.288 -14.274 -21.658  0.00  0.00    -0.000 C 
ATOM      3  C   UNL     1      34.153 -15.858 -23.264  0.00  0.00    -0.003 C 
ATOM      4  C   UNL     1      34.718 -16.078 -20.926  0.00  0.00    -0.003 C 
ATOM      5  C   UNL     1      33.388 -14.728 -22.973  0.00  0.00    -0.000 C 
ATOM      6  C   UNL     1      33.953 -14.948 -20.634  0.00  0.00    -0.000 C 
ENDROOT
BRANCH   2   7
ATOM      7  C   UNL     1      32.495 -13.103 -21.356  0.00  0.00    -0.000 C 
ATOM      8  C   UNL     1      31.977 -12.324 -22.391  0.00  0.00    -0.000 C 
ATOM      9  C   UNL     1      32.246 -12.752 -20.028  0.00  0.00    -0.000 C 
ATOM     10  C   UNL     1      31.212 -11.194 -22.099  0.00  0.00    +0.000 C 
ATOM     11  C   UNL     1      31.481 -11.623 -19.737  0.00  0.00    +0.000 C 
ATOM     12  C   UNL     1      30.964 -10.844 -20.772  0.00  0.00    +0.000 C 
ENDBRANCH   2   7
BRANCH   1  13
ATOM     13  C   UNL     1      35.637 -17.740 -22.551  0.00  0.00    +0.124 C 
BRANCH  13  14
ATOM     14  N   UNL     1      35.394 -18.826 -21.598  0.00  0.00    -0.264 N 
ATOM     15  N   UNL     1      35.789 -20.311 -20.026  0.00  0.00    -0.225 NA
ATOM     16  C   UNL     1      34.215 -19.465 -21.420  0.00  0.00    +0.088 C 
ATOM     17  C   UNL     1      36.313 -19.351 -20.755  0.00  0.00    +0.168 C 
ATOM     18  C   UNL     1      34.481 -20.388 -20.436  0.00  0.00    +0.117 C 
ENDBRANCH  13  14
ENDBRANCH   1  13
TORSDOF 3
ENDMDL
