MODEL 1
REMARK VINA RESULT:      -2.3      0.000      0.000
REMARK  Name = 11646
REMARK  0 active torsions:
REMARK  status: ('A' for Active; 'I' for Inactive)
REMARK                            x       y       z     vdW  Elec       q    Type
REMARK                         _______ _______ _______ _____ _____    ______ ____
ROOT
ATOM      1  N   UNL     1      26.733 -21.720 -17.207  0.00  0.00    -0.370 NA
ATOM      2  C   UNL     1      27.602 -22.407 -16.314  0.00  0.00    +0.129 C 
ATOM      3  C   UNL     1      26.016 -21.154 -17.943  0.00  0.00    +0.242 C 
ENDROOT
TORSDOF 0
ENDMDL
MODEL 2
REMARK VINA RESULT:      -2.3      0.311      2.125
REMARK  Name = 11646
REMARK  0 active torsions:
REMARK  status: ('A' for Active; 'I' for Inactive)
REMARK                            x       y       z     vdW  Elec       q    Type
REMARK                         _______ _______ _______ _____ _____    ______ ____
ROOT
ATOM      1  N   UNL     1      26.987 -21.861 -17.258  0.00  0.00    -0.370 NA
ATOM      2  C   UNL     1      25.978 -21.120 -17.935  0.00  0.00    +0.129 C 
ATOM      3  C   UNL     1      27.819 -22.472 -16.700  0.00  0.00    +0.242 C 
ENDROOT
TORSDOF 0
ENDMDL
MODEL 3
REMARK VINA RESULT:      -2.1     15.745     15.900
REMARK  Name = 11646
REMARK  0 active torsions:
REMARK  status: ('A' for Active; 'I' for Inactive)
REMARK                            x       y       z     vdW  Elec       q    Type
REMARK                         _______ _______ _______ _____ _____    ______ ____
ROOT
ATOM      1  N   UNL     1      41.144 -14.932 -16.929  0.00  0.00    -0.370 NA
ATOM      2  C   UNL     1      41.069 -15.628 -15.690  0.00  0.00    +0.129 C 
ATOM      3  C   UNL     1      41.205 -14.358 -17.951  0.00  0.00    +0.242 C 
ENDROOT
TORSDOF 0
ENDMDL
MODEL 4
REMARK VINA RESULT:      -2.1     15.712     15.980
REMARK  Name = 11646
REMARK  0 active torsions:
REMARK  status: ('A' for Active; 'I' for Inactive)
REMARK                            x       y       z     vdW  Elec       q    Type
REMARK                         _______ _______ _______ _____ _____    ______ ____
ROOT
ATOM      1  N   UNL     1      41.112 -15.029 -16.698  0.00  0.00    -0.370 NA
ATOM      2  C   UNL     1      41.206 -14.346 -17.943  0.00  0.00    +0.129 C 
ATOM      3  C   UNL     1      41.033 -15.592 -15.671  0.00  0.00    +0.242 C 
ENDROOT
TORSDOF 0
ENDMDL
MODEL 5
REMARK VINA RESULT:      -2.0     12.487     12.623
REMARK  Name = 11646
REMARK  0 active torsions:
REMARK  status: ('A' for Active; 'I' for Inactive)
REMARK                            x       y       z     vdW  Elec       q    Type
REMARK                         _______ _______ _______ _____ _____    ______ ____
ROOT
ATOM      1  N   UNL     1      33.812 -15.904 -25.877  0.00  0.00    -0.370 NA
ATOM      2  C   UNL     1      34.671 -16.882 -25.303  0.00  0.00    +0.129 C 
ATOM      3  C   UNL     1      33.103 -15.097 -26.351  0.00  0.00    +0.242 C 
ENDROOT
TORSDOF 0
ENDMDL
MODEL 6
REMARK VINA RESULT:      -2.0     12.313     12.625
REMARK  Name = 11646
REMARK  0 active torsions:
REMARK  status: ('A' for Active; 'I' for Inactive)
REMARK                            x       y       z     vdW  Elec       q    Type
REMARK                         _______ _______ _______ _____ _____    ______ ____
ROOT
ATOM      1  N   UNL     1      33.904 -16.177 -25.676  0.00  0.00    -0.370 NA
ATOM      2  C   UNL     1      33.075 -15.158 -26.221  0.00  0.00    +0.129 C 
ATOM      3  C   UNL     1      34.589 -17.019 -25.227  0.00  0.00    +0.242 C 
ENDROOT
TORSDOF 0
ENDMDL
MODEL 7
REMARK VINA RESULT:      -2.0      6.931      6.931
REMARK  Name = 11646
REMARK  0 active torsions:
REMARK  status: ('A' for Active; 'I' for Inactive)
REMARK                            x       y       z     vdW  Elec       q    Type
REMARK                         _______ _______ _______ _____ _____    ______ ____
ROOT
ATOM      1  N   UNL     1      33.096 -20.932 -19.870  0.00  0.00    -0.370 NA
ATOM      2  C   UNL     1      33.448 -22.017 -19.019  0.00  0.00    +0.129 C 
ATOM      3  C   UNL     1      32.807 -20.037 -20.572  0.00  0.00    +0.242 C 
ENDROOT
TORSDOF 0
ENDMDL
MODEL 8
REMARK VINA RESULT:      -2.0     15.726     15.981
REMARK  Name = 11646
REMARK  0 active torsions:
REMARK  status: ('A' for Active; 'I' for Inactive)
REMARK                            x       y       z     vdW  Elec       q    Type
REMARK                         _______ _______ _______ _____ _____    ______ ____
ROOT
ATOM      1  N   UNL     1      40.838 -14.611 -14.744  0.00  0.00    -0.370 NA
ATOM      2  C   UNL     1      41.067 -15.840 -15.424  0.00  0.00    +0.129 C 
ATOM      3  C   UNL     1      40.649 -13.597 -14.182  0.00  0.00    +0.242 C 
ENDROOT
TORSDOF 0
ENDMDL
MODEL 9
REMARK VINA RESULT:      -2.0     12.716     13.393
REMARK  Name = 11646
REMARK  0 active torsions:
REMARK  status: ('A' for Active; 'I' for Inactive)
REMARK                            x       y       z     vdW  Elec       q    Type
REMARK                         _______ _______ _______ _____ _____    ______ ____
ROOT
ATOM      1  N   UNL     1      38.983 -26.330 -14.565  0.00  0.00    -0.370 NA
ATOM      2  C   UNL     1      40.364 -25.987 -14.574  0.00  0.00    +0.129 C 
ATOM      3  C   UNL     1      37.843 -26.614 -14.557  0.00  0.00    +0.242 C 
ENDROOT
TORSDOF 0
ENDMDL
