MODEL 1
REMARK VINA RESULT:      -6.2      0.000      0.000
REMARK  Name = 12057
REMARK  2 active torsions:
REMARK  status: ('A' for Active; 'I' for Inactive)
REMARK    1  A    between atoms: C_1  and  S_7
REMARK    2  A    between atoms: S_7  and  O_9
REMARK                            x       y       z     vdW  Elec       q    Type
REMARK                         _______ _______ _______ _____ _____    ______ ____
ROOT
ATOM      1  C   UNL     1      34.146 -21.360 -19.517  0.00  0.00    +0.100 C 
ATOM      2  C   UNL     1      33.114 -20.614 -20.084  0.00  0.00    +0.018 C 
ATOM      3  C   UNL     1      35.474 -21.066 -19.831  0.00  0.00    +0.018 C 
ATOM      4  C   UNL     1      33.408 -19.573 -20.964  0.00  0.00    +0.001 C 
ATOM      5  C   UNL     1      35.768 -20.025 -20.712  0.00  0.00    +0.001 C 
ATOM      6  C   UNL     1      34.735 -19.278 -21.278  0.00  0.00    +0.000 C 
ENDROOT
BRANCH   1   7
ATOM      7  S   UNL     1      33.768 -22.699 -18.386  0.00  0.00    -0.031 S 
ATOM      8  O   UNL     1      32.306 -22.595 -18.054  0.00  0.00    -0.076 OA
BRANCH   7   9
ATOM      9  O   UNL     1      33.923 -23.831 -19.518  0.00  0.00    -0.274 OA
ATOM     10  H   UNL     1      34.441 -23.480 -20.259  0.00  0.00    +0.242 HD
ENDBRANCH   7   9
ENDBRANCH   1   7
TORSDOF 2
ENDMDL
MODEL 2
REMARK VINA RESULT:      -6.2      0.002      1.611
REMARK  Name = 12057
REMARK  2 active torsions:
REMARK  status: ('A' for Active; 'I' for Inactive)
REMARK    1  A    between atoms: C_1  and  S_7
REMARK    2  A    between atoms: S_7  and  O_9
REMARK                            x       y       z     vdW  Elec       q    Type
REMARK                         _______ _______ _______ _____ _____    ______ ____
ROOT
ATOM      1  C   UNL     1      34.148 -21.361 -19.518  0.00  0.00    +0.100 C 
ATOM      2  C   UNL     1      35.474 -21.067 -19.831  0.00  0.00    +0.018 C 
ATOM      3  C   UNL     1      33.115 -20.613 -20.086  0.00  0.00    +0.018 C 
ATOM      4  C   UNL     1      35.769 -20.026 -20.711  0.00  0.00    +0.001 C 
ATOM      5  C   UNL     1      33.410 -19.572 -20.965  0.00  0.00    +0.001 C 
ATOM      6  C   UNL     1      34.737 -19.278 -21.279  0.00  0.00    +0.000 C 
ENDROOT
BRANCH   1   7
ATOM      7  S   UNL     1      33.768 -22.699 -18.386  0.00  0.00    -0.031 S 
ATOM      8  O   UNL     1      32.306 -22.594 -18.055  0.00  0.00    -0.076 OA
BRANCH   7   9
ATOM      9  O   UNL     1      33.923 -23.832 -19.518  0.00  0.00    -0.274 OA
ATOM     10  H   UNL     1      33.283 -23.669 -20.230  0.00  0.00    +0.242 HD
ENDBRANCH   7   9
ENDBRANCH   1   7
TORSDOF 2
ENDMDL
MODEL 3
REMARK VINA RESULT:      -5.9      3.692      4.146
REMARK  Name = 12057
REMARK  2 active torsions:
REMARK  status: ('A' for Active; 'I' for Inactive)
REMARK    1  A    between atoms: C_1  and  S_7
REMARK    2  A    between atoms: S_7  and  O_9
REMARK                            x       y       z     vdW  Elec       q    Type
REMARK                         _______ _______ _______ _____ _____    ______ ____
ROOT
ATOM      1  C   UNL     1      35.160 -19.826 -20.760  0.00  0.00    +0.100 C 
ATOM      2  C   UNL     1      33.773 -19.932 -20.663  0.00  0.00    +0.018 C 
ATOM      3  C   UNL     1      35.977 -20.761 -20.123  0.00  0.00    +0.018 C 
ATOM      4  C   UNL     1      33.202 -20.972 -19.930  0.00  0.00    +0.001 C 
ATOM      5  C   UNL     1      35.406 -21.800 -19.389  0.00  0.00    +0.001 C 
ATOM      6  C   UNL     1      34.019 -21.906 -19.293  0.00  0.00    +0.000 C 
ENDROOT
BRANCH   1   7
ATOM      7  S   UNL     1      35.894 -18.489 -21.702  0.00  0.00    -0.031 S 
ATOM      8  O   UNL     1      35.115 -18.371 -22.982  0.00  0.00    -0.076 OA
BRANCH   7   9
ATOM      9  O   UNL     1      35.348 -17.353 -20.702  0.00  0.00    -0.274 OA
ATOM     10  H   UNL     1      36.097 -16.907 -20.278  0.00  0.00    +0.242 HD
ENDBRANCH   7   9
ENDBRANCH   1   7
TORSDOF 2
ENDMDL
MODEL 4
REMARK VINA RESULT:      -5.9      3.687      4.438
REMARK  Name = 12057
REMARK  2 active torsions:
REMARK  status: ('A' for Active; 'I' for Inactive)
REMARK    1  A    between atoms: C_1  and  S_7
REMARK    2  A    between atoms: S_7  and  O_9
REMARK                            x       y       z     vdW  Elec       q    Type
REMARK                         _______ _______ _______ _____ _____    ______ ____
ROOT
ATOM      1  C   UNL     1      35.159 -19.836 -20.752  0.00  0.00    +0.100 C 
ATOM      2  C   UNL     1      35.958 -20.782 -20.112  0.00  0.00    +0.018 C 
ATOM      3  C   UNL     1      33.769 -19.927 -20.670  0.00  0.00    +0.018 C 
ATOM      4  C   UNL     1      35.369 -21.818 -19.388  0.00  0.00    +0.001 C 
ATOM      5  C   UNL     1      33.179 -20.964 -19.947  0.00  0.00    +0.001 C 
ATOM      6  C   UNL     1      33.979 -21.910 -19.305  0.00  0.00    +0.000 C 
ENDROOT
BRANCH   1   7
ATOM      7  S   UNL     1      35.917 -18.504 -21.683  0.00  0.00    -0.031 S 
ATOM      8  O   UNL     1      35.159 -18.383 -22.975  0.00  0.00    -0.076 OA
BRANCH   7   9
ATOM      9  O   UNL     1      35.360 -17.364 -20.693  0.00  0.00    -0.274 OA
ATOM     10  H   UNL     1      34.618 -17.716 -20.178  0.00  0.00    +0.242 HD
ENDBRANCH   7   9
ENDBRANCH   1   7
TORSDOF 2
ENDMDL
MODEL 5
REMARK VINA RESULT:      -5.7      7.049      7.811
REMARK  Name = 12057
REMARK  2 active torsions:
REMARK  status: ('A' for Active; 'I' for Inactive)
REMARK    1  A    between atoms: C_1  and  S_7
REMARK    2  A    between atoms: S_7  and  O_9
REMARK                            x       y       z     vdW  Elec       q    Type
REMARK                         _______ _______ _______ _____ _____    ______ ____
ROOT
ATOM      1  C   UNL     1      29.056 -23.391 -15.645  0.00  0.00    +0.100 C 
ATOM      2  C   UNL     1      28.997 -24.779 -15.524  0.00  0.00    +0.018 C 
ATOM      3  C   UNL     1      30.009 -22.667 -14.927  0.00  0.00    +0.018 C 
ATOM      4  C   UNL     1      29.891 -25.444 -14.686  0.00  0.00    +0.001 C 
ATOM      5  C   UNL     1      30.902 -23.333 -14.087  0.00  0.00    +0.001 C 
ATOM      6  C   UNL     1      30.844 -24.721 -13.967  0.00  0.00    +0.000 C 
ENDROOT
BRANCH   1   7
ATOM      7  S   UNL     1      27.907 -22.535 -16.723  0.00  0.00    -0.031 S 
ATOM      8  O   UNL     1      27.520 -23.499 -17.809  0.00  0.00    -0.076 OA
BRANCH   7   9
ATOM      9  O   UNL     1      26.724 -22.544 -15.632  0.00  0.00    -0.274 OA
ATOM     10  H   UNL     1      26.040 -23.178 -15.900  0.00  0.00    +0.242 HD
ENDBRANCH   7   9
ENDBRANCH   1   7
TORSDOF 2
ENDMDL
MODEL 6
REMARK VINA RESULT:      -5.6      4.576      4.865
REMARK  Name = 12057
REMARK  2 active torsions:
REMARK  status: ('A' for Active; 'I' for Inactive)
REMARK    1  A    between atoms: C_1  and  S_7
REMARK    2  A    between atoms: S_7  and  O_9
REMARK                            x       y       z     vdW  Elec       q    Type
REMARK                         _______ _______ _______ _____ _____    ______ ____
ROOT
ATOM      1  C   UNL     1      34.796 -18.158 -21.262  0.00  0.00    +0.100 C 
ATOM      2  C   UNL     1      33.706 -18.977 -20.972  0.00  0.00    +0.018 C 
ATOM      3  C   UNL     1      36.095 -18.626 -21.054  0.00  0.00    +0.018 C 
ATOM      4  C   UNL     1      33.912 -20.263 -20.475  0.00  0.00    +0.001 C 
ATOM      5  C   UNL     1      36.301 -19.912 -20.556  0.00  0.00    +0.001 C 
ATOM      6  C   UNL     1      35.210 -20.732 -20.267  0.00  0.00    +0.000 C 
ENDROOT
BRANCH   1   7
ATOM      7  S   UNL     1      34.532 -16.504 -21.901  0.00  0.00    -0.031 S 
ATOM      8  O   UNL     1      34.949 -15.544 -20.823  0.00  0.00    -0.076 OA
BRANCH   7   9
ATOM      9  O   UNL     1      35.749 -16.607 -22.949  0.00  0.00    -0.274 OA
ATOM     10  H   UNL     1      35.842 -17.525 -23.248  0.00  0.00    +0.242 HD
ENDBRANCH   7   9
ENDBRANCH   1   7
TORSDOF 2
ENDMDL
MODEL 7
REMARK VINA RESULT:      -5.6      6.230      7.189
REMARK  Name = 12057
REMARK  2 active torsions:
REMARK  status: ('A' for Active; 'I' for Inactive)
REMARK    1  A    between atoms: C_1  and  S_7
REMARK    2  A    between atoms: S_7  and  O_9
REMARK                            x       y       z     vdW  Elec       q    Type
REMARK                         _______ _______ _______ _____ _____    ______ ____
ROOT
ATOM      1  C   UNL     1      29.464 -23.589 -15.600  0.00  0.00    +0.100 C 
ATOM      2  C   UNL     1      30.629 -22.893 -15.919  0.00  0.00    +0.018 C 
ATOM      3  C   UNL     1      29.522 -24.691 -14.744  0.00  0.00    +0.018 C 
ATOM      4  C   UNL     1      31.852 -23.296 -15.383  0.00  0.00    +0.001 C 
ATOM      5  C   UNL     1      30.745 -25.094 -14.209  0.00  0.00    +0.001 C 
ATOM      6  C   UNL     1      31.911 -24.397 -14.527  0.00  0.00    +0.000 C 
ENDROOT
BRANCH   1   7
ATOM      7  S   UNL     1      27.892 -23.072 -16.289  0.00  0.00    -0.031 S 
ATOM      8  O   UNL     1      28.131 -21.771 -17.002  0.00  0.00    -0.076 OA
BRANCH   7   9
ATOM      9  O   UNL     1      27.886 -24.234 -17.402  0.00  0.00    -0.274 OA
ATOM     10  H   UNL     1      27.414 -25.009 -17.059  0.00  0.00    +0.242 HD
ENDBRANCH   7   9
ENDBRANCH   1   7
TORSDOF 2
ENDMDL
MODEL 8
REMARK VINA RESULT:      -5.5      2.096      2.691
REMARK  Name = 12057
REMARK  2 active torsions:
REMARK  status: ('A' for Active; 'I' for Inactive)
REMARK    1  A    between atoms: C_1  and  S_7
REMARK    2  A    between atoms: S_7  and  O_9
REMARK                            x       y       z     vdW  Elec       q    Type
REMARK                         _______ _______ _______ _____ _____    ______ ____
ROOT
ATOM      1  C   UNL     1      35.529 -20.810 -19.761  0.00  0.00    +0.100 C 
ATOM      2  C   UNL     1      36.131 -19.899 -20.628  0.00  0.00    +0.018 C 
ATOM      3  C   UNL     1      34.146 -20.996 -19.795  0.00  0.00    +0.018 C 
ATOM      4  C   UNL     1      35.353 -19.174 -21.530  0.00  0.00    +0.001 C 
ATOM      5  C   UNL     1      33.367 -20.270 -20.696  0.00  0.00    +0.001 C 
ATOM      6  C   UNL     1      33.970 -19.359 -21.564  0.00  0.00    +0.000 C 
ENDROOT
BRANCH   1   7
ATOM      7  S   UNL     1      36.530 -21.742 -18.602  0.00  0.00    -0.031 S 
ATOM      8  O   UNL     1      37.032 -20.769 -17.572  0.00  0.00    -0.076 OA
BRANCH   7   9
ATOM      9  O   UNL     1      35.262 -22.501 -17.965  0.00  0.00    -0.274 OA
ATOM     10  H   UNL     1      35.379 -22.578 -17.005  0.00  0.00    +0.242 HD
ENDBRANCH   7   9
ENDBRANCH   1   7
TORSDOF 2
ENDMDL
MODEL 9
REMARK VINA RESULT:      -5.4      3.977      4.812
REMARK  Name = 12057
REMARK  2 active torsions:
REMARK  status: ('A' for Active; 'I' for Inactive)
REMARK    1  A    between atoms: C_1  and  S_7
REMARK    2  A    between atoms: S_7  and  O_9
REMARK                            x       y       z     vdW  Elec       q    Type
REMARK                         _______ _______ _______ _____ _____    ______ ____
ROOT
ATOM      1  C   UNL     1      34.972 -18.423 -22.793  0.00  0.00    +0.100 C 
ATOM      2  C   UNL     1      34.656 -18.941 -24.049  0.00  0.00    +0.018 C 
ATOM      3  C   UNL     1      35.133 -17.046 -22.628  0.00  0.00    +0.018 C 
ATOM      4  C   UNL     1      34.498 -18.085 -25.138  0.00  0.00    +0.001 C 
ATOM      5  C   UNL     1      34.977 -16.190 -23.717  0.00  0.00    +0.001 C 
ATOM      6  C   UNL     1      34.659 -16.709 -24.973  0.00  0.00    +0.000 C 
ENDROOT
BRANCH   1   7
ATOM      7  S   UNL     1      35.175 -19.524 -21.393  0.00  0.00    -0.031 S 
ATOM      8  O   UNL     1      36.112 -18.847 -20.433  0.00  0.00    -0.076 OA
BRANCH   7   9
ATOM      9  O   UNL     1      33.679 -19.276 -20.856  0.00  0.00    -0.274 OA
ATOM     10  H   UNL     1      33.600 -18.369 -20.523  0.00  0.00    +0.242 HD
ENDBRANCH   7   9
ENDBRANCH   1   7
TORSDOF 2
ENDMDL
