MODEL 1
REMARK VINA RESULT:      -8.3      0.000      0.000
REMARK  Name = 9867812
REMARK  5 active torsions:
REMARK  status: ('A' for Active; 'I' for Inactive)
REMARK    1  A    between atoms: C_5  and  C_23
REMARK    2  A    between atoms: C_10  and  C_18
REMARK    3  A    between atoms: C_23  and  C_24
REMARK    4  A    between atoms: C_24  and  C_26
REMARK    5  A    between atoms: C_26  and  O_27
REMARK                            x       y       z     vdW  Elec       q    Type
REMARK                         _______ _______ _______ _____ _____    ______ ____
ROOT
ATOM      1 BR   UNL     1      32.354 -16.111 -26.933  0.00  0.00    -0.049 Br
ATOM      2  N   UNL     1      34.030 -10.675 -24.707  0.00  0.00    -0.255 N 
ATOM      3  N   UNL     1      32.478 -11.664 -22.270  0.00  0.00    -0.263 NA
ATOM      4  N   UNL     1      33.943  -8.789 -23.509  0.00  0.00    -0.230 NA
ATOM      5  C   UNL     1      32.143 -10.487 -23.058  0.00  0.00    +0.158 C 
ATOM      6  C   UNL     1      33.379  -9.963 -23.713  0.00  0.00    +0.138 C 
ATOM      7  C   UNL     1      33.693 -11.972 -25.166  0.00  0.00    +0.058 C 
ATOM      8  C   UNL     1      33.052 -12.914 -24.337  0.00  0.00    +0.033 C 
ATOM      9  C   UNL     1      35.006  -9.839 -25.200  0.00  0.00    +0.054 C 
ATOM     10  C   UNL     1      32.882 -12.739 -22.857  0.00  0.00    +0.095 C 
ATOM     11  C   UNL     1      34.950  -8.706 -24.428  0.00  0.00    +0.111 C 
ATOM     12  C   UNL     1      33.985 -12.310 -26.499  0.00  0.00    +0.016 C 
ATOM     13  C   UNL     1      32.642 -14.141 -24.886  0.00  0.00    +0.009 C 
ATOM     14  C   UNL     1      36.015 -10.158 -26.231  0.00  0.00    +0.049 C 
ATOM     15  C   UNL     1      33.591 -13.543 -27.019  0.00  0.00    +0.008 C 
ATOM     16  C   UNL     1      32.907 -14.451 -26.218  0.00  0.00    +0.035 C 
ENDROOT
BRANCH  10  18
ATOM     17  N   UNL     1      34.433 -14.442 -22.191  0.00  0.00    -0.242 NA
ATOM     18  C   UNL     1      33.228 -13.885 -21.966  0.00  0.00    +0.099 C 
ATOM     19  C   UNL     1      32.334 -14.295 -21.000  0.00  0.00    +0.021 C 
ATOM     20  C   UNL     1      32.706 -15.367 -20.197  0.00  0.00    +0.003 C 
ATOM     21  C   UNL     1      34.759 -15.482 -21.391  0.00  0.00    +0.099 C 
ATOM     22  C   UNL     1      33.940 -15.978 -20.390  0.00  0.00    +0.021 C 
ENDBRANCH  10  18
BRANCH   5  23
ATOM     23  C   UNL     1      31.521  -9.464 -22.109  0.00  0.00    +0.043 C 
BRANCH  23  24
ATOM     24  C   UNL     1      31.422 -10.013 -20.691  0.00  0.00    +0.112 C 
BRANCH  24  26
ATOM     25  O   UNL     1      32.639  -8.049 -19.934  0.00  0.00    -0.250 OA
ATOM     26  C   UNL     1      32.195  -9.166 -19.708  0.00  0.00    +0.317 C 
BRANCH  26  27
ATOM     27  O   UNL     1      32.314  -9.851 -18.532  0.00  0.00    -0.444 OA
ATOM     28  C   UNL     1      31.416 -10.954 -18.368  0.00  0.00    +0.256 C 
ENDBRANCH  26  27
ENDBRANCH  24  26
ENDBRANCH  23  24
ENDBRANCH   5  23
TORSDOF 5
ENDMDL
MODEL 2
REMARK VINA RESULT:      -8.2      0.463      1.008
REMARK  Name = 9867812
REMARK  5 active torsions:
REMARK  status: ('A' for Active; 'I' for Inactive)
REMARK    1  A    between atoms: C_5  and  C_23
REMARK    2  A    between atoms: C_10  and  C_18
REMARK    3  A    between atoms: C_23  and  C_24
REMARK    4  A    between atoms: C_24  and  C_26
REMARK    5  A    between atoms: C_26  and  O_27
REMARK                            x       y       z     vdW  Elec       q    Type
REMARK                         _______ _______ _______ _____ _____    ______ ____
ROOT
ATOM      1 BR   UNL     1      32.321 -16.134 -26.962  0.00  0.00    -0.049 Br
ATOM      2  N   UNL     1      33.969 -10.747 -24.599  0.00  0.00    -0.255 N 
ATOM      3  N   UNL     1      32.480 -11.834 -22.164  0.00  0.00    -0.263 NA
ATOM      4  N   UNL     1      33.881  -8.901 -23.340  0.00  0.00    -0.230 NA
ATOM      5  C   UNL     1      32.114 -10.638 -22.907  0.00  0.00    +0.158 C 
ATOM      6  C   UNL     1      33.329 -10.076 -23.569  0.00  0.00    +0.138 C 
ATOM      7  C   UNL     1      33.640 -12.034 -25.092  0.00  0.00    +0.058 C 
ATOM      8  C   UNL     1      33.028 -13.010 -24.280  0.00  0.00    +0.033 C 
ATOM      9  C   UNL     1      34.923  -9.882 -25.085  0.00  0.00    +0.054 C 
ATOM     10  C   UNL     1      32.887 -12.884 -22.792  0.00  0.00    +0.095 C 
ATOM     11  C   UNL     1      34.868  -8.775 -24.276  0.00  0.00    +0.111 C 
ATOM     12  C   UNL     1      33.908 -12.325 -26.441  0.00  0.00    +0.016 C 
ATOM     13  C   UNL     1      32.624 -14.225 -24.859  0.00  0.00    +0.009 C 
ATOM     14  C   UNL     1      35.915 -10.155 -26.145  0.00  0.00    +0.049 C 
ATOM     15  C   UNL     1      33.521 -13.547 -26.991  0.00  0.00    +0.008 C 
ATOM     16  C   UNL     1      32.866 -14.489 -26.206  0.00  0.00    +0.035 C 
ENDROOT
BRANCH  10  18
ATOM     17  N   UNL     1      34.476 -14.582 -22.209  0.00  0.00    -0.242 NA
ATOM     18  C   UNL     1      33.267 -14.052 -21.945  0.00  0.00    +0.099 C 
ATOM     19  C   UNL     1      32.396 -14.508 -20.979  0.00  0.00    +0.021 C 
ATOM     20  C   UNL     1      32.799 -15.600 -20.217  0.00  0.00    +0.003 C 
ATOM     21  C   UNL     1      34.833 -15.642 -21.449  0.00  0.00    +0.099 C 
ATOM     22  C   UNL     1      34.039 -16.183 -20.450  0.00  0.00    +0.021 C 
ENDBRANCH  10  18
BRANCH   5  23
ATOM     23  C   UNL     1      31.498  -9.654 -21.914  0.00  0.00    +0.043 C 
BRANCH  23  24
ATOM     24  C   UNL     1      31.292 -10.300 -20.550  0.00  0.00    +0.112 C 
BRANCH  24  26
ATOM     25  O   UNL     1      32.655  -9.974 -18.563  0.00  0.00    -0.250 OA
ATOM     26  C   UNL     1      31.954  -9.505 -19.448  0.00  0.00    +0.317 C 
BRANCH  26  27
ATOM     27  O   UNL     1      31.639  -8.185 -19.606  0.00  0.00    -0.444 OA
ATOM     28  C   UNL     1      32.726  -7.334 -19.985  0.00  0.00    +0.256 C 
ENDBRANCH  26  27
ENDBRANCH  24  26
ENDBRANCH  23  24
ENDBRANCH   5  23
TORSDOF 5
ENDMDL
MODEL 3
REMARK VINA RESULT:      -7.2      3.501      5.851
REMARK  Name = 9867812
REMARK  5 active torsions:
REMARK  status: ('A' for Active; 'I' for Inactive)
REMARK    1  A    between atoms: C_5  and  C_23
REMARK    2  A    between atoms: C_10  and  C_18
REMARK    3  A    between atoms: C_23  and  C_24
REMARK    4  A    between atoms: C_24  and  C_26
REMARK    5  A    between atoms: C_26  and  O_27
REMARK                            x       y       z     vdW  Elec       q    Type
REMARK                         _______ _______ _______ _____ _____    ______ ____
ROOT
ATOM      1 BR   UNL     1      34.882  -7.976 -23.916  0.00  0.00    -0.049 Br
ATOM      2  N   UNL     1      33.539 -13.761 -25.346  0.00  0.00    -0.255 N 
ATOM      3  N   UNL     1      33.523 -14.068 -22.307  0.00  0.00    -0.263 NA
ATOM      4  N   UNL     1      33.447 -15.989 -25.179  0.00  0.00    -0.230 NA
ATOM      5  C   UNL     1      34.425 -14.758 -23.216  0.00  0.00    +0.158 C 
ATOM      6  C   UNL     1      33.781 -14.875 -24.558  0.00  0.00    +0.138 C 
ATOM      7  C   UNL     1      33.772 -12.412 -24.983  0.00  0.00    +0.058 C 
ATOM      8  C   UNL     1      33.737 -11.984 -23.641  0.00  0.00    +0.033 C 
ATOM      9  C   UNL     1      33.107 -14.239 -26.563  0.00  0.00    +0.054 C 
ATOM     10  C   UNL     1      33.226 -12.829 -22.512  0.00  0.00    +0.095 C 
ATOM     11  C   UNL     1      33.031 -15.602 -26.420  0.00  0.00    +0.111 C 
ATOM     12  C   UNL     1      34.075 -11.487 -25.996  0.00  0.00    +0.016 C 
ATOM     13  C   UNL     1      34.088 -10.658 -23.337  0.00  0.00    +0.009 C 
ATOM     14  C   UNL     1      32.657 -13.443 -27.723  0.00  0.00    +0.049 C 
ATOM     15  C   UNL     1      34.397 -10.168 -25.676  0.00  0.00    +0.008 C 
ATOM     16  C   UNL     1      34.420  -9.758 -24.348  0.00  0.00    +0.035 C 
ENDROOT
BRANCH  10  18
ATOM     17  N   UNL     1      31.249 -11.536 -22.099  0.00  0.00    -0.242 NA
ATOM     18  C   UNL     1      32.271 -12.213 -21.544  0.00  0.00    +0.099 C 
ATOM     19  C   UNL     1      32.479 -12.364 -20.189  0.00  0.00    +0.021 C 
ATOM     20  C   UNL     1      31.560 -11.769 -19.331  0.00  0.00    +0.003 C 
ATOM     21  C   UNL     1      30.377 -10.972 -21.234  0.00  0.00    +0.099 C 
ATOM     22  C   UNL     1      30.486 -11.059 -19.855  0.00  0.00    +0.021 C 
ENDBRANCH  10  18
BRANCH   5  23
ATOM     23  C   UNL     1      34.730 -16.126 -22.607  0.00  0.00    +0.043 C 
BRANCH  23  24
ATOM     24  C   UNL     1      33.828 -16.411 -21.411  0.00  0.00    +0.112 C 
BRANCH  24  26
ATOM     25  O   UNL     1      33.073 -18.637 -20.785  0.00  0.00    -0.250 OA
ATOM     26  C   UNL     1      33.984 -17.832 -20.920  0.00  0.00    +0.317 C 
BRANCH  26  27
ATOM     27  O   UNL     1      35.304 -18.065 -20.654  0.00  0.00    -0.444 OA
ATOM     28  C   UNL     1      35.791 -19.356 -21.037  0.00  0.00    +0.256 C 
ENDBRANCH  26  27
ENDBRANCH  24  26
ENDBRANCH  23  24
ENDBRANCH   5  23
TORSDOF 5
ENDMDL
MODEL 4
REMARK VINA RESULT:      -6.6      1.472      2.184
REMARK  Name = 9867812
REMARK  5 active torsions:
REMARK  status: ('A' for Active; 'I' for Inactive)
REMARK    1  A    between atoms: C_5  and  C_23
REMARK    2  A    between atoms: C_10  and  C_18
REMARK    3  A    between atoms: C_23  and  C_24
REMARK    4  A    between atoms: C_24  and  C_26
REMARK    5  A    between atoms: C_26  and  O_27
REMARK                            x       y       z     vdW  Elec       q    Type
REMARK                         _______ _______ _______ _____ _____    ______ ____
ROOT
ATOM      1 BR   UNL     1      32.065 -16.523 -26.859  0.00  0.00    -0.049 Br
ATOM      2  N   UNL     1      34.211 -11.082 -25.099  0.00  0.00    -0.255 N 
ATOM      3  N   UNL     1      32.890 -11.882 -22.464  0.00  0.00    -0.263 NA
ATOM      4  N   UNL     1      34.338  -9.142 -23.994  0.00  0.00    -0.230 NA
ATOM      5  C   UNL     1      32.525 -10.727 -23.270  0.00  0.00    +0.158 C 
ATOM      6  C   UNL     1      33.704 -10.295 -24.078  0.00  0.00    +0.138 C 
ATOM      7  C   UNL     1      33.769 -12.380 -25.454  0.00  0.00    +0.058 C 
ATOM      8  C   UNL     1      33.181 -13.250 -24.515  0.00  0.00    +0.033 C 
ATOM      9  C   UNL     1      35.164 -10.318 -25.734  0.00  0.00    +0.054 C 
ATOM     10  C   UNL     1      33.181 -13.001 -23.036  0.00  0.00    +0.095 C 
ATOM     11  C   UNL     1      35.242  -9.150 -25.018  0.00  0.00    +0.111 C 
ATOM     12  C   UNL     1      33.899 -12.791 -26.792  0.00  0.00    +0.016 C 
ATOM     13  C   UNL     1      32.660 -14.480 -24.955  0.00  0.00    +0.009 C 
ATOM     14  C   UNL     1      36.040 -10.733 -26.849  0.00  0.00    +0.049 C 
ATOM     15  C   UNL     1      33.398 -14.025 -27.204  0.00  0.00    +0.008 C 
ATOM     16  C   UNL     1      32.765 -14.862 -26.291  0.00  0.00    +0.035 C 
ENDROOT
BRANCH  10  18
ATOM     17  N   UNL     1      34.587 -14.887 -22.571  0.00  0.00    -0.242 NA
ATOM     18  C   UNL     1      33.570 -14.121 -22.131  0.00  0.00    +0.099 C 
ATOM     19  C   UNL     1      32.897 -14.306 -20.942  0.00  0.00    +0.021 C 
ATOM     20  C   UNL     1      33.300 -15.364 -20.136  0.00  0.00    +0.003 C 
ATOM     21  C   UNL     1      34.950 -15.906 -21.760  0.00  0.00    +0.099 C 
ATOM     22  C   UNL     1      34.345 -16.184 -20.545  0.00  0.00    +0.021 C 
ENDBRANCH  10  18
BRANCH   5  23
ATOM     23  C   UNL     1      32.055  -9.633 -22.313  0.00  0.00    +0.043 C 
BRANCH  23  24
ATOM     24  C   UNL     1      31.294  -8.540 -23.054  0.00  0.00    +0.112 C 
BRANCH  24  26
ATOM     25  O   UNL     1      31.430  -6.693 -21.479  0.00  0.00    -0.250 OA
ATOM     26  C   UNL     1      31.689  -7.161 -22.578  0.00  0.00    +0.317 C 
BRANCH  26  27
ATOM     27  O   UNL     1      32.379  -6.531 -23.575  0.00  0.00    -0.444 OA
ATOM     28  C   UNL     1      31.593  -6.105 -24.694  0.00  0.00    +0.256 C 
ENDBRANCH  26  27
ENDBRANCH  24  26
ENDBRANCH  23  24
ENDBRANCH   5  23
TORSDOF 5
ENDMDL
MODEL 5
REMARK VINA RESULT:      -6.4     11.993     16.314
REMARK  Name = 9867812
REMARK  5 active torsions:
REMARK  status: ('A' for Active; 'I' for Inactive)
REMARK    1  A    between atoms: C_5  and  C_23
REMARK    2  A    between atoms: C_10  and  C_18
REMARK    3  A    between atoms: C_23  and  C_24
REMARK    4  A    between atoms: C_24  and  C_26
REMARK    5  A    between atoms: C_26  and  O_27
REMARK                            x       y       z     vdW  Elec       q    Type
REMARK                         _______ _______ _______ _____ _____    ______ ____
ROOT
ATOM      1 BR   UNL     1      30.622 -23.208 -16.266  0.00  0.00    -0.049 Br
ATOM      2  N   UNL     1      35.507 -24.458 -12.818  0.00  0.00    -0.255 N 
ATOM      3  N   UNL     1      36.853 -24.693 -15.550  0.00  0.00    -0.263 NA
ATOM      4  N   UNL     1      37.466 -25.350 -12.212  0.00  0.00    -0.230 NA
ATOM      5  C   UNL     1      36.728 -25.770 -14.579  0.00  0.00    +0.158 C 
ATOM      6  C   UNL     1      36.617 -25.190 -13.208  0.00  0.00    +0.138 C 
ATOM      7  C   UNL     1      34.412 -24.095 -13.640  0.00  0.00    +0.058 C 
ATOM      8  C   UNL     1      34.548 -23.929 -15.033  0.00  0.00    +0.033 C 
ATOM      9  C   UNL     1      35.653 -24.230 -11.468  0.00  0.00    +0.054 C 
ATOM     10  C   UNL     1      35.869 -23.880 -15.740  0.00  0.00    +0.095 C 
ATOM     11  C   UNL     1      36.874 -24.759 -11.133  0.00  0.00    +0.111 C 
ATOM     12  C   UNL     1      33.151 -23.927 -13.043  0.00  0.00    +0.016 C 
ATOM     13  C   UNL     1      33.401 -23.681 -15.807  0.00  0.00    +0.009 C 
ATOM     14  C   UNL     1      34.763 -23.435 -10.598  0.00  0.00    +0.049 C 
ATOM     15  C   UNL     1      32.028 -23.657 -13.826  0.00  0.00    +0.008 C 
ATOM     16  C   UNL     1      32.150 -23.550 -15.207  0.00  0.00    +0.035 C 
ENDROOT
BRANCH  10  18
ATOM     17  N   UNL     1      35.267 -22.796 -17.791  0.00  0.00    -0.242 NA
ATOM     18  C   UNL     1      36.099 -22.791 -16.733  0.00  0.00    +0.099 C 
ATOM     19  C   UNL     1      37.110 -21.877 -16.524  0.00  0.00    +0.021 C 
ATOM     20  C   UNL     1      37.282 -20.882 -17.482  0.00  0.00    +0.003 C 
ATOM     21  C   UNL     1      35.465 -21.815 -18.700  0.00  0.00    +0.099 C 
ATOM     22  C   UNL     1      36.447 -20.844 -18.593  0.00  0.00    +0.021 C 
ENDBRANCH  10  18
BRANCH   5  23
ATOM     23  C   UNL     1      37.960 -26.662 -14.725  0.00  0.00    +0.043 C 
BRANCH  23  24
ATOM     24  C   UNL     1      39.107 -25.915 -15.396  0.00  0.00    +0.112 C 
BRANCH  24  26
ATOM     25  O   UNL     1      40.560 -24.914 -13.721  0.00  0.00    -0.250 OA
ATOM     26  C   UNL     1      40.319 -25.829 -14.498  0.00  0.00    +0.317 C 
BRANCH  26  27
ATOM     27  O   UNL     1      41.096 -26.935 -14.697  0.00  0.00    -0.444 OA
ATOM     28  C   UNL     1      41.718 -27.471 -13.524  0.00  0.00    +0.256 C 
ENDBRANCH  26  27
ENDBRANCH  24  26
ENDBRANCH  23  24
ENDBRANCH   5  23
TORSDOF 5
ENDMDL
MODEL 6
REMARK VINA RESULT:      -6.2     10.478     14.620
REMARK  Name = 9867812
REMARK  5 active torsions:
REMARK  status: ('A' for Active; 'I' for Inactive)
REMARK    1  A    between atoms: C_5  and  C_23
REMARK    2  A    between atoms: C_10  and  C_18
REMARK    3  A    between atoms: C_23  and  C_24
REMARK    4  A    between atoms: C_24  and  C_26
REMARK    5  A    between atoms: C_26  and  O_27
REMARK                            x       y       z     vdW  Elec       q    Type
REMARK                         _______ _______ _______ _____ _____    ______ ____
ROOT
ATOM      1 BR   UNL     1      35.697 -24.086 -10.223  0.00  0.00    -0.049 Br
ATOM      2  N   UNL     1      34.353 -23.201 -16.116  0.00  0.00    -0.255 N 
ATOM      3  N   UNL     1      37.381 -22.864 -16.323  0.00  0.00    -0.263 NA
ATOM      4  N   UNL     1      34.515 -22.414 -18.202  0.00  0.00    -0.230 NA
ATOM      5  C   UNL     1      36.399 -21.838 -16.638  0.00  0.00    +0.158 C 
ATOM      6  C   UNL     1      35.113 -22.488 -17.029  0.00  0.00    +0.138 C 
ATOM      7  C   UNL     1      34.703 -23.479 -14.771  0.00  0.00    +0.058 C 
ATOM      8  C   UNL     1      36.045 -23.573 -14.354  0.00  0.00    +0.033 C 
ATOM      9  C   UNL     1      33.173 -23.507 -16.755  0.00  0.00    +0.054 C 
ATOM     10  C   UNL     1      37.208 -23.631 -15.300  0.00  0.00    +0.095 C 
ATOM     11  C   UNL     1      33.314 -23.041 -18.038  0.00  0.00    +0.111 C 
ATOM     12  C   UNL     1      33.673 -23.635 -13.828  0.00  0.00    +0.016 C 
ATOM     13  C   UNL     1      36.326 -23.738 -12.987  0.00  0.00    +0.009 C 
ATOM     14  C   UNL     1      32.057 -24.317 -16.225  0.00  0.00    +0.049 C 
ATOM     15  C   UNL     1      33.972 -23.821 -12.478  0.00  0.00    +0.008 C 
ATOM     16  C   UNL     1      35.296 -23.857 -12.056  0.00  0.00    +0.035 C 
ENDROOT
BRANCH  10  18
ATOM     17  N   UNL     1      39.524 -24.239 -15.176  0.00  0.00    -0.242 NA
ATOM     18  C   UNL     1      38.253 -24.671 -15.073  0.00  0.00    +0.099 C 
ATOM     19  C   UNL     1      37.878 -25.965 -14.782  0.00  0.00    +0.021 C 
ATOM     20  C   UNL     1      38.892 -26.896 -14.581  0.00  0.00    +0.003 C 
ATOM     21  C   UNL     1      40.481 -25.171 -14.973  0.00  0.00    +0.099 C 
ATOM     22  C   UNL     1      40.221 -26.499 -14.675  0.00  0.00    +0.021 C 
ENDBRANCH  10  18
BRANCH   5  23
ATOM     23  C   UNL     1      36.975 -20.984 -17.766  0.00  0.00    +0.043 C 
BRANCH  23  24
ATOM     24  C   UNL     1      36.568 -21.525 -19.131  0.00  0.00    +0.112 C 
BRANCH  24  26
ATOM     25  O   UNL     1      37.044 -19.428 -20.268  0.00  0.00    -0.250 OA
ATOM     26  C   UNL     1      36.331 -20.412 -20.126  0.00  0.00    +0.317 C 
BRANCH  26  27
ATOM     27  O   UNL     1      35.196 -20.688 -20.835  0.00  0.00    -0.444 OA
ATOM     28  C   UNL     1      34.284 -19.594 -20.987  0.00  0.00    +0.256 C 
ENDBRANCH  26  27
ENDBRANCH  24  26
ENDBRANCH  23  24
ENDBRANCH   5  23
TORSDOF 5
ENDMDL
MODEL 7
REMARK VINA RESULT:      -6.0      3.329      6.756
REMARK  Name = 9867812
REMARK  5 active torsions:
REMARK  status: ('A' for Active; 'I' for Inactive)
REMARK    1  A    between atoms: C_5  and  C_23
REMARK    2  A    between atoms: C_10  and  C_18
REMARK    3  A    between atoms: C_23  and  C_24
REMARK    4  A    between atoms: C_24  and  C_26
REMARK    5  A    between atoms: C_26  and  O_27
REMARK                            x       y       z     vdW  Elec       q    Type
REMARK                         _______ _______ _______ _____ _____    ______ ____
ROOT
ATOM      1 BR   UNL     1      30.517 -10.759 -19.227  0.00  0.00    -0.049 Br
ATOM      2  N   UNL     1      33.698 -14.729 -22.609  0.00  0.00    -0.255 N 
ATOM      3  N   UNL     1      33.118 -12.684 -24.801  0.00  0.00    -0.263 NA
ATOM      4  N   UNL     1      34.366 -15.883 -24.405  0.00  0.00    -0.230 NA
ATOM      5  C   UNL     1      32.671 -14.068 -24.805  0.00  0.00    +0.158 C 
ATOM      6  C   UNL     1      33.605 -14.892 -23.982  0.00  0.00    +0.138 C 
ATOM      7  C   UNL     1      33.025 -13.754 -21.834  0.00  0.00    +0.058 C 
ATOM      8  C   UNL     1      32.639 -12.510 -22.372  0.00  0.00    +0.033 C 
ATOM      9  C   UNL     1      34.507 -15.747 -22.156  0.00  0.00    +0.054 C 
ATOM     10  C   UNL     1      33.098 -12.002 -23.706  0.00  0.00    +0.095 C 
ATOM     11  C   UNL     1      34.925 -16.417 -23.279  0.00  0.00    +0.111 C 
ATOM     12  C   UNL     1      32.712 -14.057 -20.498  0.00  0.00    +0.016 C 
ATOM     13  C   UNL     1      31.874 -11.632 -21.584  0.00  0.00    +0.009 C 
ATOM     14  C   UNL     1      34.966 -15.971 -20.770  0.00  0.00    +0.049 C 
ATOM     15  C   UNL     1      31.972 -13.162 -19.724  0.00  0.00    +0.008 C 
ATOM     16  C   UNL     1      31.540 -11.959 -20.271  0.00  0.00    +0.035 C 
ENDROOT
BRANCH  10  18
ATOM     17  N   UNL     1      34.878 -10.476 -24.204  0.00  0.00    -0.242 NA
ATOM     18  C   UNL     1      33.602 -10.601 -23.794  0.00  0.00    +0.099 C 
ATOM     19  C   UNL     1      32.769  -9.553 -23.464  0.00  0.00    +0.021 C 
ATOM     20  C   UNL     1      33.289  -8.267 -23.563  0.00  0.00    +0.003 C 
ATOM     21  C   UNL     1      35.348  -9.211 -24.288  0.00  0.00    +0.099 C 
ATOM     22  C   UNL     1      34.602  -8.084 -23.983  0.00  0.00    +0.021 C 
ENDBRANCH  10  18
BRANCH   5  23
ATOM     23  C   UNL     1      32.630 -14.532 -26.260  0.00  0.00    +0.043 C 
BRANCH  23  24
ATOM     24  C   UNL     1      32.661 -13.348 -27.219  0.00  0.00    +0.112 C 
BRANCH  24  26
ATOM     25  O   UNL     1      34.846 -13.715 -28.221  0.00  0.00    -0.250 OA
ATOM     26  C   UNL     1      34.074 -12.985 -27.614  0.00  0.00    +0.317 C 
BRANCH  26  27
ATOM     27  O   UNL     1      34.341 -11.716 -27.184  0.00  0.00    -0.444 OA
ATOM     28  C   UNL     1      35.662 -11.237 -27.462  0.00  0.00    +0.256 C 
ENDBRANCH  26  27
ENDBRANCH  24  26
ENDBRANCH  23  24
ENDBRANCH   5  23
TORSDOF 5
ENDMDL
MODEL 8
REMARK VINA RESULT:      -5.5      2.359      5.030
REMARK  Name = 9867812
REMARK  5 active torsions:
REMARK  status: ('A' for Active; 'I' for Inactive)
REMARK    1  A    between atoms: C_5  and  C_23
REMARK    2  A    between atoms: C_10  and  C_18
REMARK    3  A    between atoms: C_23  and  C_24
REMARK    4  A    between atoms: C_24  and  C_26
REMARK    5  A    between atoms: C_26  and  O_27
REMARK                            x       y       z     vdW  Elec       q    Type
REMARK                         _______ _______ _______ _____ _____    ______ ____
ROOT
ATOM      1 BR   UNL     1      34.631 -16.680 -20.913  0.00  0.00    -0.049 Br
ATOM      2  N   UNL     1      32.300 -11.164 -22.119  0.00  0.00    -0.255 N 
ATOM      3  N   UNL     1      33.829 -11.552 -24.733  0.00  0.00    -0.263 NA
ATOM      4  N   UNL     1      32.135  -9.105 -22.975  0.00  0.00    -0.230 NA
ATOM      5  C   UNL     1      34.077 -10.495 -23.765  0.00  0.00    +0.158 C 
ATOM      6  C   UNL     1      32.827 -10.228 -22.994  0.00  0.00    +0.138 C 
ATOM      7  C   UNL     1      32.791 -12.475 -21.900  0.00  0.00    +0.058 C 
ATOM      8  C   UNL     1      33.486 -13.187 -22.897  0.00  0.00    +0.033 C 
ATOM      9  C   UNL     1      31.267 -10.535 -21.461  0.00  0.00    +0.054 C 
ATOM     10  C   UNL     1      33.566 -12.748 -24.329  0.00  0.00    +0.095 C 
ATOM     11  C   UNL     1      31.170  -9.289 -22.028  0.00  0.00    +0.111 C 
ATOM     12  C   UNL     1      32.598 -13.062 -20.637  0.00  0.00    +0.016 C 
ATOM     13  C   UNL     1      34.045 -14.437 -22.581  0.00  0.00    +0.009 C 
ATOM     14  C   UNL     1      30.346 -11.133 -20.472  0.00  0.00    +0.049 C 
ATOM     15  C   UNL     1      33.141 -14.314 -20.350  0.00  0.00    +0.008 C 
ATOM     16  C   UNL     1      33.876 -14.994 -21.314  0.00  0.00    +0.035 C 
ENDROOT
BRANCH  10  18
ATOM     17  N   UNL     1      32.996 -13.249 -26.603  0.00  0.00    -0.242 NA
ATOM     18  C   UNL     1      33.299 -13.758 -25.394  0.00  0.00    +0.099 C 
ATOM     19  C   UNL     1      33.372 -15.102 -25.097  0.00  0.00    +0.021 C 
ATOM     20  C   UNL     1      33.113 -16.001 -26.125  0.00  0.00    +0.003 C 
ATOM     21  C   UNL     1      32.751 -14.153 -27.578  0.00  0.00    +0.099 C 
ATOM     22  C   UNL     1      32.796 -15.526 -27.393  0.00  0.00    +0.021 C 
ENDBRANCH  10  18
BRANCH   5  23
ATOM     23  C   UNL     1      34.545  -9.265 -24.540  0.00  0.00    +0.043 C 
BRANCH  23  24
ATOM     24  C   UNL     1      34.682  -8.054 -23.624  0.00  0.00    +0.112 C 
BRANCH  24  26
ATOM     25  O   UNL     1      34.744  -6.330 -25.338  0.00  0.00    -0.250 OA
ATOM     26  C   UNL     1      34.251  -6.780 -24.313  0.00  0.00    +0.317 C 
BRANCH  26  27
ATOM     27  O   UNL     1      33.226  -6.219 -23.604  0.00  0.00    -0.444 OA
ATOM     28  C   UNL     1      32.142  -5.709 -24.388  0.00  0.00    +0.256 C 
ENDBRANCH  26  27
ENDBRANCH  24  26
ENDBRANCH  23  24
ENDBRANCH   5  23
TORSDOF 5
ENDMDL
