MODEL 1
REMARK VINA RESULT:      -9.7      0.000      0.000
REMARK  Name = 44595848
REMARK  4 active torsions:
REMARK  status: ('A' for Active; 'I' for Inactive)
REMARK    1  A    between atoms: N_2  and  S_17
REMARK    2  A    between atoms: C_9  and  C_11
REMARK    3  A    between atoms: S_17  and  C_20
REMARK    4  A    between atoms: C_25  and  C_29
REMARK                            x       y       z     vdW  Elec       q    Type
REMARK                         _______ _______ _______ _____ _____    ______ ____
ROOT
ATOM      1  O   UNL     1      37.148 -18.660 -22.676  0.00  0.00    -0.270 OA
ATOM      2  N   UNL     1      34.385 -21.372 -19.493  0.00  0.00    -0.152 NA
ATOM      3  N   UNL     1      35.534 -19.323 -21.113  0.00  0.00    -0.275 N 
ATOM      4  C   UNL     1      36.399 -20.359 -20.520  0.00  0.00    +0.093 C 
ATOM      5  C   UNL     1      35.629 -21.659 -20.265  0.00  0.00    +0.116 C 
ATOM      6  C   UNL     1      33.495 -20.441 -20.240  0.00  0.00    +0.117 C 
ATOM      7  C   UNL     1      34.224 -19.123 -20.475  0.00  0.00    +0.113 C 
ATOM      8  C   UNL     1      37.079 -19.835 -19.252  0.00  0.00    +0.023 C 
ATOM      9  C   UNL     1      36.056 -18.510 -22.129  0.00  0.00    +0.250 C 
ENDROOT
BRANCH   9  11
ATOM     10  N   UNL     1      33.869 -16.331 -24.277  0.00  0.00    -0.248 NA
ATOM     11  C   UNL     1      35.253 -17.370 -22.589  0.00  0.00    +0.067 C 
ATOM     12  C   UNL     1      34.616 -17.361 -23.819  0.00  0.00    +0.064 C 
ATOM     13  C   UNL     1      35.116 -16.249 -21.776  0.00  0.00    +0.007 C 
ATOM     14  C   UNL     1      34.728 -18.536 -24.735  0.00  0.00    +0.052 C 
ATOM     15  C   UNL     1      34.355 -15.170 -22.213  0.00  0.00    +0.021 C 
ATOM     16  C   UNL     1      33.759 -15.259 -23.460  0.00  0.00    +0.098 C 
ENDBRANCH   9  11
BRANCH   2  17
ATOM     17  S   UNL     1      33.613 -22.738 -18.808  0.00  0.00    +0.063 S 
ATOM     18  O   UNL     1      33.898 -23.900 -19.621  0.00  0.00    -0.153 OA
ATOM     19  O   UNL     1      32.252 -22.385 -18.463  0.00  0.00    -0.153 OA
BRANCH  17  20
ATOM     20  C   UNL     1      34.530 -22.890 -17.307  0.00  0.00    +0.122 C 
ATOM     21  C   UNL     1      33.953 -23.506 -16.197  0.00  0.00    +0.020 C 
ATOM     22  C   UNL     1      35.830 -22.391 -17.230  0.00  0.00    +0.020 C 
ATOM     23  C   UNL     1      34.675 -23.623 -15.010  0.00  0.00    +0.005 C 
ATOM     24  C   UNL     1      36.553 -22.508 -16.043  0.00  0.00    +0.005 C 
ATOM     25  C   UNL     1      35.976 -23.126 -14.933  0.00  0.00    +0.072 C 
BRANCH  25  29
ATOM     26  F   UNL     1      35.971 -23.077 -12.556  0.00  0.00    -0.166 F 
ATOM     27  F   UNL     1      37.346 -24.469 -13.505  0.00  0.00    -0.166 F 
ATOM     28  F   UNL     1      37.762 -22.342 -13.548  0.00  0.00    -0.166 F 
ATOM     29  C   UNL     1      36.750 -23.251 -13.664  0.00  0.00    +0.419 C 
ENDBRANCH  25  29
ENDBRANCH  17  20
ENDBRANCH   2  17
TORSDOF 4
ENDMDL
MODEL 2
REMARK VINA RESULT:      -9.6      3.798      5.995
REMARK  Name = 44595848
REMARK  4 active torsions:
REMARK  status: ('A' for Active; 'I' for Inactive)
REMARK    1  A    between atoms: N_2  and  S_17
REMARK    2  A    between atoms: C_9  and  C_11
REMARK    3  A    between atoms: S_17  and  C_20
REMARK    4  A    between atoms: C_25  and  C_29
REMARK                            x       y       z     vdW  Elec       q    Type
REMARK                         _______ _______ _______ _____ _____    ______ ____
ROOT
ATOM      1  O   UNL     1      32.636 -13.144 -19.990  0.00  0.00    -0.270 OA
ATOM      2  N   UNL     1      34.412 -17.176 -22.379  0.00  0.00    -0.152 NA
ATOM      3  N   UNL     1      33.186 -14.706 -21.646  0.00  0.00    -0.275 N 
ATOM      4  C   UNL     1      33.146 -15.848 -20.715  0.00  0.00    +0.093 C 
ATOM      5  C   UNL     1      34.325 -16.800 -20.938  0.00  0.00    +0.116 C 
ATOM      6  C   UNL     1      34.614 -15.974 -23.234  0.00  0.00    +0.117 C 
ATOM      7  C   UNL     1      33.434 -15.025 -23.061  0.00  0.00    +0.113 C 
ATOM      8  C   UNL     1      31.798 -16.572 -20.805  0.00  0.00    +0.023 C 
ATOM      9  C   UNL     1      32.847 -13.433 -21.167  0.00  0.00    +0.250 C 
ENDROOT
BRANCH   9  11
ATOM     10  N   UNL     1      31.566 -10.358 -22.911  0.00  0.00    -0.248 NA
ATOM     11  C   UNL     1      32.717 -12.337 -22.135  0.00  0.00    +0.067 C 
ATOM     12  C   UNL     1      31.718 -11.380 -22.041  0.00  0.00    +0.064 C 
ATOM     13  C   UNL     1      33.617 -12.236 -23.191  0.00  0.00    +0.007 C 
ATOM     14  C   UNL     1      30.723 -11.437 -20.928  0.00  0.00    +0.052 C 
ATOM     15  C   UNL     1      33.492 -11.198 -24.107  0.00  0.00    +0.021 C 
ATOM     16  C   UNL     1      32.459 -10.293 -23.925  0.00  0.00    +0.098 C 
ENDBRANCH   9  11
BRANCH   2  17
ATOM     17  S   UNL     1      35.429 -18.509 -22.731  0.00  0.00    +0.063 S 
ATOM     18  O   UNL     1      36.800 -18.146 -22.444  0.00  0.00    -0.153 OA
ATOM     19  O   UNL     1      35.055 -19.059 -24.016  0.00  0.00    -0.153 OA
BRANCH  17  20
ATOM     20  C   UNL     1      34.897 -19.639 -21.482  0.00  0.00    +0.122 C 
ATOM     21  C   UNL     1      35.839 -20.335 -20.725  0.00  0.00    +0.020 C 
ATOM     22  C   UNL     1      33.535 -19.839 -21.256  0.00  0.00    +0.020 C 
ATOM     23  C   UNL     1      35.420 -21.231 -19.742  0.00  0.00    +0.005 C 
ATOM     24  C   UNL     1      33.116 -20.734 -20.273  0.00  0.00    +0.005 C 
ATOM     25  C   UNL     1      34.058 -21.429 -19.514  0.00  0.00    +0.072 C 
BRANCH  25  29
ATOM     26  F   UNL     1      33.587 -23.678 -18.904  0.00  0.00    -0.166 F 
ATOM     27  F   UNL     1      34.405 -22.393 -17.353  0.00  0.00    -0.166 F 
ATOM     28  F   UNL     1      32.351 -22.136 -17.996  0.00  0.00    -0.166 F 
ATOM     29  C   UNL     1      33.610 -22.386 -18.462  0.00  0.00    +0.419 C 
ENDBRANCH  25  29
ENDBRANCH  17  20
ENDBRANCH   2  17
TORSDOF 4
ENDMDL
MODEL 3
REMARK VINA RESULT:      -9.2      6.723      9.765
REMARK  Name = 44595848
REMARK  4 active torsions:
REMARK  status: ('A' for Active; 'I' for Inactive)
REMARK    1  A    between atoms: N_2  and  S_17
REMARK    2  A    between atoms: C_9  and  C_11
REMARK    3  A    between atoms: S_17  and  C_20
REMARK    4  A    between atoms: C_25  and  C_29
REMARK                            x       y       z     vdW  Elec       q    Type
REMARK                         _______ _______ _______ _____ _____    ______ ____
ROOT
ATOM      1  O   UNL     1      32.197  -8.705 -23.688  0.00  0.00    -0.270 OA
ATOM      2  N   UNL     1      33.458 -13.324 -25.171  0.00  0.00    -0.152 NA
ATOM      3  N   UNL     1      32.900 -10.939 -23.706  0.00  0.00    -0.275 N 
ATOM      4  C   UNL     1      33.464 -10.849 -25.065  0.00  0.00    +0.093 C 
ATOM      5  C   UNL     1      33.104 -12.076 -25.908  0.00  0.00    +0.116 C 
ATOM      6  C   UNL     1      32.719 -13.410 -23.881  0.00  0.00    +0.117 C 
ATOM      7  C   UNL     1      33.088 -12.219 -23.005  0.00  0.00    +0.113 C 
ATOM      8  C   UNL     1      34.977 -10.614 -25.009  0.00  0.00    +0.023 C 
ATOM      9  C   UNL     1      32.363  -9.784 -23.121  0.00  0.00    +0.250 C 
ENDROOT
BRANCH   9  11
ATOM     10  N   UNL     1      31.992  -8.877 -19.491  0.00  0.00    -0.248 NA
ATOM     11  C   UNL     1      31.968  -9.839 -21.708  0.00  0.00    +0.067 C 
ATOM     12  C   UNL     1      32.335  -8.861 -20.798  0.00  0.00    +0.064 C 
ATOM     13  C   UNL     1      31.199 -10.902 -21.246  0.00  0.00    +0.007 C 
ATOM     14  C   UNL     1      33.162  -7.696 -21.235  0.00  0.00    +0.052 C 
ATOM     15  C   UNL     1      30.826 -10.953 -19.908  0.00  0.00    +0.021 C 
ATOM     16  C   UNL     1      31.244  -9.926 -19.078  0.00  0.00    +0.098 C 
ENDBRANCH   9  11
BRANCH   2  17
ATOM     17  S   UNL     1      33.468 -14.755 -26.111  0.00  0.00    +0.063 S 
ATOM     18  O   UNL     1      34.428 -14.611 -27.184  0.00  0.00    -0.153 OA
ATOM     19  O   UNL     1      32.102 -15.152 -26.379  0.00  0.00    -0.153 OA
BRANCH  17  20
ATOM     20  C   UNL     1      34.140 -15.889 -24.935  0.00  0.00    +0.122 C 
ATOM     21  C   UNL     1      34.215 -17.248 -25.242  0.00  0.00    +0.020 C 
ATOM     22  C   UNL     1      34.591 -15.427 -23.699  0.00  0.00    +0.020 C 
ATOM     23  C   UNL     1      34.742 -18.144 -24.312  0.00  0.00    +0.005 C 
ATOM     24  C   UNL     1      35.119 -16.323 -22.769  0.00  0.00    +0.005 C 
ATOM     25  C   UNL     1      35.195 -17.682 -23.077  0.00  0.00    +0.072 C 
BRANCH  25  29
ATOM     26  F   UNL     1      35.351 -19.925 -22.302  0.00  0.00    -0.166 F 
ATOM     27  F   UNL     1      37.124 -18.686 -22.080  0.00  0.00    -0.166 F 
ATOM     28  F   UNL     1      35.410 -18.360 -20.793  0.00  0.00    -0.166 F 
ATOM     29  C   UNL     1      35.759 -18.640 -22.083  0.00  0.00    +0.419 C 
ENDBRANCH  25  29
ENDBRANCH  17  20
ENDBRANCH   2  17
TORSDOF 4
ENDMDL
MODEL 4
REMARK VINA RESULT:      -9.1      8.208     11.858
REMARK  Name = 44595848
REMARK  4 active torsions:
REMARK  status: ('A' for Active; 'I' for Inactive)
REMARK    1  A    between atoms: N_2  and  S_17
REMARK    2  A    between atoms: C_9  and  C_11
REMARK    3  A    between atoms: S_17  and  C_20
REMARK    4  A    between atoms: C_25  and  C_29
REMARK                            x       y       z     vdW  Elec       q    Type
REMARK                         _______ _______ _______ _____ _____    ______ ____
ROOT
ATOM      1  O   UNL     1      35.693 -15.360 -24.086  0.00  0.00    -0.270 OA
ATOM      2  N   UNL     1      32.108 -12.787 -21.709  0.00  0.00    -0.152 NA
ATOM      3  N   UNL     1      33.765 -14.791 -22.884  0.00  0.00    -0.275 N 
ATOM      4  C   UNL     1      33.633 -13.476 -23.536  0.00  0.00    +0.093 C 
ATOM      5  C   UNL     1      33.288 -12.378 -22.524  0.00  0.00    +0.116 C 
ATOM      6  C   UNL     1      32.388 -14.043 -20.958  0.00  0.00    +0.117 C 
ATOM      7  C   UNL     1      32.697 -15.164 -21.943  0.00  0.00    +0.113 C 
ATOM      8  C   UNL     1      32.620 -13.539 -24.683  0.00  0.00    +0.023 C 
ATOM      9  C   UNL     1      34.792 -15.650 -23.301  0.00  0.00    +0.250 C 
ENDROOT
BRANCH   9  11
ATOM     10  N   UNL     1      34.595 -19.402 -23.140  0.00  0.00    -0.248 NA
ATOM     11  C   UNL     1      34.807 -17.022 -22.777  0.00  0.00    +0.067 C 
ATOM     12  C   UNL     1      34.588 -18.126 -23.585  0.00  0.00    +0.064 C 
ATOM     13  C   UNL     1      35.048 -17.242 -21.424  0.00  0.00    +0.007 C 
ATOM     14  C   UNL     1      34.324 -17.951 -25.045  0.00  0.00    +0.052 C 
ATOM     15  C   UNL     1      35.062 -18.541 -20.930  0.00  0.00    +0.021 C 
ATOM     16  C   UNL     1      34.832 -19.577 -21.820  0.00  0.00    +0.098 C 
ENDBRANCH   9  11
BRANCH   2  17
ATOM     17  S   UNL     1      31.371 -11.536 -20.802  0.00  0.00    +0.063 S 
ATOM     18  O   UNL     1      31.978 -11.482 -19.489  0.00  0.00    -0.153 OA
ATOM     19  O   UNL     1      29.935 -11.626 -20.957  0.00  0.00    -0.153 OA
BRANCH  17  20
ATOM     20  C   UNL     1      31.927 -10.128 -21.712  0.00  0.00    +0.122 C 
ATOM     21  C   UNL     1      32.462  -9.030 -21.039  0.00  0.00    +0.020 C 
ATOM     22  C   UNL     1      31.827 -10.112 -23.103  0.00  0.00    +0.020 C 
ATOM     23  C   UNL     1      32.897  -7.916 -21.756  0.00  0.00    +0.005 C 
ATOM     24  C   UNL     1      32.263  -8.999 -23.821  0.00  0.00    +0.005 C 
ATOM     25  C   UNL     1      32.799  -7.901 -23.148  0.00  0.00    +0.072 C 
BRANCH  25  29
ATOM     26  F   UNL     1      32.929  -5.533 -23.313  0.00  0.00    -0.166 F 
ATOM     27  F   UNL     1      34.620  -6.663 -24.082  0.00  0.00    -0.166 F 
ATOM     28  F   UNL     1      32.749  -6.638 -25.178  0.00  0.00    -0.166 F 
ATOM     29  C   UNL     1      33.265  -6.711 -23.916  0.00  0.00    +0.419 C 
ENDBRANCH  25  29
ENDBRANCH  17  20
ENDBRANCH   2  17
TORSDOF 4
ENDMDL
MODEL 5
REMARK VINA RESULT:      -8.8      4.376      9.180
REMARK  Name = 44595848
REMARK  4 active torsions:
REMARK  status: ('A' for Active; 'I' for Inactive)
REMARK    1  A    between atoms: N_2  and  S_17
REMARK    2  A    between atoms: C_9  and  C_11
REMARK    3  A    between atoms: S_17  and  C_20
REMARK    4  A    between atoms: C_25  and  C_29
REMARK                            x       y       z     vdW  Elec       q    Type
REMARK                         _______ _______ _______ _____ _____    ______ ____
ROOT
ATOM      1  O   UNL     1      37.568 -21.941 -13.374  0.00  0.00    -0.270 OA
ATOM      2  N   UNL     1      34.913 -23.061 -17.474  0.00  0.00    -0.152 NA
ATOM      3  N   UNL     1      36.568 -23.094 -15.150  0.00  0.00    -0.275 N 
ATOM      4  C   UNL     1      36.582 -21.921 -16.043  0.00  0.00    +0.093 C 
ATOM      5  C   UNL     1      35.261 -21.775 -16.803  0.00  0.00    +0.116 C 
ATOM      6  C   UNL     1      34.760 -24.159 -16.478  0.00  0.00    +0.117 C 
ATOM      7  C   UNL     1      36.075 -24.352 -15.732  0.00  0.00    +0.113 C 
ATOM      8  C   UNL     1      37.787 -21.976 -16.988  0.00  0.00    +0.023 C 
ATOM      9  C   UNL     1      37.149 -22.981 -13.879  0.00  0.00    +0.250 C 
ENDROOT
BRANCH   9  11
ATOM     10  N   UNL     1      36.392 -25.742 -11.441  0.00  0.00    -0.248 NA
ATOM     11  C   UNL     1      37.291 -24.197 -13.068  0.00  0.00    +0.067 C 
ATOM     12  C   UNL     1      36.298 -24.630 -12.203  0.00  0.00    +0.064 C 
ATOM     13  C   UNL     1      38.454 -24.955 -13.155  0.00  0.00    +0.007 C 
ATOM     14  C   UNL     1      35.028 -23.856 -12.067  0.00  0.00    +0.052 C 
ATOM     15  C   UNL     1      38.586 -26.106 -12.387  0.00  0.00    +0.021 C 
ATOM     16  C   UNL     1      37.537 -26.452 -11.553  0.00  0.00    +0.098 C 
ENDBRANCH   9  11
BRANCH   2  17
ATOM     17  S   UNL     1      33.678 -22.964 -18.657  0.00  0.00    +0.063 S 
ATOM     18  O   UNL     1      32.437 -22.586 -18.016  0.00  0.00    -0.153 OA
ATOM     19  O   UNL     1      33.752 -24.130 -19.511  0.00  0.00    -0.153 OA
BRANCH  17  20
ATOM     20  C   UNL     1      34.251 -21.575 -19.585  0.00  0.00    +0.122 C 
ATOM     21  C   UNL     1      33.341 -20.628 -20.055  0.00  0.00    +0.020 C 
ATOM     22  C   UNL     1      35.612 -21.427 -19.851  0.00  0.00    +0.020 C 
ATOM     23  C   UNL     1      33.792 -19.533 -20.791  0.00  0.00    +0.005 C 
ATOM     24  C   UNL     1      36.064 -20.332 -20.587  0.00  0.00    +0.005 C 
ATOM     25  C   UNL     1      35.154 -19.384 -21.057  0.00  0.00    +0.072 C 
BRANCH  25  29
ATOM     26  F   UNL     1      35.487 -17.033 -21.172  0.00  0.00    -0.166 F 
ATOM     27  F   UNL     1      36.960 -18.281 -22.171  0.00  0.00    -0.166 F 
ATOM     28  F   UNL     1      34.984 -18.045 -23.031  0.00  0.00    -0.166 F 
ATOM     29  C   UNL     1      35.637 -18.212 -21.843  0.00  0.00    +0.419 C 
ENDBRANCH  25  29
ENDBRANCH  17  20
ENDBRANCH   2  17
TORSDOF 4
ENDMDL
MODEL 6
REMARK VINA RESULT:      -8.0      5.137      9.170
REMARK  Name = 44595848
REMARK  4 active torsions:
REMARK  status: ('A' for Active; 'I' for Inactive)
REMARK    1  A    between atoms: N_2  and  S_17
REMARK    2  A    between atoms: C_9  and  C_11
REMARK    3  A    between atoms: S_17  and  C_20
REMARK    4  A    between atoms: C_25  and  C_29
REMARK                            x       y       z     vdW  Elec       q    Type
REMARK                         _______ _______ _______ _____ _____    ______ ____
ROOT
ATOM      1  O   UNL     1      33.236 -22.598 -19.845  0.00  0.00    -0.270 OA
ATOM      2  N   UNL     1      34.547 -18.276 -22.018  0.00  0.00    -0.152 NA
ATOM      3  N   UNL     1      34.149 -20.479 -20.249  0.00  0.00    -0.275 N 
ATOM      4  C   UNL     1      33.084 -20.097 -21.193  0.00  0.00    +0.093 C 
ATOM      5  C   UNL     1      33.653 -19.396 -22.431  0.00  0.00    +0.116 C 
ATOM      6  C   UNL     1      35.687 -18.776 -21.200  0.00  0.00    +0.117 C 
ATOM      7  C   UNL     1      35.150 -19.446 -19.940  0.00  0.00    +0.113 C 
ATOM      8  C   UNL     1      32.018 -19.250 -20.492  0.00  0.00    +0.023 C 
ATOM      9  C   UNL     1      34.064 -21.721 -19.603  0.00  0.00    +0.250 C 
ENDROOT
BRANCH   9  11
ATOM     10  N   UNL     1      35.532 -23.009 -16.389  0.00  0.00    -0.248 NA
ATOM     11  C   UNL     1      35.027 -22.017 -18.535  0.00  0.00    +0.067 C 
ATOM     12  C   UNL     1      34.674 -22.718 -17.393  0.00  0.00    +0.064 C 
ATOM     13  C   UNL     1      36.345 -21.588 -18.655  0.00  0.00    +0.007 C 
ATOM     14  C   UNL     1      33.273 -23.202 -17.208  0.00  0.00    +0.052 C 
ATOM     15  C   UNL     1      37.256 -21.870 -17.643  0.00  0.00    +0.021 C 
ATOM     16  C   UNL     1      36.804 -22.576 -16.541  0.00  0.00    +0.098 C 
ENDBRANCH   9  11
BRANCH   2  17
ATOM     17  S   UNL     1      34.962 -17.170 -23.258  0.00  0.00    +0.063 S 
ATOM     18  O   UNL     1      34.363 -17.606 -24.501  0.00  0.00    -0.153 OA
ATOM     19  O   UNL     1      36.377 -16.876 -23.173  0.00  0.00    -0.153 OA
BRANCH  17  20
ATOM     20  C   UNL     1      34.078 -15.744 -22.705  0.00  0.00    +0.122 C 
ATOM     21  C   UNL     1      33.955 -14.633 -23.539  0.00  0.00    +0.020 C 
ATOM     22  C   UNL     1      33.508 -15.726 -21.432  0.00  0.00    +0.020 C 
ATOM     23  C   UNL     1      33.261 -13.506 -23.102  0.00  0.00    +0.005 C 
ATOM     24  C   UNL     1      32.814 -14.599 -20.994  0.00  0.00    +0.005 C 
ATOM     25  C   UNL     1      32.689 -13.489 -21.830  0.00  0.00    +0.072 C 
BRANCH  25  29
ATOM     26  F   UNL     1      32.487 -11.120 -21.830  0.00  0.00    -0.166 F 
ATOM     27  F   UNL     1      30.638 -12.261 -21.751  0.00  0.00    -0.166 F 
ATOM     28  F   UNL     1      31.916 -12.153 -20.003  0.00  0.00    -0.166 F 
ATOM     29  C   UNL     1      31.946 -12.283 -21.362  0.00  0.00    +0.419 C 
ENDBRANCH  25  29
ENDBRANCH  17  20
ENDBRANCH   2  17
TORSDOF 4
ENDMDL
MODEL 7
REMARK VINA RESULT:      -7.7      1.647      2.311
REMARK  Name = 44595848
REMARK  4 active torsions:
REMARK  status: ('A' for Active; 'I' for Inactive)
REMARK    1  A    between atoms: N_2  and  S_17
REMARK    2  A    between atoms: C_9  and  C_11
REMARK    3  A    between atoms: S_17  and  C_20
REMARK    4  A    between atoms: C_25  and  C_29
REMARK                            x       y       z     vdW  Elec       q    Type
REMARK                         _______ _______ _______ _____ _____    ______ ____
ROOT
ATOM      1  O   UNL     1      35.643 -17.144 -24.067  0.00  0.00    -0.270 OA
ATOM      2  N   UNL     1      33.885 -20.090 -20.414  0.00  0.00    -0.152 NA
ATOM      3  N   UNL     1      34.684 -17.910 -22.073  0.00  0.00    -0.275 N 
ATOM      4  C   UNL     1      35.485 -19.147 -22.053  0.00  0.00    +0.093 C 
ATOM      5  C   UNL     1      34.635 -20.364 -21.674  0.00  0.00    +0.116 C 
ATOM      6  C   UNL     1      32.978 -18.919 -20.576  0.00  0.00    +0.117 C 
ATOM      7  C   UNL     1      33.803 -17.684 -20.917  0.00  0.00    +0.113 C 
ATOM      8  C   UNL     1      36.702 -18.988 -21.136  0.00  0.00    +0.023 C 
ATOM      9  C   UNL     1      34.912 -16.975 -23.092  0.00  0.00    +0.250 C 
ENDROOT
BRANCH   9  11
ATOM     10  N   UNL     1      32.988 -13.891 -24.054  0.00  0.00    -0.248 NA
ATOM     11  C   UNL     1      34.240 -15.672 -23.005  0.00  0.00    +0.067 C 
ATOM     12  C   UNL     1      33.616 -15.087 -24.095  0.00  0.00    +0.064 C 
ATOM     13  C   UNL     1      34.219 -14.985 -21.796  0.00  0.00    +0.007 C 
ATOM     14  C   UNL     1      33.607 -15.777 -25.420  0.00  0.00    +0.052 C 
ATOM     15  C   UNL     1      33.582 -13.752 -21.715  0.00  0.00    +0.021 C 
ATOM     16  C   UNL     1      32.988 -13.252 -22.862  0.00  0.00    +0.098 C 
ENDBRANCH   9  11
BRANCH   2  17
ATOM     17  S   UNL     1      33.189 -21.461 -19.660  0.00  0.00    +0.063 S 
ATOM     18  O   UNL     1      33.085 -22.532 -20.627  0.00  0.00    -0.153 OA
ATOM     19  O   UNL     1      32.040 -21.040 -18.887  0.00  0.00    -0.153 OA
BRANCH  17  20
ATOM     20  C   UNL     1      34.480 -21.878 -18.529  0.00  0.00    +0.122 C 
ATOM     21  C   UNL     1      35.792 -21.486 -18.795  0.00  0.00    +0.020 C 
ATOM     22  C   UNL     1      34.188 -22.602 -17.374  0.00  0.00    +0.020 C 
ATOM     23  C   UNL     1      36.812 -21.818 -17.904  0.00  0.00    +0.005 C 
ATOM     24  C   UNL     1      35.208 -22.934 -16.482  0.00  0.00    +0.005 C 
ATOM     25  C   UNL     1      36.521 -22.541 -16.747  0.00  0.00    +0.072 C 
BRANCH  25  29
ATOM     26  F   UNL     1      37.576 -24.209 -15.422  0.00  0.00    -0.166 F 
ATOM     27  F   UNL     1      38.865 -22.691 -16.296  0.00  0.00    -0.166 F 
ATOM     28  F   UNL     1      37.573 -22.183 -14.630  0.00  0.00    -0.166 F 
ATOM     29  C   UNL     1      37.612 -22.896 -15.794  0.00  0.00    +0.419 C 
ENDBRANCH  25  29
ENDBRANCH  17  20
ENDBRANCH   2  17
TORSDOF 4
ENDMDL
MODEL 8
REMARK VINA RESULT:      -7.6      6.387     10.189
REMARK  Name = 44595848
REMARK  4 active torsions:
REMARK  status: ('A' for Active; 'I' for Inactive)
REMARK    1  A    between atoms: N_2  and  S_17
REMARK    2  A    between atoms: C_9  and  C_11
REMARK    3  A    between atoms: S_17  and  C_20
REMARK    4  A    between atoms: C_25  and  C_29
REMARK                            x       y       z     vdW  Elec       q    Type
REMARK                         _______ _______ _______ _____ _____    ______ ____
ROOT
ATOM      1  O   UNL     1      36.772 -20.305 -20.976  0.00  0.00    -0.270 OA
ATOM      2  N   UNL     1      33.958 -16.189 -21.483  0.00  0.00    -0.152 NA
ATOM      3  N   UNL     1      34.953 -18.834 -21.087  0.00  0.00    -0.275 N 
ATOM      4  C   UNL     1      35.615 -17.940 -22.054  0.00  0.00    +0.093 C 
ATOM      5  C   UNL     1      35.409 -16.465 -21.692  0.00  0.00    +0.116 C 
ATOM      6  C   UNL     1      33.409 -17.022 -20.378  0.00  0.00    +0.117 C 
ATOM      7  C   UNL     1      33.566 -18.497 -20.729  0.00  0.00    +0.113 C 
ATOM      8  C   UNL     1      35.154 -18.251 -23.481  0.00  0.00    +0.023 C 
ATOM      9  C   UNL     1      35.614 -20.004 -20.689  0.00  0.00    +0.250 C 
ENDROOT
BRANCH   9  11
ATOM     10  N   UNL     1      34.846 -22.605 -18.084  0.00  0.00    -0.248 NA
ATOM     11  C   UNL     1      34.879 -20.974 -19.868  0.00  0.00    +0.067 C 
ATOM     12  C   UNL     1      35.488 -21.704 -18.860  0.00  0.00    +0.064 C 
ATOM     13  C   UNL     1      33.522 -21.183 -20.094  0.00  0.00    +0.007 C 
ATOM     14  C   UNL     1      36.943 -21.523 -18.572  0.00  0.00    +0.052 C 
ATOM     15  C   UNL     1      32.827 -22.101 -19.315  0.00  0.00    +0.021 C 
ATOM     16  C   UNL     1      33.528 -22.781 -18.333  0.00  0.00    +0.098 C 
ENDBRANCH   9  11
BRANCH   2  17
ATOM     17  S   UNL     1      33.523 -14.533 -21.442  0.00  0.00    +0.063 S 
ATOM     18  O   UNL     1      34.602 -13.774 -20.849  0.00  0.00    -0.153 OA
ATOM     19  O   UNL     1      32.167 -14.415 -20.948  0.00  0.00    -0.153 OA
BRANCH  17  20
ATOM     20  C   UNL     1      33.501 -14.178 -23.172  0.00  0.00    +0.122 C 
ATOM     21  C   UNL     1      33.622 -12.861 -23.615  0.00  0.00    +0.020 C 
ATOM     22  C   UNL     1      33.359 -15.214 -24.095  0.00  0.00    +0.020 C 
ATOM     23  C   UNL     1      33.601 -12.580 -24.981  0.00  0.00    +0.005 C 
ATOM     24  C   UNL     1      33.339 -14.933 -25.461  0.00  0.00    +0.005 C 
ATOM     25  C   UNL     1      33.461 -13.616 -25.904  0.00  0.00    +0.072 C 
BRANCH  25  29
ATOM     26  F   UNL     1      33.421 -14.445 -28.132  0.00  0.00    -0.166 F 
ATOM     27  F   UNL     1      32.353 -12.588 -27.758  0.00  0.00    -0.166 F 
ATOM     28  F   UNL     1      34.521 -12.599 -27.792  0.00  0.00    -0.166 F 
ATOM     29  C   UNL     1      33.439 -13.315 -27.365  0.00  0.00    +0.419 C 
ENDBRANCH  25  29
ENDBRANCH  17  20
ENDBRANCH   2  17
TORSDOF 4
ENDMDL
MODEL 9
REMARK VINA RESULT:      -7.5      7.391     11.437
REMARK  Name = 44595848
REMARK  4 active torsions:
REMARK  status: ('A' for Active; 'I' for Inactive)
REMARK    1  A    between atoms: N_2  and  S_17
REMARK    2  A    between atoms: C_9  and  C_11
REMARK    3  A    between atoms: S_17  and  C_20
REMARK    4  A    between atoms: C_25  and  C_29
REMARK                            x       y       z     vdW  Elec       q    Type
REMARK                         _______ _______ _______ _____ _____    ______ ____
ROOT
ATOM      1  O   UNL     1      32.449 -17.146 -20.365  0.00  0.00    -0.270 OA
ATOM      2  N   UNL     1      33.715 -14.173 -24.196  0.00  0.00    -0.152 NA
ATOM      3  N   UNL     1      33.659 -16.033 -22.033  0.00  0.00    -0.275 N 
ATOM      4  C   UNL     1      32.796 -14.839 -21.994  0.00  0.00    +0.093 C 
ATOM      5  C   UNL     1      32.462 -14.338 -23.403  0.00  0.00    +0.116 C 
ATOM      6  C   UNL     1      34.443 -15.466 -24.321  0.00  0.00    +0.117 C 
ATOM      7  C   UNL     1      34.822 -15.970 -22.933  0.00  0.00    +0.113 C 
ATOM      8  C   UNL     1      33.427 -13.744 -21.129  0.00  0.00    +0.023 C 
ATOM      9  C   UNL     1      33.414 -17.073 -21.125  0.00  0.00    +0.250 C 
ENDROOT
BRANCH   9  11
ATOM     10  N   UNL     1      34.851 -20.534 -20.820  0.00  0.00    -0.248 NA
ATOM     11  C   UNL     1      34.382 -18.174 -21.050  0.00  0.00    +0.067 C 
ATOM     12  C   UNL     1      33.991 -19.494 -20.894  0.00  0.00    +0.064 C 
ATOM     13  C   UNL     1      35.744 -17.904 -21.135  0.00  0.00    +0.007 C 
ATOM     14  C   UNL     1      32.542 -19.845 -20.796  0.00  0.00    +0.052 C 
ATOM     15  C   UNL     1      36.659 -18.948 -21.063  0.00  0.00    +0.021 C 
ATOM     16  C   UNL     1      36.167 -20.233 -20.906  0.00  0.00    +0.098 C 
ENDBRANCH   9  11
BRANCH   2  17
ATOM     17  S   UNL     1      33.554 -13.276 -25.646  0.00  0.00    +0.063 S 
ATOM     18  O   UNL     1      32.185 -13.360 -26.106  0.00  0.00    -0.153 OA
ATOM     19  O   UNL     1      34.658 -13.602 -26.525  0.00  0.00    -0.153 OA
BRANCH  17  20
ATOM     20  C   UNL     1      33.817 -11.643 -25.028  0.00  0.00    +0.122 C 
ATOM     21  C   UNL     1      32.976 -11.128 -24.042  0.00  0.00    +0.020 C 
ATOM     22  C   UNL     1      34.862 -10.867 -25.528  0.00  0.00    +0.020 C 
ATOM     23  C   UNL     1      33.181  -9.837 -23.556  0.00  0.00    +0.005 C 
ATOM     24  C   UNL     1      35.068  -9.576 -25.043  0.00  0.00    +0.005 C 
ATOM     25  C   UNL     1      34.227  -9.061 -24.055  0.00  0.00    +0.072 C 
BRANCH  25  29
ATOM     26  F   UNL     1      33.803  -7.457 -22.353  0.00  0.00    -0.166 F 
ATOM     27  F   UNL     1      35.759  -7.387 -23.298  0.00  0.00    -0.166 F 
ATOM     28  F   UNL     1      34.011  -6.702 -24.382  0.00  0.00    -0.166 F 
ATOM     29  C   UNL     1      34.447  -7.681 -23.535  0.00  0.00    +0.419 C 
ENDBRANCH  25  29
ENDBRANCH  17  20
ENDBRANCH   2  17
TORSDOF 4
ENDMDL
