MODEL 1
REMARK VINA RESULT:      -9.5      0.000      0.000
REMARK  Name = 72014
REMARK  13 active torsions:
REMARK  status: ('A' for Active; 'I' for Inactive)
REMARK    1  A    between atoms: N_1  and  C_4
REMARK    2  A    between atoms: N_1  and  C_18
REMARK    3  A    between atoms: C_4  and  C_5
REMARK    4  A    between atoms: C_5  and  O_6
REMARK    5  A    between atoms: C_5  and  C_8
REMARK    6  A    between atoms: C_8  and  O_9
REMARK    7  A    between atoms: O_9  and  C_10
REMARK    8  A    between atoms: C_11  and  C_17
REMARK    9  A    between atoms: C_18  and  C_19
REMARK   10  A    between atoms: C_19  and  N_21
REMARK   11  A    between atoms: C_22  and  C_24
REMARK   12  A    between atoms: C_24  and  C_25
REMARK   13  A    between atoms: C_30  and  O_31
REMARK                            x       y       z     vdW  Elec       q    Type
REMARK                         _______ _______ _______ _____ _____    ______ ____
ROOT
ATOM      1  N   UNL     1      32.003 -13.196 -22.152  0.00  0.00    +0.387 N 
ATOM      2  H   UNL     1      32.485 -12.695 -22.898  0.00  0.00    -0.084 HD
ATOM      3  H   UNL     1      30.998 -13.218 -22.327  0.00  0.00    -0.084 HD
ENDROOT
BRANCH   1   4
ATOM      4  C   UNL     1      32.240 -12.513 -20.888  0.00  0.00    -0.048 C 
BRANCH   4   5
ATOM      5  C   UNL     1      31.151 -11.481 -20.580  0.00  0.00    +0.133 C 
BRANCH   5   6
ATOM      6  O   UNL     1      31.172 -11.217 -19.174  0.00  0.00    -0.383 OA
ATOM      7  H   UNL     1      30.860 -10.314 -19.010  0.00  0.00    +0.210 HD
ENDBRANCH   5   6
BRANCH   5   8
ATOM      8  C   UNL     1      31.339 -10.162 -21.326  0.00  0.00    +0.232 C 
BRANCH   8   9
ATOM      9  O   UNL     1      31.922 -10.431 -22.597  0.00  0.00    -0.472 OA
BRANCH   9  10
ATOM     10  C   UNL     1      32.914  -9.583 -23.010  0.00  0.00    +0.148 C 
ATOM     11  C   UNL     1      33.875  -9.990 -23.936  0.00  0.00    +0.102 C 
ATOM     12  C   UNL     1      32.951  -8.289 -22.489  0.00  0.00    +0.038 C 
ATOM     13  C   UNL     1      34.875  -9.104 -24.339  0.00  0.00    +0.013 C 
ATOM     14  C   UNL     1      33.951  -7.403 -22.894  0.00  0.00    +0.003 C 
ATOM     15  C   UNL     1      34.912  -7.811 -23.818  0.00  0.00    +0.001 C 
BRANCH  11  17
ATOM     16  N   UNL     1      33.837 -12.384 -24.925  0.00  0.00    -0.191 NA
ATOM     17  C   UNL     1      33.854 -11.313 -24.483  0.00  0.00    +0.103 C 
ENDBRANCH  11  17
ENDBRANCH   9  10
ENDBRANCH   8   9
ENDBRANCH   5   8
ENDBRANCH   4   5
ENDBRANCH   1   4
BRANCH   1  18
ATOM     18  C   UNL     1      32.496 -14.567 -22.102  0.00  0.00    -0.060 C 
BRANCH  18  19
ATOM     19  C   UNL     1      34.016 -14.584 -22.183  0.00  0.00    +0.066 C 
BRANCH  19  21
ATOM     20  O   UNL     1      35.061 -16.341 -20.157  0.00  0.00    -0.275 OA
ATOM     21  N   UNL     1      34.511 -15.920 -22.374  0.00  0.00    -0.306 N 
ATOM     22  C   UNL     1      35.000 -16.699 -21.330  0.00  0.00    +0.227 C 
ATOM     23  H   UNL     1      34.505 -16.300 -23.282  0.00  0.00    +0.149 HD
BRANCH  22  24
ATOM     24  C   UNL     1      35.450 -18.065 -21.812  0.00  0.00    +0.111 C 
BRANCH  24  25
ATOM     25  C   UNL     1      34.799 -19.204 -21.073  0.00  0.00    -0.013 C 
ATOM     26  C   UNL     1      35.587 -20.174 -20.452  0.00  0.00    -0.001 C 
ATOM     27  C   UNL     1      33.408 -19.289 -21.010  0.00  0.00    -0.001 C 
ATOM     28  C   UNL     1      34.984 -21.230 -19.769  0.00  0.00    +0.036 C 
ATOM     29  C   UNL     1      32.805 -20.346 -20.326  0.00  0.00    +0.036 C 
ATOM     30  C   UNL     1      33.593 -21.315 -19.706  0.00  0.00    +0.134 C 
BRANCH  30  31
ATOM     31  O   UNL     1      33.004 -22.346 -19.038  0.00  0.00    -0.506 OA
ATOM     32  H   UNL     1      33.259 -22.539 -18.158  0.00  0.00    +0.292 HD
ENDBRANCH  30  31
ENDBRANCH  24  25
ENDBRANCH  22  24
ENDBRANCH  19  21
ENDBRANCH  18  19
ENDBRANCH   1  18
TORSDOF 13
ENDMDL
MODEL 2
REMARK VINA RESULT:      -9.4      1.635      2.966
REMARK  Name = 72014
REMARK  13 active torsions:
REMARK  status: ('A' for Active; 'I' for Inactive)
REMARK    1  A    between atoms: N_1  and  C_4
REMARK    2  A    between atoms: N_1  and  C_18
REMARK    3  A    between atoms: C_4  and  C_5
REMARK    4  A    between atoms: C_5  and  O_6
REMARK    5  A    between atoms: C_5  and  C_8
REMARK    6  A    between atoms: C_8  and  O_9
REMARK    7  A    between atoms: O_9  and  C_10
REMARK    8  A    between atoms: C_11  and  C_17
REMARK    9  A    between atoms: C_18  and  C_19
REMARK   10  A    between atoms: C_19  and  N_21
REMARK   11  A    between atoms: C_22  and  C_24
REMARK   12  A    between atoms: C_24  and  C_25
REMARK   13  A    between atoms: C_30  and  O_31
REMARK                            x       y       z     vdW  Elec       q    Type
REMARK                         _______ _______ _______ _____ _____    ______ ____
ROOT
ATOM      1  N   UNL     1      32.606 -12.858 -23.079  0.00  0.00    +0.387 N 
ATOM      2  H   UNL     1      31.650 -12.745 -23.414  0.00  0.00    -0.084 HD
ATOM      3  H   UNL     1      32.796 -12.208 -22.316  0.00  0.00    -0.084 HD
ENDROOT
BRANCH   1   4
ATOM      4  C   UNL     1      33.530 -12.576 -24.170  0.00  0.00    -0.048 C 
BRANCH   4   5
ATOM      5  C   UNL     1      34.138 -11.175 -24.059  0.00  0.00    +0.133 C 
BRANCH   5   6
ATOM      6  O   UNL     1      34.972 -10.959 -25.201  0.00  0.00    -0.383 OA
ATOM      7  H   UNL     1      35.621 -10.267 -25.002  0.00  0.00    +0.210 HD
ENDBRANCH   5   6
BRANCH   5   8
ATOM      8  C   UNL     1      33.091 -10.064 -24.005  0.00  0.00    +0.232 C 
BRANCH   8   9
ATOM      9  O   UNL     1      32.856  -9.720 -22.643  0.00  0.00    -0.472 OA
BRANCH   9  10
ATOM     10  C   UNL     1      32.536  -8.414 -22.384  0.00  0.00    +0.148 C 
ATOM     11  C   UNL     1      32.232  -7.986 -21.092  0.00  0.00    +0.102 C 
ATOM     12  C   UNL     1      32.519  -7.505 -23.442  0.00  0.00    +0.038 C 
ATOM     13  C   UNL     1      31.909  -6.649 -20.858  0.00  0.00    +0.013 C 
ATOM     14  C   UNL     1      32.196  -6.168 -23.208  0.00  0.00    +0.003 C 
ATOM     15  C   UNL     1      31.892  -5.740 -21.916  0.00  0.00    +0.001 C 
BRANCH  11  17
ATOM     16  N   UNL     1      32.256  -9.644 -19.101  0.00  0.00    -0.191 NA
ATOM     17  C   UNL     1      32.245  -8.902 -19.993  0.00  0.00    +0.103 C 
ENDBRANCH  11  17
ENDBRANCH   9  10
ENDBRANCH   8   9
ENDBRANCH   5   8
ENDBRANCH   4   5
ENDBRANCH   1   4
BRANCH   1  18
ATOM     18  C   UNL     1      32.783 -14.218 -22.586  0.00  0.00    -0.060 C 
BRANCH  18  19
ATOM     19  C   UNL     1      34.227 -14.442 -22.163  0.00  0.00    +0.066 C 
BRANCH  19  21
ATOM     20  O   UNL     1      35.116 -16.350 -20.201  0.00  0.00    -0.275 OA
ATOM     21  N   UNL     1      34.635 -15.800 -22.405  0.00  0.00    -0.306 N 
ATOM     22  C   UNL     1      35.052 -16.653 -21.389  0.00  0.00    +0.227 C 
ATOM     23  H   UNL     1      34.619 -16.139 -23.329  0.00  0.00    +0.149 HD
BRANCH  22  24
ATOM     24  C   UNL     1      35.418 -18.025 -21.923  0.00  0.00    +0.111 C 
BRANCH  24  25
ATOM     25  C   UNL     1      34.782 -19.154 -21.157  0.00  0.00    -0.013 C 
ATOM     26  C   UNL     1      35.582 -20.109 -20.529  0.00  0.00    -0.001 C 
ATOM     27  C   UNL     1      33.392 -19.246 -21.077  0.00  0.00    -0.001 C 
ATOM     28  C   UNL     1      34.992 -21.156 -19.821  0.00  0.00    +0.036 C 
ATOM     29  C   UNL     1      32.802 -20.293 -20.368  0.00  0.00    +0.036 C 
ATOM     30  C   UNL     1      33.602 -21.248 -19.741  0.00  0.00    +0.134 C 
BRANCH  30  31
ATOM     31  O   UNL     1      33.026 -22.270 -19.049  0.00  0.00    -0.506 OA
ATOM     32  H   UNL     1      33.000 -22.244 -18.113  0.00  0.00    +0.292 HD
ENDBRANCH  30  31
ENDBRANCH  24  25
ENDBRANCH  22  24
ENDBRANCH  19  21
ENDBRANCH  18  19
ENDBRANCH   1  18
TORSDOF 13
ENDMDL
MODEL 3
REMARK VINA RESULT:      -9.3      2.104      3.389
REMARK  Name = 72014
REMARK  13 active torsions:
REMARK  status: ('A' for Active; 'I' for Inactive)
REMARK    1  A    between atoms: N_1  and  C_4
REMARK    2  A    between atoms: N_1  and  C_18
REMARK    3  A    between atoms: C_4  and  C_5
REMARK    4  A    between atoms: C_5  and  O_6
REMARK    5  A    between atoms: C_5  and  C_8
REMARK    6  A    between atoms: C_8  and  O_9
REMARK    7  A    between atoms: O_9  and  C_10
REMARK    8  A    between atoms: C_11  and  C_17
REMARK    9  A    between atoms: C_18  and  C_19
REMARK   10  A    between atoms: C_19  and  N_21
REMARK   11  A    between atoms: C_22  and  C_24
REMARK   12  A    between atoms: C_24  and  C_25
REMARK   13  A    between atoms: C_30  and  O_31
REMARK                            x       y       z     vdW  Elec       q    Type
REMARK                         _______ _______ _______ _____ _____    ______ ____
ROOT
ATOM      1  N   UNL     1      33.716 -15.048 -24.293  0.00  0.00    +0.387 N 
ATOM      2  H   UNL     1      33.293 -15.444 -23.454  0.00  0.00    -0.084 HD
ATOM      3  H   UNL     1      34.685 -14.784 -24.115  0.00  0.00    -0.084 HD
ENDROOT
BRANCH   1   4
ATOM      4  C   UNL     1      32.974 -13.856 -24.684  0.00  0.00    -0.048 C 
BRANCH   4   5
ATOM      5  C   UNL     1      33.670 -13.092 -25.814  0.00  0.00    +0.133 C 
BRANCH   5   6
ATOM      6  O   UNL     1      32.873 -13.218 -26.994  0.00  0.00    -0.383 OA
ATOM      7  H   UNL     1      31.938 -13.094 -26.769  0.00  0.00    +0.210 HD
ENDBRANCH   5   6
BRANCH   5   8
ATOM      8  C   UNL     1      33.862 -11.607 -25.512  0.00  0.00    +0.232 C 
BRANCH   8   9
ATOM      9  O   UNL     1      33.574 -11.377 -24.136  0.00  0.00    -0.472 OA
BRANCH   9  10
ATOM     10  C   UNL     1      33.653 -10.082 -23.699  0.00  0.00    +0.148 C 
ATOM     11  C   UNL     1      32.719  -9.562 -22.803  0.00  0.00    +0.102 C 
ATOM     12  C   UNL     1      34.694  -9.279 -24.167  0.00  0.00    +0.038 C 
ATOM     13  C   UNL     1      32.826  -8.238 -22.375  0.00  0.00    +0.013 C 
ATOM     14  C   UNL     1      34.801  -7.955 -23.738  0.00  0.00    +0.003 C 
ATOM     15  C   UNL     1      33.866  -7.435 -22.843  0.00  0.00    +0.001 C 
BRANCH  11  17
ATOM     16  N   UNL     1      30.773 -11.022 -21.914  0.00  0.00    -0.191 NA
ATOM     17  C   UNL     1      31.645 -10.369 -22.312  0.00  0.00    +0.103 C 
ENDBRANCH  11  17
ENDBRANCH   9  10
ENDBRANCH   8   9
ENDBRANCH   5   8
ENDBRANCH   4   5
ENDBRANCH   1   4
BRANCH   1  18
ATOM     18  C   UNL     1      33.693 -16.046 -25.355  0.00  0.00    -0.060 C 
BRANCH  18  19
ATOM     19  C   UNL     1      34.934 -16.924 -25.281  0.00  0.00    +0.066 C 
BRANCH  19  21
ATOM     20  O   UNL     1      35.057 -19.519 -24.045  0.00  0.00    -0.275 OA
ATOM     21  N   UNL     1      35.287 -17.212 -23.917  0.00  0.00    -0.306 N 
ATOM     22  C   UNL     1      35.320 -18.505 -23.405  0.00  0.00    +0.227 C 
ATOM     23  H   UNL     1      35.515 -16.463 -23.321  0.00  0.00    +0.149 HD
BRANCH  22  24
ATOM     24  C   UNL     1      35.729 -18.519 -21.944  0.00  0.00    +0.111 C 
BRANCH  24  25
ATOM     25  C   UNL     1      34.950 -19.505 -21.115  0.00  0.00    -0.013 C 
ATOM     26  C   UNL     1      33.562 -19.395 -21.021  0.00  0.00    -0.001 C 
ATOM     27  C   UNL     1      35.616 -20.528 -20.440  0.00  0.00    -0.001 C 
ATOM     28  C   UNL     1      32.841 -20.307 -20.251  0.00  0.00    +0.036 C 
ATOM     29  C   UNL     1      34.894 -21.441 -19.670  0.00  0.00    +0.036 C 
ATOM     30  C   UNL     1      33.507 -21.330 -19.576  0.00  0.00    +0.134 C 
BRANCH  30  31
ATOM     31  O   UNL     1      32.803 -22.221 -18.825  0.00  0.00    -0.506 OA
ATOM     32  H   UNL     1      32.862 -23.138 -19.009  0.00  0.00    +0.292 HD
ENDBRANCH  30  31
ENDBRANCH  24  25
ENDBRANCH  22  24
ENDBRANCH  19  21
ENDBRANCH  18  19
ENDBRANCH   1  18
TORSDOF 13
ENDMDL
MODEL 4
REMARK VINA RESULT:      -9.3      1.862      2.275
REMARK  Name = 72014
REMARK  13 active torsions:
REMARK  status: ('A' for Active; 'I' for Inactive)
REMARK    1  A    between atoms: N_1  and  C_4
REMARK    2  A    between atoms: N_1  and  C_18
REMARK    3  A    between atoms: C_4  and  C_5
REMARK    4  A    between atoms: C_5  and  O_6
REMARK    5  A    between atoms: C_5  and  C_8
REMARK    6  A    between atoms: C_8  and  O_9
REMARK    7  A    between atoms: O_9  and  C_10
REMARK    8  A    between atoms: C_11  and  C_17
REMARK    9  A    between atoms: C_18  and  C_19
REMARK   10  A    between atoms: C_19  and  N_21
REMARK   11  A    between atoms: C_22  and  C_24
REMARK   12  A    between atoms: C_24  and  C_25
REMARK   13  A    between atoms: C_30  and  O_31
REMARK                            x       y       z     vdW  Elec       q    Type
REMARK                         _______ _______ _______ _____ _____    ______ ____
ROOT
ATOM      1  N   UNL     1      33.626 -15.137 -23.846  0.00  0.00    +0.387 N 
ATOM      2  H   UNL     1      32.908 -15.713 -23.409  0.00  0.00    -0.084 HD
ATOM      3  H   UNL     1      34.502 -15.201 -23.325  0.00  0.00    -0.084 HD
ENDROOT
BRANCH   1   4
ATOM      4  C   UNL     1      33.188 -13.748 -23.848  0.00  0.00    -0.048 C 
BRANCH   4   5
ATOM      5  C   UNL     1      32.284 -13.429 -22.655  0.00  0.00    +0.133 C 
BRANCH   5   6
ATOM      6  O   UNL     1      32.849 -14.039 -21.491  0.00  0.00    -0.383 OA
ATOM      7  H   UNL     1      32.623 -14.982 -21.477  0.00  0.00    +0.210 HD
ENDBRANCH   5   6
BRANCH   5   8
ATOM      8  C   UNL     1      32.132 -11.932 -22.393  0.00  0.00    +0.232 C 
BRANCH   8   9
ATOM      9  O   UNL     1      32.857 -11.216 -23.388  0.00  0.00    -0.472 OA
BRANCH   9  10
ATOM     10  C   UNL     1      33.090  -9.889 -23.143  0.00  0.00    +0.148 C 
ATOM     11  C   UNL     1      34.094  -9.194 -23.819  0.00  0.00    +0.102 C 
ATOM     12  C   UNL     1      32.301  -9.232 -22.199  0.00  0.00    +0.038 C 
ATOM     13  C   UNL     1      34.309  -7.842 -23.548  0.00  0.00    +0.013 C 
ATOM     14  C   UNL     1      32.516  -7.879 -21.930  0.00  0.00    +0.003 C 
ATOM     15  C   UNL     1      33.520  -7.185 -22.604  0.00  0.00    +0.001 C 
BRANCH  11  17
ATOM     16  N   UNL     1      35.578 -10.381 -25.579  0.00  0.00    -0.191 NA
ATOM     17  C   UNL     1      34.914  -9.849 -24.791  0.00  0.00    +0.103 C 
ENDBRANCH  11  17
ENDBRANCH   9  10
ENDBRANCH   8   9
ENDBRANCH   5   8
ENDBRANCH   4   5
ENDBRANCH   1   4
BRANCH   1  18
ATOM     18  C   UNL     1      33.858 -15.611 -25.204  0.00  0.00    -0.060 C 
BRANCH  18  19
ATOM     19  C   UNL     1      34.809 -16.799 -25.194  0.00  0.00    +0.066 C 
BRANCH  19  21
ATOM     20  O   UNL     1      34.979 -19.434 -24.048  0.00  0.00    -0.275 OA
ATOM     21  N   UNL     1      35.212 -17.132 -23.854  0.00  0.00    -0.306 N 
ATOM     22  C   UNL     1      35.264 -18.440 -23.386  0.00  0.00    +0.227 C 
ATOM     23  H   UNL     1      35.461 -16.402 -23.242  0.00  0.00    +0.149 HD
BRANCH  22  24
ATOM     24  C   UNL     1      35.727 -18.502 -21.942  0.00  0.00    +0.111 C 
BRANCH  24  25
ATOM     25  C   UNL     1      34.960 -19.495 -21.111  0.00  0.00    -0.013 C 
ATOM     26  C   UNL     1      35.638 -20.503 -20.425  0.00  0.00    -0.001 C 
ATOM     27  C   UNL     1      33.570 -19.409 -21.028  0.00  0.00    -0.001 C 
ATOM     28  C   UNL     1      34.927 -21.425 -19.657  0.00  0.00    +0.036 C 
ATOM     29  C   UNL     1      32.859 -20.331 -20.259  0.00  0.00    +0.036 C 
ATOM     30  C   UNL     1      33.538 -21.338 -19.574  0.00  0.00    +0.134 C 
BRANCH  30  31
ATOM     31  O   UNL     1      32.843 -22.237 -18.823  0.00  0.00    -0.506 OA
ATOM     32  H   UNL     1      32.144 -22.728 -19.209  0.00  0.00    +0.292 HD
ENDBRANCH  30  31
ENDBRANCH  24  25
ENDBRANCH  22  24
ENDBRANCH  19  21
ENDBRANCH  18  19
ENDBRANCH   1  18
TORSDOF 13
ENDMDL
MODEL 5
REMARK VINA RESULT:      -9.2      8.872     11.997
REMARK  Name = 72014
REMARK  13 active torsions:
REMARK  status: ('A' for Active; 'I' for Inactive)
REMARK    1  A    between atoms: N_1  and  C_4
REMARK    2  A    between atoms: N_1  and  C_18
REMARK    3  A    between atoms: C_4  and  C_5
REMARK    4  A    between atoms: C_5  and  O_6
REMARK    5  A    between atoms: C_5  and  C_8
REMARK    6  A    between atoms: C_8  and  O_9
REMARK    7  A    between atoms: O_9  and  C_10
REMARK    8  A    between atoms: C_11  and  C_17
REMARK    9  A    between atoms: C_18  and  C_19
REMARK   10  A    between atoms: C_19  and  N_21
REMARK   11  A    between atoms: C_22  and  C_24
REMARK   12  A    between atoms: C_24  and  C_25
REMARK   13  A    between atoms: C_30  and  O_31
REMARK                            x       y       z     vdW  Elec       q    Type
REMARK                         _______ _______ _______ _____ _____    ______ ____
ROOT
ATOM      1  N   UNL     1      35.154 -23.812 -15.008  0.00  0.00    +0.387 N 
ATOM      2  H   UNL     1      34.485 -24.206 -15.668  0.00  0.00    -0.084 HD
ATOM      3  H   UNL     1      35.080 -22.794 -14.989  0.00  0.00    -0.084 HD
ENDROOT
BRANCH   1   4
ATOM      4  C   UNL     1      36.503 -24.171 -15.426  0.00  0.00    -0.048 C 
BRANCH   4   5
ATOM      5  C   UNL     1      37.398 -22.941 -15.596  0.00  0.00    +0.133 C 
BRANCH   5   6
ATOM      6  O   UNL     1      38.709 -23.389 -15.951  0.00  0.00    -0.383 OA
ATOM      7  H   UNL     1      38.951 -23.030 -16.819  0.00  0.00    +0.210 HD
ENDBRANCH   5   6
BRANCH   5   8
ATOM      8  C   UNL     1      36.905 -21.978 -16.674  0.00  0.00    +0.232 C 
BRANCH   8   9
ATOM      9  O   UNL     1      36.077 -22.694 -17.586  0.00  0.00    -0.472 OA
BRANCH   9  10
ATOM     10  C   UNL     1      35.449 -21.958 -18.555  0.00  0.00    +0.148 C 
ATOM     11  C   UNL     1      34.061 -21.980 -18.695  0.00  0.00    +0.102 C 
ATOM     12  C   UNL     1      36.224 -21.174 -19.410  0.00  0.00    +0.038 C 
ATOM     13  C   UNL     1      33.449 -21.220 -19.692  0.00  0.00    +0.013 C 
ATOM     14  C   UNL     1      35.612 -20.413 -20.407  0.00  0.00    +0.003 C 
ATOM     15  C   UNL     1      34.224 -20.437 -20.547  0.00  0.00    +0.001 C 
BRANCH  11  17
ATOM     16  N   UNL     1      32.590 -23.423 -17.125  0.00  0.00    -0.191 NA
ATOM     17  C   UNL     1      33.248 -22.777 -17.828  0.00  0.00    +0.103 C 
ENDBRANCH  11  17
ENDBRANCH   9  10
ENDBRANCH   8   9
ENDBRANCH   5   8
ENDBRANCH   4   5
ENDBRANCH   1   4
BRANCH   1  18
ATOM     18  C   UNL     1      34.869 -24.324 -13.674  0.00  0.00    -0.060 C 
BRANCH  18  19
ATOM     19  C   UNL     1      33.462 -23.932 -13.248  0.00  0.00    +0.066 C 
BRANCH  19  21
ATOM     20  O   UNL     1      30.772 -24.716 -12.590  0.00  0.00    -0.275 OA
ATOM     21  N   UNL     1      32.477 -24.469 -14.147  0.00  0.00    -0.306 N 
ATOM     22  C   UNL     1      31.195 -24.821 -13.738  0.00  0.00    +0.227 C 
ATOM     23  H   UNL     1      32.720 -24.593 -15.093  0.00  0.00    +0.149 HD
BRANCH  22  24
ATOM     24  C   UNL     1      30.364 -25.354 -14.890  0.00  0.00    +0.111 C 
BRANCH  24  25
ATOM     25  C   UNL     1      29.479 -24.311 -15.520  0.00  0.00    -0.013 C 
ATOM     26  C   UNL     1      28.721 -24.628 -16.648  0.00  0.00    -0.001 C 
ATOM     27  C   UNL     1      29.419 -23.028 -14.977  0.00  0.00    -0.001 C 
ATOM     28  C   UNL     1      27.904 -23.662 -17.233  0.00  0.00    +0.036 C 
ATOM     29  C   UNL     1      28.600 -22.061 -15.562  0.00  0.00    +0.036 C 
ATOM     30  C   UNL     1      27.843 -22.378 -16.689  0.00  0.00    +0.134 C 
BRANCH  30  31
ATOM     31  O   UNL     1      27.044 -21.434 -17.260  0.00  0.00    -0.506 OA
ATOM     32  H   UNL     1      26.343 -21.694 -17.825  0.00  0.00    +0.292 HD
ENDBRANCH  30  31
ENDBRANCH  24  25
ENDBRANCH  22  24
ENDBRANCH  19  21
ENDBRANCH  18  19
ENDBRANCH   1  18
TORSDOF 13
ENDMDL
MODEL 6
REMARK VINA RESULT:      -9.2      5.957     11.724
REMARK  Name = 72014
REMARK  13 active torsions:
REMARK  status: ('A' for Active; 'I' for Inactive)
REMARK    1  A    between atoms: N_1  and  C_4
REMARK    2  A    between atoms: N_1  and  C_18
REMARK    3  A    between atoms: C_4  and  C_5
REMARK    4  A    between atoms: C_5  and  O_6
REMARK    5  A    between atoms: C_5  and  C_8
REMARK    6  A    between atoms: C_8  and  O_9
REMARK    7  A    between atoms: O_9  and  C_10
REMARK    8  A    between atoms: C_11  and  C_17
REMARK    9  A    between atoms: C_18  and  C_19
REMARK   10  A    between atoms: C_19  and  N_21
REMARK   11  A    between atoms: C_22  and  C_24
REMARK   12  A    between atoms: C_24  and  C_25
REMARK   13  A    between atoms: C_30  and  O_31
REMARK                            x       y       z     vdW  Elec       q    Type
REMARK                         _______ _______ _______ _____ _____    ______ ____
ROOT
ATOM      1  N   UNL     1      36.465 -22.403 -16.851  0.00  0.00    +0.387 N 
ATOM      2  H   UNL     1      35.596 -22.166 -16.373  0.00  0.00    -0.084 HD
ATOM      3  H   UNL     1      36.333 -23.220 -17.448  0.00  0.00    -0.084 HD
ENDROOT
BRANCH   1   4
ATOM      4  C   UNL     1      37.485 -22.713 -15.858  0.00  0.00    -0.048 C 
BRANCH   4   5
ATOM      5  C   UNL     1      36.952 -23.629 -14.753  0.00  0.00    +0.133 C 
BRANCH   5   6
ATOM      6  O   UNL     1      37.774 -23.456 -13.595  0.00  0.00    -0.383 OA
ATOM      7  H   UNL     1      38.338 -24.236 -13.479  0.00  0.00    +0.210 HD
ENDBRANCH   5   6
BRANCH   5   8
ATOM      8  C   UNL     1      35.503 -23.335 -14.370  0.00  0.00    +0.232 C 
BRANCH   8   9
ATOM      9  O   UNL     1      34.641 -23.977 -15.304  0.00  0.00    -0.472 OA
BRANCH   9  10
ATOM     10  C   UNL     1      33.318 -23.626 -15.262  0.00  0.00    +0.148 C 
ATOM     11  C   UNL     1      32.618 -23.303 -16.424  0.00  0.00    +0.102 C 
ATOM     12  C   UNL     1      32.671 -23.597 -14.026  0.00  0.00    +0.038 C 
ATOM     13  C   UNL     1      31.270 -22.950 -16.351  0.00  0.00    +0.013 C 
ATOM     14  C   UNL     1      31.322 -23.244 -13.953  0.00  0.00    +0.003 C 
ATOM     15  C   UNL     1      30.623 -22.920 -15.116  0.00  0.00    +0.001 C 
BRANCH  11  17
ATOM     16  N   UNL     1      33.787 -23.346 -18.736  0.00  0.00    -0.191 NA
ATOM     17  C   UNL     1      33.263 -23.328 -17.701  0.00  0.00    +0.103 C 
ENDBRANCH  11  17
ENDBRANCH   9  10
ENDBRANCH   8   9
ENDBRANCH   5   8
ENDBRANCH   4   5
ENDBRANCH   1   4
BRANCH   1  18
ATOM     18  C   UNL     1      36.874 -21.280 -17.684  0.00  0.00    -0.060 C 
BRANCH  18  19
ATOM     19  C   UNL     1      36.666 -21.610 -19.154  0.00  0.00    +0.066 C 
BRANCH  19  21
ATOM     20  O   UNL     1      36.900 -19.268 -20.810  0.00  0.00    -0.275 OA
ATOM     21  N   UNL     1      35.589 -20.840 -19.714  0.00  0.00    -0.306 N 
ATOM     22  C   UNL     1      35.798 -19.716 -20.507  0.00  0.00    +0.227 C 
ATOM     23  H   UNL     1      34.663 -21.120 -19.527  0.00  0.00    +0.149 HD
BRANCH  22  24
ATOM     24  C   UNL     1      34.489 -19.102 -20.966  0.00  0.00    +0.111 C 
BRANCH  24  25
ATOM     25  C   UNL     1      34.587 -18.419 -22.304  0.00  0.00    -0.013 C 
ATOM     26  C   UNL     1      34.530 -19.171 -23.478  0.00  0.00    -0.001 C 
ATOM     27  C   UNL     1      34.736 -17.033 -22.370  0.00  0.00    -0.001 C 
ATOM     28  C   UNL     1      34.624 -18.538 -24.717  0.00  0.00    +0.036 C 
ATOM     29  C   UNL     1      34.829 -16.400 -23.610  0.00  0.00    +0.036 C 
ATOM     30  C   UNL     1      34.773 -17.153 -24.783  0.00  0.00    +0.134 C 
BRANCH  30  31
ATOM     31  O   UNL     1      34.863 -16.535 -25.993  0.00  0.00    -0.506 OA
ATOM     32  H   UNL     1      34.349 -16.840 -26.714  0.00  0.00    +0.292 HD
ENDBRANCH  30  31
ENDBRANCH  24  25
ENDBRANCH  22  24
ENDBRANCH  19  21
ENDBRANCH  18  19
ENDBRANCH   1  18
TORSDOF 13
ENDMDL
MODEL 7
REMARK VINA RESULT:      -9.1      7.503     10.853
REMARK  Name = 72014
REMARK  13 active torsions:
REMARK  status: ('A' for Active; 'I' for Inactive)
REMARK    1  A    between atoms: N_1  and  C_4
REMARK    2  A    between atoms: N_1  and  C_18
REMARK    3  A    between atoms: C_4  and  C_5
REMARK    4  A    between atoms: C_5  and  O_6
REMARK    5  A    between atoms: C_5  and  C_8
REMARK    6  A    between atoms: C_8  and  O_9
REMARK    7  A    between atoms: O_9  and  C_10
REMARK    8  A    between atoms: C_11  and  C_17
REMARK    9  A    between atoms: C_18  and  C_19
REMARK   10  A    between atoms: C_19  and  N_21
REMARK   11  A    between atoms: C_22  and  C_24
REMARK   12  A    between atoms: C_24  and  C_25
REMARK   13  A    between atoms: C_30  and  O_31
REMARK                            x       y       z     vdW  Elec       q    Type
REMARK                         _______ _______ _______ _____ _____    ______ ____
ROOT
ATOM      1  N   UNL     1      37.264 -23.220 -14.833  0.00  0.00    +0.387 N 
ATOM      2  H   UNL     1      38.280 -23.212 -14.748  0.00  0.00    -0.084 HD
ATOM      3  H   UNL     1      36.951 -24.068 -15.307  0.00  0.00    -0.084 HD
ENDROOT
BRANCH   1   4
ATOM      4  C   UNL     1      36.843 -22.067 -15.618  0.00  0.00    -0.048 C 
BRANCH   4   5
ATOM      5  C   UNL     1      36.565 -22.437 -17.078  0.00  0.00    +0.133 C 
BRANCH   5   6
ATOM      6  O   UNL     1      35.194 -22.829 -17.186  0.00  0.00    -0.383 OA
ATOM      7  H   UNL     1      34.645 -22.238 -16.648  0.00  0.00    +0.210 HD
ENDBRANCH   5   6
BRANCH   5   8
ATOM      8  C   UNL     1      36.821 -21.289 -18.052  0.00  0.00    +0.232 C 
BRANCH   8   9
ATOM      9  O   UNL     1      36.289 -21.640 -19.326  0.00  0.00    -0.472 OA
BRANCH   9  10
ATOM     10  C   UNL     1      35.719 -20.630 -20.054  0.00  0.00    +0.148 C 
ATOM     11  C   UNL     1      34.334 -20.526 -20.185  0.00  0.00    +0.102 C 
ATOM     12  C   UNL     1      36.550 -19.694 -20.669  0.00  0.00    +0.038 C 
ATOM     13  C   UNL     1      33.780 -19.487 -20.934  0.00  0.00    +0.013 C 
ATOM     14  C   UNL     1      35.996 -18.654 -21.417  0.00  0.00    +0.003 C 
ATOM     15  C   UNL     1      34.612 -18.551 -21.549  0.00  0.00    +0.001 C 
BRANCH  11  17
ATOM     16  N   UNL     1      32.759 -22.246 -19.057  0.00  0.00    -0.191 NA
ATOM     17  C   UNL     1      33.464 -21.476 -19.562  0.00  0.00    +0.103 C 
ENDBRANCH  11  17
ENDBRANCH   9  10
ENDBRANCH   8   9
ENDBRANCH   5   8
ENDBRANCH   4   5
ENDBRANCH   1   4
BRANCH   1  18
ATOM     18  C   UNL     1      36.673 -23.187 -13.502  0.00  0.00    -0.060 C 
BRANCH  18  19
ATOM     19  C   UNL     1      35.706 -24.348 -13.325  0.00  0.00    +0.066 C 
BRANCH  19  21
ATOM     20  O   UNL     1      33.612 -24.197 -15.294  0.00  0.00    -0.275 OA
ATOM     21  N   UNL     1      34.362 -23.879 -13.119  0.00  0.00    -0.306 N 
ATOM     22  C   UNL     1      33.413 -23.842 -14.135  0.00  0.00    +0.227 C 
ATOM     23  H   UNL     1      34.103 -23.571 -12.221  0.00  0.00    +0.149 HD
BRANCH  22  24
ATOM     24  C   UNL     1      32.081 -23.311 -13.640  0.00  0.00    +0.111 C 
BRANCH  24  25
ATOM     25  C   UNL     1      30.947 -23.553 -14.601  0.00  0.00    -0.013 C 
ATOM     26  C   UNL     1      30.722 -22.665 -15.653  0.00  0.00    -0.001 C 
ATOM     27  C   UNL     1      30.121 -24.665 -14.437  0.00  0.00    -0.001 C 
ATOM     28  C   UNL     1      29.671 -22.888 -16.541  0.00  0.00    +0.036 C 
ATOM     29  C   UNL     1      29.069 -24.888 -15.326  0.00  0.00    +0.036 C 
ATOM     30  C   UNL     1      28.844 -24.000 -16.378  0.00  0.00    +0.134 C 
BRANCH  30  31
ATOM     31  O   UNL     1      27.818 -24.219 -17.246  0.00  0.00    -0.506 OA
ATOM     32  H   UNL     1      27.075 -24.720 -16.974  0.00  0.00    +0.292 HD
ENDBRANCH  30  31
ENDBRANCH  24  25
ENDBRANCH  22  24
ENDBRANCH  19  21
ENDBRANCH  18  19
ENDBRANCH   1  18
TORSDOF 13
ENDMDL
MODEL 8
REMARK VINA RESULT:      -9.0      1.576      2.145
REMARK  Name = 72014
REMARK  13 active torsions:
REMARK  status: ('A' for Active; 'I' for Inactive)
REMARK    1  A    between atoms: N_1  and  C_4
REMARK    2  A    between atoms: N_1  and  C_18
REMARK    3  A    between atoms: C_4  and  C_5
REMARK    4  A    between atoms: C_5  and  O_6
REMARK    5  A    between atoms: C_5  and  C_8
REMARK    6  A    between atoms: C_8  and  O_9
REMARK    7  A    between atoms: O_9  and  C_10
REMARK    8  A    between atoms: C_11  and  C_17
REMARK    9  A    between atoms: C_18  and  C_19
REMARK   10  A    between atoms: C_19  and  N_21
REMARK   11  A    between atoms: C_22  and  C_24
REMARK   12  A    between atoms: C_24  and  C_25
REMARK   13  A    between atoms: C_30  and  O_31
REMARK                            x       y       z     vdW  Elec       q    Type
REMARK                         _______ _______ _______ _____ _____    ______ ____
ROOT
ATOM      1  N   UNL     1      32.337 -13.323 -22.022  0.00  0.00    +0.387 N 
ATOM      2  H   UNL     1      33.146 -12.868 -22.443  0.00  0.00    -0.084 HD
ATOM      3  H   UNL     1      31.512 -13.204 -22.611  0.00  0.00    -0.084 HD
ENDROOT
BRANCH   1   4
ATOM      4  C   UNL     1      32.071 -12.716 -20.724  0.00  0.00    -0.048 C 
BRANCH   4   5
ATOM      5  C   UNL     1      31.040 -11.587 -20.818  0.00  0.00    +0.133 C 
BRANCH   5   6
ATOM      6  O   UNL     1      31.382 -10.589 -19.853  0.00  0.00    -0.383 OA
ATOM      7  H   UNL     1      31.873  -9.874 -20.286  0.00  0.00    +0.210 HD
ENDBRANCH   5   6
BRANCH   5   8
ATOM      8  C   UNL     1      30.984 -10.932 -22.197  0.00  0.00    +0.232 C 
BRANCH   8   9
ATOM      9  O   UNL     1      31.383  -9.570 -22.075  0.00  0.00    -0.472 OA
BRANCH   9  10
ATOM     10  C   UNL     1      32.548  -9.212 -22.699  0.00  0.00    +0.148 C 
ATOM     11  C   UNL     1      33.122  -7.957 -22.495  0.00  0.00    +0.102 C 
ATOM     12  C   UNL     1      33.163 -10.130 -23.550  0.00  0.00    +0.038 C 
ATOM     13  C   UNL     1      34.310  -7.620 -23.144  0.00  0.00    +0.013 C 
ATOM     14  C   UNL     1      34.352  -9.793 -24.199  0.00  0.00    +0.003 C 
ATOM     15  C   UNL     1      34.925  -8.538 -23.996  0.00  0.00    +0.001 C 
BRANCH  11  17
ATOM     16  N   UNL     1      32.009  -6.227 -20.920  0.00  0.00    -0.191 NA
ATOM     17  C   UNL     1      32.507  -7.001 -21.625  0.00  0.00    +0.103 C 
ENDBRANCH  11  17
ENDBRANCH   9  10
ENDBRANCH   8   9
ENDBRANCH   5   8
ENDBRANCH   4   5
ENDBRANCH   1   4
BRANCH   1  18
ATOM     18  C   UNL     1      32.607 -14.748 -21.884  0.00  0.00    -0.060 C 
BRANCH  18  19
ATOM     19  C   UNL     1      34.083 -15.030 -22.123  0.00  0.00    +0.066 C 
BRANCH  19  21
ATOM     20  O   UNL     1      35.335 -16.985 -20.422  0.00  0.00    -0.275 OA
ATOM     21  N   UNL     1      34.305 -16.419 -22.424  0.00  0.00    -0.306 N 
ATOM     22  C   UNL     1      34.922 -17.294 -21.536  0.00  0.00    +0.227 C 
ATOM     23  H   UNL     1      34.008 -16.764 -23.297  0.00  0.00    +0.149 HD
BRANCH  22  24
ATOM     24  C   UNL     1      35.021 -18.696 -22.107  0.00  0.00    +0.111 C 
BRANCH  24  25
ATOM     25  C   UNL     1      34.871 -19.775 -21.069  0.00  0.00    -0.013 C 
ATOM     26  C   UNL     1      36.002 -20.389 -20.531  0.00  0.00    -0.001 C 
ATOM     27  C   UNL     1      33.599 -20.162 -20.645  0.00  0.00    -0.001 C 
ATOM     28  C   UNL     1      35.863 -21.391 -19.572  0.00  0.00    +0.036 C 
ATOM     29  C   UNL     1      33.460 -21.165 -19.684  0.00  0.00    +0.036 C 
ATOM     30  C   UNL     1      34.592 -21.778 -19.148  0.00  0.00    +0.134 C 
BRANCH  30  31
ATOM     31  O   UNL     1      34.455 -22.756 -18.209  0.00  0.00    -0.506 OA
ATOM     32  H   UNL     1      33.613 -22.934 -17.839  0.00  0.00    +0.292 HD
ENDBRANCH  30  31
ENDBRANCH  24  25
ENDBRANCH  22  24
ENDBRANCH  19  21
ENDBRANCH  18  19
ENDBRANCH   1  18
TORSDOF 13
ENDMDL
MODEL 9
REMARK VINA RESULT:      -8.9      5.879     12.742
REMARK  Name = 72014
REMARK  13 active torsions:
REMARK  status: ('A' for Active; 'I' for Inactive)
REMARK    1  A    between atoms: N_1  and  C_4
REMARK    2  A    between atoms: N_1  and  C_18
REMARK    3  A    between atoms: C_4  and  C_5
REMARK    4  A    between atoms: C_5  and  O_6
REMARK    5  A    between atoms: C_5  and  C_8
REMARK    6  A    between atoms: C_8  and  O_9
REMARK    7  A    between atoms: O_9  and  C_10
REMARK    8  A    between atoms: C_11  and  C_17
REMARK    9  A    between atoms: C_18  and  C_19
REMARK   10  A    between atoms: C_19  and  N_21
REMARK   11  A    between atoms: C_22  and  C_24
REMARK   12  A    between atoms: C_24  and  C_25
REMARK   13  A    between atoms: C_30  and  O_31
REMARK                            x       y       z     vdW  Elec       q    Type
REMARK                         _______ _______ _______ _____ _____    ______ ____
ROOT
ATOM      1  N   UNL     1      33.370 -23.664 -17.515  0.00  0.00    +0.387 N 
ATOM      2  H   UNL     1      32.847 -24.035 -18.307  0.00  0.00    -0.084 HD
ATOM      3  H   UNL     1      33.967 -24.385 -17.111  0.00  0.00    -0.084 HD
ENDROOT
BRANCH   1   4
ATOM      4  C   UNL     1      32.433 -23.211 -16.495  0.00  0.00    -0.048 C 
BRANCH   4   5
ATOM      5  C   UNL     1      33.113 -23.012 -15.138  0.00  0.00    +0.133 C 
BRANCH   5   6
ATOM      6  O   UNL     1      32.106 -22.686 -14.177  0.00  0.00    -0.383 OA
ATOM      7  H   UNL     1      32.422 -22.907 -13.288  0.00  0.00    +0.210 HD
ENDBRANCH   5   6
BRANCH   5   8
ATOM      8  C   UNL     1      33.867 -24.249 -14.652  0.00  0.00    +0.232 C 
BRANCH   8   9
ATOM      9  O   UNL     1      35.227 -24.150 -15.064  0.00  0.00    -0.472 OA
BRANCH   9  10
ATOM     10  C   UNL     1      36.178 -24.388 -14.109  0.00  0.00    +0.148 C 
ATOM     11  C   UNL     1      36.973 -25.533 -14.149  0.00  0.00    +0.102 C 
ATOM     12  C   UNL     1      36.345 -23.458 -13.082  0.00  0.00    +0.038 C 
ATOM     13  C   UNL     1      37.935 -25.750 -13.162  0.00  0.00    +0.013 C 
ATOM     14  C   UNL     1      37.308 -23.674 -12.095  0.00  0.00    +0.003 C 
ATOM     15  C   UNL     1      38.102 -24.820 -12.135  0.00  0.00    +0.001 C 
BRANCH  11  17
ATOM     16  N   UNL     1      36.692 -27.282 -16.040  0.00  0.00    -0.191 NA
ATOM     17  C   UNL     1      36.818 -26.499 -15.194  0.00  0.00    +0.103 C 
ENDBRANCH  11  17
ENDBRANCH   9  10
ENDBRANCH   8   9
ENDBRANCH   5   8
ENDBRANCH   4   5
ENDBRANCH   1   4
BRANCH   1  18
ATOM     18  C   UNL     1      34.212 -22.565 -17.971  0.00  0.00    -0.060 C 
BRANCH  18  19
ATOM     19  C   UNL     1      33.629 -21.941 -19.231  0.00  0.00    +0.066 C 
BRANCH  19  21
ATOM     20  O   UNL     1      33.057 -19.624 -20.838  0.00  0.00    -0.275 OA
ATOM     21  N   UNL     1      34.585 -21.085 -19.878  0.00  0.00    -0.306 N 
ATOM     22  C   UNL     1      34.215 -19.981 -20.639  0.00  0.00    +0.227 C 
ATOM     23  H   UNL     1      35.543 -21.288 -19.778  0.00  0.00    +0.149 HD
BRANCH  22  24
ATOM     24  C   UNL     1      35.423 -19.254 -21.199  0.00  0.00    +0.111 C 
BRANCH  24  25
ATOM     25  C   UNL     1      35.132 -18.504 -22.471  0.00  0.00    -0.013 C 
ATOM     26  C   UNL     1      34.804 -19.202 -23.634  0.00  0.00    -0.001 C 
ATOM     27  C   UNL     1      35.191 -17.110 -22.488  0.00  0.00    -0.001 C 
ATOM     28  C   UNL     1      34.537 -18.508 -24.813  0.00  0.00    +0.036 C 
ATOM     29  C   UNL     1      34.923 -16.415 -23.668  0.00  0.00    +0.036 C 
ATOM     30  C   UNL     1      34.596 -17.114 -24.829  0.00  0.00    +0.134 C 
BRANCH  30  31
ATOM     31  O   UNL     1      34.334 -16.435 -25.981  0.00  0.00    -0.506 OA
ATOM     32  H   UNL     1      34.989 -16.376 -26.648  0.00  0.00    +0.292 HD
ENDBRANCH  30  31
ENDBRANCH  24  25
ENDBRANCH  22  24
ENDBRANCH  19  21
ENDBRANCH  18  19
ENDBRANCH   1  18
TORSDOF 13
ENDMDL
