MODEL 1
REMARK VINA RESULT:     -12.3      0.000      0.000
REMARK  Name = 3822
REMARK  5 active torsions:
REMARK  status: ('A' for Active; 'I' for Inactive)
REMARK    1  A    between atoms: N_1  and  C_17
REMARK    2  A    between atoms: C_2  and  C_9
REMARK    3  A    between atoms: C_9  and  C_11
REMARK    4  A    between atoms: C_17  and  C_18
REMARK    5  A    between atoms: C_18  and  N_21
REMARK                            x       y       z     vdW  Elec       q    Type
REMARK                         _______ _______ _______ _____ _____    ______ ____
ROOT
ATOM      1  N   UNL     1      33.718 -14.933 -21.875  0.00  0.00    +0.388 N 
ATOM      2  C   UNL     1      35.427 -17.286 -22.287  0.00  0.00    +0.058 C 
ATOM      3  C   UNL     1      35.202 -16.234 -23.373  0.00  0.00    -0.015 C 
ATOM      4  C   UNL     1      35.102 -16.736 -20.899  0.00  0.00    -0.015 C 
ATOM      5  C   UNL     1      33.869 -15.496 -23.223  0.00  0.00    -0.077 C 
ATOM      6  C   UNL     1      33.766 -15.989 -20.857  0.00  0.00    -0.077 C 
ATOM      7  H   UNL     1      34.497 -14.296 -21.708  0.00  0.00    -0.080 HD
ENDROOT
BRANCH   2   9
ATOM      8  O   UNL     1      34.132 -18.730 -23.663  0.00  0.00    -0.291 OA
ATOM      9  C   UNL     1      34.623 -18.525 -22.556  0.00  0.00    +0.172 C 
BRANCH   9  11
ATOM     10  F   UNL     1      33.882 -22.224 -18.439  0.00  0.00    -0.204 F 
ATOM     11  C   UNL     1      34.425 -19.512 -21.456  0.00  0.00    +0.035 C 
ATOM     12  C   UNL     1      33.149 -19.737 -20.991  0.00  0.00    +0.005 C 
ATOM     13  C   UNL     1      35.527 -20.163 -20.947  0.00  0.00    +0.005 C 
ATOM     14  C   UNL     1      32.964 -20.661 -19.963  0.00  0.00    +0.030 C 
ATOM     15  C   UNL     1      35.342 -21.087 -19.919  0.00  0.00    +0.030 C 
ATOM     16  C   UNL     1      34.060 -21.336 -19.426  0.00  0.00    +0.140 C 
ENDBRANCH   9  11
ENDBRANCH   2   9
BRANCH   1  17
ATOM     17  C   UNL     1      32.467 -14.181 -21.773  0.00  0.00    -0.052 C 
BRANCH  17  18
ATOM     18  C   UNL     1      32.187 -13.442 -23.073  0.00  0.00    +0.091 C 
BRANCH  18  21
ATOM     19  O   UNL     1      34.136 -12.082 -24.500  0.00  0.00    -0.267 OA
ATOM     20  O   UNL     1      30.693 -11.803 -21.350  0.00  0.00    -0.246 OA
ATOM     21  N   UNL     1      32.407 -12.029 -22.927  0.00  0.00    -0.251 N 
ATOM     22  N   UNL     1      31.858  -9.936 -21.930  0.00  0.00    -0.306 N 
ATOM     23  C   UNL     1      33.436 -11.451 -23.711  0.00  0.00    +0.265 A 
ATOM     24  C   UNL     1      31.592 -11.292 -22.024  0.00  0.00    +0.330 A 
ATOM     25  C   UNL     1      33.653 -10.000 -23.550  0.00  0.00    +0.072 A 
ATOM     26  C   UNL     1      32.855  -9.286 -22.662  0.00  0.00    +0.065 A 
ATOM     27  C   UNL     1      34.649  -9.343 -24.280  0.00  0.00    +0.006 C 
ATOM     28  C   UNL     1      33.046  -7.911 -22.495  0.00  0.00    +0.017 C 
ATOM     29  C   UNL     1      34.840  -7.970 -24.113  0.00  0.00    +0.000 C 
ATOM     30  C   UNL     1      34.039  -7.256 -23.222  0.00  0.00    +0.001 C 
ATOM     31  H   UNL     1      31.311  -9.398 -21.312  0.00  0.00    +0.170 HD
ENDBRANCH  18  21
ENDBRANCH  17  18
ENDBRANCH   1  17
TORSDOF 5
ENDMDL
MODEL 2
REMARK VINA RESULT:     -11.9      0.731      2.083
REMARK  Name = 3822
REMARK  5 active torsions:
REMARK  status: ('A' for Active; 'I' for Inactive)
REMARK    1  A    between atoms: N_1  and  C_17
REMARK    2  A    between atoms: C_2  and  C_9
REMARK    3  A    between atoms: C_9  and  C_11
REMARK    4  A    between atoms: C_17  and  C_18
REMARK    5  A    between atoms: C_18  and  N_21
REMARK                            x       y       z     vdW  Elec       q    Type
REMARK                         _______ _______ _______ _____ _____    ______ ____
ROOT
ATOM      1  N   UNL     1      33.806 -14.955 -21.955  0.00  0.00    +0.388 N 
ATOM      2  C   UNL     1      35.443 -17.366 -22.321  0.00  0.00    +0.058 C 
ATOM      3  C   UNL     1      35.242 -16.333 -23.431  0.00  0.00    -0.015 C 
ATOM      4  C   UNL     1      35.144 -16.774 -20.945  0.00  0.00    -0.015 C 
ATOM      5  C   UNL     1      33.932 -15.553 -23.290  0.00  0.00    -0.077 C 
ATOM      6  C   UNL     1      33.830 -15.988 -20.913  0.00  0.00    -0.077 C 
ATOM      7  H   UNL     1      34.605 -14.337 -21.808  0.00  0.00    -0.080 HD
ENDROOT
BRANCH   2   9
ATOM      8  O   UNL     1      34.071 -18.787 -23.646  0.00  0.00    -0.291 OA
ATOM      9  C   UNL     1      34.601 -18.586 -22.556  0.00  0.00    +0.172 C 
BRANCH   9  11
ATOM     10  F   UNL     1      33.899 -22.238 -18.391  0.00  0.00    -0.204 F 
ATOM     11  C   UNL     1      34.414 -19.562 -21.445  0.00  0.00    +0.035 C 
ATOM     12  C   UNL     1      35.518 -20.213 -20.943  0.00  0.00    +0.005 C 
ATOM     13  C   UNL     1      33.143 -19.773 -20.959  0.00  0.00    +0.005 C 
ATOM     14  C   UNL     1      35.343 -21.125 -19.902  0.00  0.00    +0.030 C 
ATOM     15  C   UNL     1      32.967 -20.685 -19.918  0.00  0.00    +0.030 C 
ATOM     16  C   UNL     1      34.067 -21.362 -19.390  0.00  0.00    +0.140 C 
ENDBRANCH   9  11
ENDBRANCH   2   9
BRANCH   1  17
ATOM     17  C   UNL     1      32.578 -14.164 -21.863  0.00  0.00    -0.052 C 
BRANCH  17  18
ATOM     18  C   UNL     1      32.260 -13.524 -23.206  0.00  0.00    +0.091 C 
BRANCH  18  21
ATOM     19  O   UNL     1      31.111 -11.624 -21.546  0.00  0.00    -0.267 OA
ATOM     20  O   UNL     1      34.248 -12.494 -24.902  0.00  0.00    -0.246 OA
ATOM     21  N   UNL     1      32.650 -12.141 -23.229  0.00  0.00    -0.251 N 
ATOM     22  N   UNL     1      33.995 -10.378 -24.101  0.00  0.00    -0.306 N 
ATOM     23  C   UNL     1      31.985 -11.267 -22.332  0.00  0.00    +0.265 A 
ATOM     24  C   UNL     1      33.669 -11.725 -24.129  0.00  0.00    +0.330 A 
ATOM     25  C   UNL     1      32.393  -9.849 -22.367  0.00  0.00    +0.072 A 
ATOM     26  C   UNL     1      33.388  -9.448 -23.254  0.00  0.00    +0.065 A 
ATOM     27  C   UNL     1      31.790  -8.913 -21.522  0.00  0.00    +0.006 C 
ATOM     28  C   UNL     1      33.787  -8.110 -23.302  0.00  0.00    +0.017 C 
ATOM     29  C   UNL     1      32.189  -7.576 -21.571  0.00  0.00    +0.000 C 
ATOM     30  C   UNL     1      33.186  -7.176 -22.459  0.00  0.00    +0.001 C 
ATOM     31  H   UNL     1      34.697 -10.059 -24.714  0.00  0.00    +0.170 HD
ENDBRANCH  18  21
ENDBRANCH  17  18
ENDBRANCH   1  17
TORSDOF 5
ENDMDL
MODEL 3
REMARK VINA RESULT:     -11.2      4.791     10.810
REMARK  Name = 3822
REMARK  5 active torsions:
REMARK  status: ('A' for Active; 'I' for Inactive)
REMARK    1  A    between atoms: N_1  and  C_17
REMARK    2  A    between atoms: C_2  and  C_9
REMARK    3  A    between atoms: C_9  and  C_11
REMARK    4  A    between atoms: C_17  and  C_18
REMARK    5  A    between atoms: C_18  and  N_21
REMARK                            x       y       z     vdW  Elec       q    Type
REMARK                         _______ _______ _______ _____ _____    ______ ____
ROOT
ATOM      1  N   UNL     1      35.761 -20.338 -20.494  0.00  0.00    +0.388 N 
ATOM      2  C   UNL     1      35.057 -18.006 -22.134  0.00  0.00    +0.058 C 
ATOM      3  C   UNL     1      36.488 -18.531 -22.026  0.00  0.00    -0.015 C 
ATOM      4  C   UNL     1      34.037 -19.072 -21.737  0.00  0.00    -0.015 C 
ATOM      5  C   UNL     1      36.753 -19.277 -20.715  0.00  0.00    -0.077 C 
ATOM      6  C   UNL     1      34.404 -19.782 -20.431  0.00  0.00    -0.077 C 
ATOM      7  H   UNL     1      35.804 -20.982 -21.284  0.00  0.00    -0.080 HD
ENDROOT
BRANCH   2   9
ATOM      8  O   UNL     1      35.299 -16.710 -20.155  0.00  0.00    -0.291 OA
ATOM      9  C   UNL     1      34.867 -16.770 -21.303  0.00  0.00    +0.172 C 
BRANCH   9  11
ATOM     10  F   UNL     1      32.154 -12.413 -23.503  0.00  0.00    -0.204 F 
ATOM     11  C   UNL     1      34.144 -15.607 -21.890  0.00  0.00    +0.035 C 
ATOM     12  C   UNL     1      34.579 -15.094 -23.092  0.00  0.00    +0.005 C 
ATOM     13  C   UNL     1      33.064 -15.088 -21.210  0.00  0.00    +0.005 C 
ATOM     14  C   UNL     1      33.901 -14.006 -23.641  0.00  0.00    +0.030 C 
ATOM     15  C   UNL     1      32.386 -14.000 -21.759  0.00  0.00    +0.030 C 
ATOM     16  C   UNL     1      32.805 -13.458 -22.975  0.00  0.00    +0.140 C 
ENDBRANCH   9  11
ENDBRANCH   2   9
BRANCH   1  17
ATOM     17  C   UNL     1      36.068 -21.077 -19.269  0.00  0.00    -0.052 C 
BRANCH  17  18
ATOM     18  C   UNL     1      35.338 -22.412 -19.261  0.00  0.00    +0.091 C 
BRANCH  18  21
ATOM     19  O   UNL     1      32.579 -22.510 -19.008  0.00  0.00    -0.267 OA
ATOM     20  O   UNL     1      36.712 -22.818 -16.845  0.00  0.00    -0.246 OA
ATOM     21  N   UNL     1      34.685 -22.641 -18.001  0.00  0.00    -0.251 N 
ATOM     22  N   UNL     1      34.786 -23.048 -15.655  0.00  0.00    -0.306 N 
ATOM     23  C   UNL     1      33.268 -22.666 -18.002  0.00  0.00    +0.265 A 
ATOM     24  C   UNL     1      35.478 -22.834 -16.836  0.00  0.00    +0.330 A 
ATOM     25  C   UNL     1      32.609 -22.900 -16.702  0.00  0.00    +0.072 A 
ATOM     26  C   UNL     1      33.392 -23.084 -15.566  0.00  0.00    +0.065 A 
ATOM     27  C   UNL     1      31.215 -22.937 -16.606  0.00  0.00    +0.006 C 
ATOM     28  C   UNL     1      32.787 -23.306 -14.326  0.00  0.00    +0.017 C 
ATOM     29  C   UNL     1      30.611 -23.159 -15.367  0.00  0.00    +0.000 C 
ATOM     30  C   UNL     1      31.397 -23.343 -14.229  0.00  0.00    +0.001 C 
ATOM     31  H   UNL     1      35.307 -23.184 -14.831  0.00  0.00    +0.170 HD
ENDBRANCH  18  21
ENDBRANCH  17  18
ENDBRANCH   1  17
TORSDOF 5
ENDMDL
MODEL 4
REMARK VINA RESULT:     -11.1      4.841     10.809
REMARK  Name = 3822
REMARK  5 active torsions:
REMARK  status: ('A' for Active; 'I' for Inactive)
REMARK    1  A    between atoms: N_1  and  C_17
REMARK    2  A    between atoms: C_2  and  C_9
REMARK    3  A    between atoms: C_9  and  C_11
REMARK    4  A    between atoms: C_17  and  C_18
REMARK    5  A    between atoms: C_18  and  N_21
REMARK                            x       y       z     vdW  Elec       q    Type
REMARK                         _______ _______ _______ _____ _____    ______ ____
ROOT
ATOM      1  N   UNL     1      35.772 -20.066 -20.887  0.00  0.00    +0.388 N 
ATOM      2  C   UNL     1      35.492 -18.170 -23.112  0.00  0.00    +0.058 C 
ATOM      3  C   UNL     1      36.842 -18.491 -22.472  0.00  0.00    -0.015 C 
ATOM      4  C   UNL     1      34.462 -19.261 -22.825  0.00  0.00    -0.015 C 
ATOM      5  C   UNL     1      36.719 -18.951 -21.017  0.00  0.00    -0.077 C 
ATOM      6  C   UNL     1      34.436 -19.674 -21.351  0.00  0.00    -0.077 C 
ATOM      7  H   UNL     1      36.100 -20.832 -21.475  0.00  0.00    -0.080 HD
ENDROOT
BRANCH   2   9
ATOM      8  O   UNL     1      35.055 -16.502 -21.474  0.00  0.00    -0.291 OA
ATOM      9  C   UNL     1      34.978 -16.836 -22.653  0.00  0.00    +0.172 C 
BRANCH   9  11
ATOM     10  F   UNL     1      32.695 -13.379 -26.397  0.00  0.00    -0.204 F 
ATOM     11  C   UNL     1      34.368 -15.913 -23.652  0.00  0.00    +0.035 C 
ATOM     12  C   UNL     1      34.084 -14.620 -23.272  0.00  0.00    +0.005 C 
ATOM     13  C   UNL     1      34.112 -16.387 -24.920  0.00  0.00    +0.005 C 
ATOM     14  C   UNL     1      33.514 -13.757 -24.208  0.00  0.00    +0.030 C 
ATOM     15  C   UNL     1      33.542 -15.524 -25.855  0.00  0.00    +0.030 C 
ATOM     16  C   UNL     1      33.242 -14.209 -25.500  0.00  0.00    +0.140 C 
ENDBRANCH   9  11
ENDBRANCH   2   9
BRANCH   1  17
ATOM     17  C   UNL     1      35.716 -20.530 -19.500  0.00  0.00    -0.052 C 
BRANCH  17  18
ATOM     18  C   UNL     1      35.533 -22.039 -19.455  0.00  0.00    +0.091 C 
BRANCH  18  21
ATOM     19  O   UNL     1      36.294 -22.789 -16.896  0.00  0.00    -0.267 OA
ATOM     20  O   UNL     1      32.756 -22.077 -19.868  0.00  0.00    -0.246 OA
ATOM     21  N   UNL     1      34.583 -22.419 -18.446  0.00  0.00    -0.251 N 
ATOM     22  N   UNL     1      32.334 -22.781 -17.745  0.00  0.00    -0.306 N 
ATOM     23  C   UNL     1      35.097 -22.784 -17.177  0.00  0.00    +0.265 A 
ATOM     24  C   UNL     1      33.196 -22.403 -18.762  0.00  0.00    +0.330 A 
ATOM     25  C   UNL     1      34.111 -23.173 -16.150  0.00  0.00    +0.072 A 
ATOM     26  C   UNL     1      32.756 -23.160 -16.468  0.00  0.00    +0.065 A 
ATOM     27  C   UNL     1      34.526 -23.553 -14.870  0.00  0.00    +0.006 C 
ATOM     28  C   UNL     1      31.807 -23.526 -15.510  0.00  0.00    +0.017 C 
ATOM     29  C   UNL     1      33.577 -23.919 -13.913  0.00  0.00    +0.000 C 
ATOM     30  C   UNL     1      32.220 -23.905 -14.233  0.00  0.00    +0.001 C 
ATOM     31  H   UNL     1      31.368 -22.782 -17.934  0.00  0.00    +0.170 HD
ENDBRANCH  18  21
ENDBRANCH  17  18
ENDBRANCH   1  17
TORSDOF 5
ENDMDL
MODEL 5
REMARK VINA RESULT:     -11.1      4.777     10.879
REMARK  Name = 3822
REMARK  5 active torsions:
REMARK  status: ('A' for Active; 'I' for Inactive)
REMARK    1  A    between atoms: N_1  and  C_17
REMARK    2  A    between atoms: C_2  and  C_9
REMARK    3  A    between atoms: C_9  and  C_11
REMARK    4  A    between atoms: C_17  and  C_18
REMARK    5  A    between atoms: C_18  and  N_21
REMARK                            x       y       z     vdW  Elec       q    Type
REMARK                         _______ _______ _______ _____ _____    ______ ____
ROOT
ATOM      1  N   UNL     1      34.072 -10.339 -23.613  0.00  0.00    +0.388 N 
ATOM      2  C   UNL     1      33.078  -7.683 -22.851  0.00  0.00    +0.058 C 
ATOM      3  C   UNL     1      32.643  -8.959 -22.132  0.00  0.00    -0.015 C 
ATOM      4  C   UNL     1      34.389  -7.885 -23.609  0.00  0.00    -0.015 C 
ATOM      5  C   UNL     1      32.736 -10.205 -23.018  0.00  0.00    -0.077 C 
ATOM      6  C   UNL     1      34.397  -9.171 -24.440  0.00  0.00    -0.077 C 
ATOM      7  H   UNL     1      34.754 -10.390 -22.855  0.00  0.00    -0.080 HD
ENDROOT
BRANCH   2   9
ATOM      8  O   UNL     1      31.169  -7.965 -24.241  0.00  0.00    -0.291 OA
ATOM      9  C   UNL     1      32.008  -7.193 -23.785  0.00  0.00    +0.172 C 
BRANCH   9  11
ATOM     10  F   UNL     1      31.887  -1.786 -25.171  0.00  0.00    -0.204 F 
ATOM     11  C   UNL     1      31.975  -5.750 -24.154  0.00  0.00    +0.035 C 
ATOM     12  C   UNL     1      31.488  -4.843 -23.240  0.00  0.00    +0.005 C 
ATOM     13  C   UNL     1      32.435  -5.376 -25.398  0.00  0.00    +0.005 C 
ATOM     14  C   UNL     1      31.458  -3.492 -23.586  0.00  0.00    +0.030 C 
ATOM     15  C   UNL     1      32.404  -4.025 -25.744  0.00  0.00    +0.030 C 
ATOM     16  C   UNL     1      31.916  -3.083 -24.839  0.00  0.00    +0.140 C 
ENDBRANCH   9  11
ENDBRANCH   2   9
BRANCH   1  17
ATOM     17  C   UNL     1      34.159 -11.566 -24.405  0.00  0.00    -0.052 C 
BRANCH  17  18
ATOM     18  C   UNL     1      33.076 -12.547 -23.979  0.00  0.00    +0.091 C 
BRANCH  18  21
ATOM     19  O   UNL     1      34.372 -14.126 -22.105  0.00  0.00    -0.267 OA
ATOM     20  O   UNL     1      32.592 -13.850 -26.419  0.00  0.00    -0.246 OA
ATOM     21  N   UNL     1      33.467 -13.903 -24.249  0.00  0.00    -0.251 N 
ATOM     22  N   UNL     1      33.578 -15.778 -25.716  0.00  0.00    -0.306 N 
ATOM     23  C   UNL     1      34.125 -14.606 -23.209  0.00  0.00    +0.265 A 
ATOM     24  C   UNL     1      33.173 -14.467 -25.521  0.00  0.00    +0.330 A 
ATOM     25  C   UNL     1      34.522 -15.998 -23.500  0.00  0.00    +0.072 A 
ATOM     26  C   UNL     1      34.235 -16.541 -24.748  0.00  0.00    +0.065 A 
ATOM     27  C   UNL     1      35.181 -16.767 -22.536  0.00  0.00    +0.006 C 
ATOM     28  C   UNL     1      34.604 -17.856 -25.043  0.00  0.00    +0.017 C 
ATOM     29  C   UNL     1      35.550 -18.081 -22.830  0.00  0.00    +0.000 C 
ATOM     30  C   UNL     1      35.261 -18.624 -24.082  0.00  0.00    +0.001 C 
ATOM     31  H   UNL     1      33.389 -16.196 -26.588  0.00  0.00    +0.170 HD
ENDBRANCH  18  21
ENDBRANCH  17  18
ENDBRANCH   1  17
TORSDOF 5
ENDMDL
MODEL 6
REMARK VINA RESULT:     -11.1      3.729     10.135
REMARK  Name = 3822
REMARK  5 active torsions:
REMARK  status: ('A' for Active; 'I' for Inactive)
REMARK    1  A    between atoms: N_1  and  C_17
REMARK    2  A    between atoms: C_2  and  C_9
REMARK    3  A    between atoms: C_9  and  C_11
REMARK    4  A    between atoms: C_17  and  C_18
REMARK    5  A    between atoms: C_18  and  N_21
REMARK                            x       y       z     vdW  Elec       q    Type
REMARK                         _______ _______ _______ _____ _____    ______ ____
ROOT
ATOM      1  N   UNL     1      34.279 -17.651 -21.504  0.00  0.00    +0.388 N 
ATOM      2  C   UNL     1      34.869 -15.065 -22.764  0.00  0.00    +0.058 C 
ATOM      3  C   UNL     1      34.530 -15.197 -21.280  0.00  0.00    -0.015 C 
ATOM      4  C   UNL     1      35.341 -16.394 -23.351  0.00  0.00    -0.015 C 
ATOM      5  C   UNL     1      33.671 -16.426 -20.970  0.00  0.00    -0.077 C 
ATOM      6  C   UNL     1      34.436 -17.566 -22.961  0.00  0.00    -0.077 C 
ATOM      7  H   UNL     1      35.206 -17.753 -21.090  0.00  0.00    -0.080 HD
ENDROOT
BRANCH   2   9
ATOM      8  O   UNL     1      33.205 -15.193 -24.458  0.00  0.00    -0.291 OA
ATOM      9  C   UNL     1      33.699 -14.539 -23.544  0.00  0.00    +0.172 C 
BRANCH   9  11
ATOM     10  F   UNL     1      31.593  -9.537 -22.232  0.00  0.00    -0.204 F 
ATOM     11  C   UNL     1      33.137 -13.203 -23.194  0.00  0.00    +0.035 C 
ATOM     12  C   UNL     1      33.633 -12.089 -23.832  0.00  0.00    +0.005 C 
ATOM     13  C   UNL     1      32.141 -13.134 -22.245  0.00  0.00    +0.005 C 
ATOM     14  C   UNL     1      33.107 -10.839 -23.505  0.00  0.00    +0.030 C 
ATOM     15  C   UNL     1      31.615 -11.884 -21.917  0.00  0.00    +0.030 C 
ATOM     16  C   UNL     1      32.098 -10.737 -22.546  0.00  0.00    +0.140 C 
ENDBRANCH   9  11
ENDBRANCH   2   9
BRANCH   1  17
ATOM     17  C   UNL     1      33.474 -18.820 -21.144  0.00  0.00    -0.052 C 
BRANCH  17  18
ATOM     18  C   UNL     1      34.231 -20.100 -21.463  0.00  0.00    +0.091 C 
BRANCH  18  21
ATOM     19  O   UNL     1      32.874 -21.858 -19.803  0.00  0.00    -0.267 OA
ATOM     20  O   UNL     1      36.854 -19.548 -20.626  0.00  0.00    -0.246 OA
ATOM     21  N   UNL     1      34.825 -20.662 -20.281  0.00  0.00    -0.251 N 
ATOM     22  N   UNL     1      36.675 -20.889 -18.795  0.00  0.00    -0.306 N 
ATOM     23  C   UNL     1      34.027 -21.547 -19.513  0.00  0.00    +0.265 A 
ATOM     24  C   UNL     1      36.164 -20.314 -19.948  0.00  0.00    +0.330 A 
ATOM     25  C   UNL     1      34.648 -22.115 -18.301  0.00  0.00    +0.072 A 
ATOM     26  C   UNL     1      35.956 -21.766 -17.979  0.00  0.00    +0.065 A 
ATOM     27  C   UNL     1      33.936 -22.994 -17.480  0.00  0.00    +0.006 C 
ATOM     28  C   UNL     1      36.562 -22.293 -16.835  0.00  0.00    +0.017 C 
ATOM     29  C   UNL     1      34.541 -23.520 -16.337  0.00  0.00    +0.000 C 
ATOM     30  C   UNL     1      35.852 -23.170 -16.016  0.00  0.00    +0.001 C 
ATOM     31  H   UNL     1      37.599 -20.666 -18.538  0.00  0.00    +0.170 HD
ENDBRANCH  18  21
ENDBRANCH  17  18
ENDBRANCH   1  17
TORSDOF 5
ENDMDL
MODEL 7
REMARK VINA RESULT:     -11.0      1.508      2.356
REMARK  Name = 3822
REMARK  5 active torsions:
REMARK  status: ('A' for Active; 'I' for Inactive)
REMARK    1  A    between atoms: N_1  and  C_17
REMARK    2  A    between atoms: C_2  and  C_9
REMARK    3  A    between atoms: C_9  and  C_11
REMARK    4  A    between atoms: C_17  and  C_18
REMARK    5  A    between atoms: C_18  and  N_21
REMARK                            x       y       z     vdW  Elec       q    Type
REMARK                         _______ _______ _______ _____ _____    ______ ____
ROOT
ATOM      1  N   UNL     1      34.250 -16.622 -22.897  0.00  0.00    +0.388 N 
ATOM      2  C   UNL     1      34.424 -19.404 -21.972  0.00  0.00    +0.058 C 
ATOM      3  C   UNL     1      33.494 -18.380 -21.322  0.00  0.00    -0.015 C 
ATOM      4  C   UNL     1      34.830 -18.978 -23.382  0.00  0.00    -0.015 C 
ATOM      5  C   UNL     1      33.985 -16.939 -21.487  0.00  0.00    -0.077 C 
ATOM      6  C   UNL     1      35.275 -17.515 -23.451  0.00  0.00    -0.077 C 
ATOM      7  H   UNL     1      33.387 -16.766 -23.422  0.00  0.00    -0.080 HD
ENDROOT
BRANCH   2   9
ATOM      8  O   UNL     1      36.700 -19.065 -21.374  0.00  0.00    -0.291 OA
ATOM      9  C   UNL     1      35.644 -19.642 -21.130  0.00  0.00    +0.172 C 
BRANCH   9  11
ATOM     10  F   UNL     1      35.329 -23.207 -16.844  0.00  0.00    -0.204 F 
ATOM     11  C   UNL     1      35.559 -20.594 -19.986  0.00  0.00    +0.035 C 
ATOM     12  C   UNL     1      34.368 -21.243 -19.752  0.00  0.00    +0.005 C 
ATOM     13  C   UNL     1      36.678 -20.789 -19.206  0.00  0.00    +0.005 C 
ATOM     14  C   UNL     1      34.289 -22.133 -18.681  0.00  0.00    +0.030 C 
ATOM     15  C   UNL     1      36.599 -21.680 -18.135  0.00  0.00    +0.030 C 
ATOM     16  C   UNL     1      35.405 -22.352 -17.872  0.00  0.00    +0.140 C 
ENDBRANCH   9  11
ENDBRANCH   2   9
BRANCH   1  17
ATOM     17  C   UNL     1      34.659 -15.224 -23.039  0.00  0.00    -0.052 C 
BRANCH  17  18
ATOM     18  C   UNL     1      33.723 -14.494 -23.990  0.00  0.00    +0.091 C 
BRANCH  18  21
ATOM     19  O   UNL     1      34.324 -11.960 -24.941  0.00  0.00    -0.267 OA
ATOM     20  O   UNL     1      31.994 -14.494 -21.776  0.00  0.00    -0.246 OA
ATOM     21  N   UNL     1      33.198 -13.299 -23.389  0.00  0.00    -0.251 N 
ATOM     22  N   UNL     1      31.860 -12.222 -21.737  0.00  0.00    -0.306 N 
ATOM     23  C   UNL     1      33.581 -12.063 -23.966  0.00  0.00    +0.265 A 
ATOM     24  C   UNL     1      32.329 -13.412 -22.268  0.00  0.00    +0.330 A 
ATOM     25  C   UNL     1      33.037 -10.842 -23.339  0.00  0.00    +0.072 A 
ATOM     26  C   UNL     1      32.191 -10.961 -22.240  0.00  0.00    +0.065 A 
ATOM     27  C   UNL     1      33.364  -9.578 -23.838  0.00  0.00    +0.006 C 
ATOM     28  C   UNL     1      31.666  -9.818 -21.632  0.00  0.00    +0.017 C 
ATOM     29  C   UNL     1      32.840  -8.436 -23.229  0.00  0.00    +0.000 C 
ATOM     30  C   UNL     1      31.992  -8.556 -22.129  0.00  0.00    +0.001 C 
ATOM     31  H   UNL     1      31.258 -12.267 -20.960  0.00  0.00    +0.170 HD
ENDBRANCH  18  21
ENDBRANCH  17  18
ENDBRANCH   1  17
TORSDOF 5
ENDMDL
MODEL 8
REMARK VINA RESULT:     -10.9      3.339      5.770
REMARK  Name = 3822
REMARK  5 active torsions:
REMARK  status: ('A' for Active; 'I' for Inactive)
REMARK    1  A    between atoms: N_1  and  C_17
REMARK    2  A    between atoms: C_2  and  C_9
REMARK    3  A    between atoms: C_9  and  C_11
REMARK    4  A    between atoms: C_17  and  C_18
REMARK    5  A    between atoms: C_18  and  N_21
REMARK                            x       y       z     vdW  Elec       q    Type
REMARK                         _______ _______ _______ _____ _____    ______ ____
ROOT
ATOM      1  N   UNL     1      34.706 -19.957 -20.860  0.00  0.00    +0.388 N 
ATOM      2  C   UNL     1      36.029 -22.073 -19.311  0.00  0.00    +0.058 C 
ATOM      3  C   UNL     1      34.510 -21.994 -19.463  0.00  0.00    -0.015 C 
ATOM      4  C   UNL     1      36.743 -21.286 -20.408  0.00  0.00    -0.015 C 
ATOM      5  C   UNL     1      34.009 -20.571 -19.722  0.00  0.00    -0.077 C 
ATOM      6  C   UNL     1      36.151 -19.889 -20.613  0.00  0.00    -0.077 C 
ATOM      7  H   UNL     1      34.552 -20.543 -21.681  0.00  0.00    -0.080 HD
ENDROOT
BRANCH   2   9
ATOM      8  O   UNL     1      37.007 -20.497 -17.823  0.00  0.00    -0.291 OA
ATOM      9  C   UNL     1      36.465 -21.591 -17.958  0.00  0.00    +0.172 C 
BRANCH   9  11
ATOM     10  F   UNL     1      35.589 -24.847 -13.507  0.00  0.00    -0.204 F 
ATOM     11  C   UNL     1      36.230 -22.460 -16.769  0.00  0.00    +0.035 C 
ATOM     12  C   UNL     1      34.950 -22.892 -16.508  0.00  0.00    +0.005 C 
ATOM     13  C   UNL     1      37.305 -22.800 -15.978  0.00  0.00    +0.005 C 
ATOM     14  C   UNL     1      34.731 -23.705 -15.396  0.00  0.00    +0.030 C 
ATOM     15  C   UNL     1      37.086 -23.613 -14.866  0.00  0.00    +0.030 C 
ATOM     16  C   UNL     1      35.799 -24.066 -14.575  0.00  0.00    +0.140 C 
ENDBRANCH   9  11
ENDBRANCH   2   9
BRANCH   1  17
ATOM     17  C   UNL     1      34.170 -18.622 -21.129  0.00  0.00    -0.052 C 
BRANCH  17  18
ATOM     18  C   UNL     1      35.295 -17.664 -21.492  0.00  0.00    +0.091 C 
BRANCH  18  21
ATOM     19  O   UNL     1      34.653 -17.852 -24.182  0.00  0.00    -0.267 OA
ATOM     20  O   UNL     1      34.874 -15.110 -20.402  0.00  0.00    -0.246 OA
ATOM     21  N   UNL     1      34.802 -16.546 -22.248  0.00  0.00    -0.251 N 
ATOM     22  N   UNL     1      34.149 -14.258 -22.384  0.00  0.00    -0.306 N 
ATOM     23  C   UNL     1      34.512 -16.769 -23.618  0.00  0.00    +0.265 A 
ATOM     24  C   UNL     1      34.626 -15.294 -21.597  0.00  0.00    +0.330 A 
ATOM     25  C   UNL     1      34.009 -15.613 -24.384  0.00  0.00    +0.072 A 
ATOM     26  C   UNL     1      33.843 -14.390 -23.741  0.00  0.00    +0.065 A 
ATOM     27  C   UNL     1      33.700 -15.737 -25.742  0.00  0.00    +0.006 C 
ATOM     28  C   UNL     1      33.368 -13.283 -24.450  0.00  0.00    +0.017 C 
ATOM     29  C   UNL     1      33.226 -14.631 -26.450  0.00  0.00    +0.000 C 
ATOM     30  C   UNL     1      33.060 -13.406 -25.804  0.00  0.00    +0.001 C 
ATOM     31  H   UNL     1      34.018 -13.379 -21.962  0.00  0.00    +0.170 HD
ENDBRANCH  18  21
ENDBRANCH  17  18
ENDBRANCH   1  17
TORSDOF 5
ENDMDL
MODEL 9
REMARK VINA RESULT:     -10.9      1.862      3.279
REMARK  Name = 3822
REMARK  5 active torsions:
REMARK  status: ('A' for Active; 'I' for Inactive)
REMARK    1  A    between atoms: N_1  and  C_17
REMARK    2  A    between atoms: C_2  and  C_9
REMARK    3  A    between atoms: C_9  and  C_11
REMARK    4  A    between atoms: C_17  and  C_18
REMARK    5  A    between atoms: C_18  and  N_21
REMARK                            x       y       z     vdW  Elec       q    Type
REMARK                         _______ _______ _______ _____ _____    ______ ____
ROOT
ATOM      1  N   UNL     1      34.186 -16.709 -23.099  0.00  0.00    +0.388 N 
ATOM      2  C   UNL     1      34.343 -19.410 -21.955  0.00  0.00    +0.058 C 
ATOM      3  C   UNL     1      33.469 -18.311 -21.350  0.00  0.00    -0.015 C 
ATOM      4  C   UNL     1      34.688 -19.111 -23.413  0.00  0.00    -0.015 C 
ATOM      5  C   UNL     1      33.984 -16.902 -21.657  0.00  0.00    -0.077 C 
ATOM      6  C   UNL     1      35.163 -17.670 -23.624  0.00  0.00    -0.077 C 
ATOM      7  H   UNL     1      33.296 -16.872 -23.569  0.00  0.00    -0.080 HD
ENDROOT
BRANCH   2   9
ATOM      8  O   UNL     1      36.629 -19.009 -21.440  0.00  0.00    -0.291 OA
ATOM      9  C   UNL     1      35.597 -19.610 -21.155  0.00  0.00    +0.172 C 
BRANCH   9  11
ATOM     10  F   UNL     1      35.517 -23.143 -16.832  0.00  0.00    -0.204 F 
ATOM     11  C   UNL     1      35.576 -20.553 -20.001  0.00  0.00    +0.035 C 
ATOM     12  C   UNL     1      36.719 -20.703 -19.248  0.00  0.00    +0.005 C 
ATOM     13  C   UNL     1      34.413 -21.239 -19.730  0.00  0.00    +0.005 C 
ATOM     14  C   UNL     1      36.699 -21.586 -18.168  0.00  0.00    +0.030 C 
ATOM     15  C   UNL     1      34.393 -22.122 -18.650  0.00  0.00    +0.030 C 
ATOM     16  C   UNL     1      35.536 -22.295 -17.869  0.00  0.00    +0.140 C 
ENDBRANCH   9  11
ENDBRANCH   2   9
BRANCH   1  17
ATOM     17  C   UNL     1      34.619 -15.338 -23.375  0.00  0.00    -0.052 C 
BRANCH  17  18
ATOM     18  C   UNL     1      33.577 -14.616 -24.216  0.00  0.00    +0.091 C 
BRANCH  18  21
ATOM     19  O   UNL     1      32.123 -14.407 -21.865  0.00  0.00    -0.267 OA
ATOM     20  O   UNL     1      34.303 -12.139 -25.323  0.00  0.00    -0.246 OA
ATOM     21  N   UNL     1      33.226 -13.349 -23.634  0.00  0.00    -0.251 N 
ATOM     22  N   UNL     1      33.272 -10.967 -23.667  0.00  0.00    -0.306 N 
ATOM     23  C   UNL     1      32.478 -13.375 -22.431  0.00  0.00    +0.265 A 
ATOM     24  C   UNL     1      33.645 -12.152 -24.279  0.00  0.00    +0.330 A 
ATOM     25  C   UNL     1      32.123 -12.068 -21.844  0.00  0.00    +0.072 A 
ATOM     26  C   UNL     1      32.532 -10.901 -22.483  0.00  0.00    +0.065 A 
ATOM     27  C   UNL     1      31.383 -11.995 -20.660  0.00  0.00    +0.006 C 
ATOM     28  C   UNL     1      32.205  -9.654 -21.944  0.00  0.00    +0.017 C 
ATOM     29  C   UNL     1      31.056 -10.749 -20.122  0.00  0.00    +0.000 C 
ATOM     30  C   UNL     1      31.467  -9.581 -20.763  0.00  0.00    +0.001 C 
ATOM     31  H   UNL     1      33.546 -10.121 -24.090  0.00  0.00    +0.170 HD
ENDBRANCH  18  21
ENDBRANCH  17  18
ENDBRANCH   1  17
TORSDOF 5
ENDMDL
