MODEL 1
REMARK VINA RESULT:      -8.1      0.000      0.000
REMARK  Name = 19910
REMARK  2 active torsions:
REMARK  status: ('A' for Active; 'I' for Inactive)
REMARK    1  A    between atoms: C_4  and  N_13
REMARK    2  A    between atoms: C_5  and  O_14
REMARK                            x       y       z     vdW  Elec       q    Type
REMARK                         _______ _______ _______ _____ _____    ______ ____
ROOT
ATOM      1  N   UNL     1      34.400 -14.998 -23.533  0.00  0.00    -0.241 NA
ATOM      2  C   UNL     1      34.679 -17.027 -22.262  0.00  0.00    +0.043 C 
ATOM      3  C   UNL     1      34.556 -16.335 -23.485  0.00  0.00    +0.116 C 
ATOM      4  C   UNL     1      34.841 -18.423 -22.250  0.00  0.00    +0.144 C 
ATOM      5  C   UNL     1      34.600 -17.075 -24.664  0.00  0.00    +0.151 C 
ATOM      6  C   UNL     1      34.882 -19.138 -23.444  0.00  0.00    +0.027 C 
ATOM      7  C   UNL     1      34.634 -16.283 -21.075  0.00  0.00    +0.005 C 
ATOM      8  C   UNL     1      34.760 -18.463 -24.652  0.00  0.00    +0.040 C 
ATOM      9  C   UNL     1      34.474 -14.906 -21.121  0.00  0.00    +0.021 C 
ATOM     10  C   UNL     1      34.363 -14.317 -22.365  0.00  0.00    +0.099 C 
ENDROOT
BRANCH   4  13
ATOM     11  O   UNL     1      33.951 -19.725 -20.572  0.00  0.00    -0.126 OA
ATOM     12  O   UNL     1      36.090 -19.216 -20.485  0.00  0.00    -0.126 OA
ATOM     13  N   UNL     1      34.968 -19.162 -21.036  0.00  0.00    +0.058 N 
ENDBRANCH   4  13
BRANCH   5  14
ATOM     14  O   UNL     1      34.484 -16.447 -25.873  0.00  0.00    -0.504 OA
ATOM     15  H   UNL     1      35.018 -16.717 -26.593  0.00  0.00    +0.292 HD
ENDBRANCH   5  14
TORSDOF 2
ENDMDL
MODEL 2
REMARK VINA RESULT:      -7.5      1.953      4.583
REMARK  Name = 19910
REMARK  2 active torsions:
REMARK  status: ('A' for Active; 'I' for Inactive)
REMARK    1  A    between atoms: C_4  and  N_13
REMARK    2  A    between atoms: C_5  and  O_14
REMARK                            x       y       z     vdW  Elec       q    Type
REMARK                         _______ _______ _______ _____ _____    ______ ____
ROOT
ATOM      1  N   UNL     1      35.080 -17.827 -20.833  0.00  0.00    -0.241 NA
ATOM      2  C   UNL     1      34.651 -17.137 -23.102  0.00  0.00    +0.043 C 
ATOM      3  C   UNL     1      34.816 -16.857 -21.729  0.00  0.00    +0.116 C 
ATOM      4  C   UNL     1      34.377 -16.099 -24.010  0.00  0.00    +0.144 C 
ATOM      5  C   UNL     1      34.698 -15.534 -21.311  0.00  0.00    +0.151 C 
ATOM      6  C   UNL     1      34.265 -14.785 -23.565  0.00  0.00    +0.027 C 
ATOM      7  C   UNL     1      34.769 -18.468 -23.523  0.00  0.00    +0.005 C 
ATOM      8  C   UNL     1      34.425 -14.503 -22.214  0.00  0.00    +0.040 C 
ATOM      9  C   UNL     1      35.041 -19.469 -22.602  0.00  0.00    +0.021 C 
ATOM     10  C   UNL     1      35.186 -19.099 -21.280  0.00  0.00    +0.099 C 
ENDROOT
BRANCH   4  13
ATOM     11  O   UNL     1      35.083 -16.987 -26.013  0.00  0.00    -0.126 OA
ATOM     12  O   UNL     1      33.176 -15.890 -25.964  0.00  0.00    -0.126 OA
ATOM     13  N   UNL     1      34.203 -16.338 -25.405  0.00  0.00    +0.058 N 
ENDBRANCH   4  13
BRANCH   5  14
ATOM     14  O   UNL     1      34.849 -15.216 -19.991  0.00  0.00    -0.504 OA
ATOM     15  H   UNL     1      34.314 -15.632 -19.345  0.00  0.00    +0.292 HD
ENDBRANCH   5  14
TORSDOF 2
ENDMDL
MODEL 3
REMARK VINA RESULT:      -7.5      1.331      3.699
REMARK  Name = 19910
REMARK  2 active torsions:
REMARK  status: ('A' for Active; 'I' for Inactive)
REMARK    1  A    between atoms: C_4  and  N_13
REMARK    2  A    between atoms: C_5  and  O_14
REMARK                            x       y       z     vdW  Elec       q    Type
REMARK                         _______ _______ _______ _____ _____    ______ ____
ROOT
ATOM      1  N   UNL     1      34.972 -16.463 -20.521  0.00  0.00    -0.241 NA
ATOM      2  C   UNL     1      34.671 -16.729 -22.897  0.00  0.00    +0.043 C 
ATOM      3  C   UNL     1      34.989 -17.239 -21.622  0.00  0.00    +0.116 C 
ATOM      4  C   UNL     1      34.699 -17.568 -24.025  0.00  0.00    +0.144 C 
ATOM      5  C   UNL     1      35.328 -18.586 -21.520  0.00  0.00    +0.151 C 
ATOM      6  C   UNL     1      35.041 -18.911 -23.895  0.00  0.00    +0.027 C 
ATOM      7  C   UNL     1      34.330 -15.374 -23.000  0.00  0.00    +0.005 C 
ATOM      8  C   UNL     1      35.357 -19.420 -22.641  0.00  0.00    +0.040 C 
ATOM      9  C   UNL     1      34.311 -14.572 -21.868  0.00  0.00    +0.021 C 
ATOM     10  C   UNL     1      34.637 -15.161 -20.662  0.00  0.00    +0.099 C 
ENDROOT
BRANCH   4  13
ATOM     11  O   UNL     1      35.219 -16.367 -25.919  0.00  0.00    -0.126 OA
ATOM     12  O   UNL     1      33.289 -17.421 -25.840  0.00  0.00    -0.126 OA
ATOM     13  N   UNL     1      34.385 -17.093 -25.332  0.00  0.00    +0.058 N 
ENDBRANCH   4  13
BRANCH   5  14
ATOM     14  O   UNL     1      35.645 -19.124 -20.304  0.00  0.00    -0.504 OA
ATOM     15  H   UNL     1      36.537 -19.141 -20.018  0.00  0.00    +0.292 HD
ENDBRANCH   5  14
TORSDOF 2
ENDMDL
MODEL 4
REMARK VINA RESULT:      -7.4     10.603     12.287
REMARK  Name = 19910
REMARK  2 active torsions:
REMARK  status: ('A' for Active; 'I' for Inactive)
REMARK    1  A    between atoms: C_4  and  N_13
REMARK    2  A    between atoms: C_5  and  O_14
REMARK                            x       y       z     vdW  Elec       q    Type
REMARK                         _______ _______ _______ _____ _____    ______ ____
ROOT
ATOM      1  N   UNL     1      35.357 -24.855 -15.894  0.00  0.00    -0.241 NA
ATOM      2  C   UNL     1      35.698 -24.696 -13.513  0.00  0.00    +0.043 C 
ATOM      3  C   UNL     1      36.004 -25.241 -14.777  0.00  0.00    +0.116 C 
ATOM      4  C   UNL     1      36.395 -25.122 -12.369  0.00  0.00    +0.144 C 
ATOM      5  C   UNL     1      37.007 -26.205 -14.851  0.00  0.00    +0.151 C 
ATOM      6  C   UNL     1      37.393 -26.087 -12.471  0.00  0.00    +0.027 C 
ATOM      7  C   UNL     1      34.689 -23.726 -13.439  0.00  0.00    +0.005 C 
ATOM      8  C   UNL     1      37.698 -26.629 -13.713  0.00  0.00    +0.040 C 
ATOM      9  C   UNL     1      34.021 -23.326 -14.587  0.00  0.00    +0.021 C 
ATOM     10  C   UNL     1      34.390 -23.917 -15.779  0.00  0.00    +0.099 C 
ENDROOT
BRANCH   4  13
ATOM     11  O   UNL     1      36.780 -23.614 -10.672  0.00  0.00    -0.126 OA
ATOM     12  O   UNL     1      35.221 -25.141 -10.388  0.00  0.00    -0.126 OA
ATOM     13  N   UNL     1      36.117 -24.598 -11.072  0.00  0.00    +0.058 N 
ENDBRANCH   4  13
BRANCH   5  14
ATOM     14  O   UNL     1      37.336 -26.762 -16.054  0.00  0.00    -0.504 OA
ATOM     15  H   UNL     1      38.226 -26.751 -16.348  0.00  0.00    +0.292 HD
ENDBRANCH   5  14
TORSDOF 2
ENDMDL
MODEL 5
REMARK VINA RESULT:      -7.3      1.484      1.674
REMARK  Name = 19910
REMARK  2 active torsions:
REMARK  status: ('A' for Active; 'I' for Inactive)
REMARK    1  A    between atoms: C_4  and  N_13
REMARK    2  A    between atoms: C_5  and  O_14
REMARK                            x       y       z     vdW  Elec       q    Type
REMARK                         _______ _______ _______ _____ _____    ______ ____
ROOT
ATOM      1  N   UNL     1      32.951 -14.084 -24.179  0.00  0.00    -0.241 NA
ATOM      2  C   UNL     1      33.780 -15.805 -22.710  0.00  0.00    +0.043 C 
ATOM      3  C   UNL     1      33.581 -15.260 -23.996  0.00  0.00    +0.116 C 
ATOM      4  C   UNL     1      34.443 -17.035 -22.556  0.00  0.00    +0.144 C 
ATOM      5  C   UNL     1      34.058 -15.974 -25.092  0.00  0.00    +0.151 C 
ATOM      6  C   UNL     1      34.909 -17.729 -23.669  0.00  0.00    +0.027 C 
ATOM      7  C   UNL     1      33.300 -15.087 -21.607  0.00  0.00    +0.005 C 
ATOM      8  C   UNL     1      34.716 -17.198 -24.938  0.00  0.00    +0.040 C 
ATOM      9  C   UNL     1      32.651 -13.875 -21.793  0.00  0.00    +0.021 C 
ATOM     10  C   UNL     1      32.503 -13.422 -23.088  0.00  0.00    +0.099 C 
ENDROOT
BRANCH   4  13
ATOM     11  O   UNL     1      34.031 -18.661 -20.978  0.00  0.00    -0.126 OA
ATOM     12  O   UNL     1      35.481 -17.076 -20.501  0.00  0.00    -0.126 OA
ATOM     13  N   UNL     1      34.664 -17.622 -21.275  0.00  0.00    +0.058 N 
ENDBRANCH   4  13
BRANCH   5  14
ATOM     14  O   UNL     1      33.887 -15.485 -26.357  0.00  0.00    -0.504 OA
ATOM     15  H   UNL     1      33.592 -16.052 -27.042  0.00  0.00    +0.292 HD
ENDBRANCH   5  14
TORSDOF 2
ENDMDL
MODEL 6
REMARK VINA RESULT:      -7.3      1.280      2.976
REMARK  Name = 19910
REMARK  2 active torsions:
REMARK  status: ('A' for Active; 'I' for Inactive)
REMARK    1  A    between atoms: C_4  and  N_13
REMARK    2  A    between atoms: C_5  and  O_14
REMARK                            x       y       z     vdW  Elec       q    Type
REMARK                         _______ _______ _______ _____ _____    ______ ____
ROOT
ATOM      1  N   UNL     1      34.203 -15.927 -24.712  0.00  0.00    -0.241 NA
ATOM      2  C   UNL     1      34.721 -17.365 -22.849  0.00  0.00    +0.043 C 
ATOM      3  C   UNL     1      34.420 -16.100 -23.394  0.00  0.00    +0.116 C 
ATOM      4  C   UNL     1      34.941 -17.509 -21.468  0.00  0.00    +0.144 C 
ATOM      5  C   UNL     1      34.350 -15.013 -22.526  0.00  0.00    +0.151 C 
ATOM      6  C   UNL     1      34.865 -16.405 -20.623  0.00  0.00    +0.027 C 
ATOM      7  C   UNL     1      34.792 -18.460 -23.721  0.00  0.00    +0.005 C 
ATOM      8  C   UNL     1      34.569 -15.156 -21.154  0.00  0.00    +0.040 C 
ATOM      9  C   UNL     1      34.569 -18.285 -25.079  0.00  0.00    +0.021 C 
ATOM     10  C   UNL     1      34.280 -17.009 -25.519  0.00  0.00    +0.099 C 
ENDROOT
BRANCH   4  13
ATOM     11  O   UNL     1      34.309 -19.560 -20.632  0.00  0.00    -0.126 OA
ATOM     12  O   UNL     1      36.446 -19.036 -20.626  0.00  0.00    -0.126 OA
ATOM     13  N   UNL     1      35.249 -18.770 -20.876  0.00  0.00    +0.058 N 
ENDBRANCH   4  13
BRANCH   5  14
ATOM     14  O   UNL     1      34.061 -13.767 -23.010  0.00  0.00    -0.504 OA
ATOM     15  H   UNL     1      34.567 -13.409 -23.712  0.00  0.00    +0.292 HD
ENDBRANCH   5  14
TORSDOF 2
ENDMDL
MODEL 7
REMARK VINA RESULT:      -7.3      2.123      4.840
REMARK  Name = 19910
REMARK  2 active torsions:
REMARK  status: ('A' for Active; 'I' for Inactive)
REMARK    1  A    between atoms: C_4  and  N_13
REMARK    2  A    between atoms: C_5  and  O_14
REMARK                            x       y       z     vdW  Elec       q    Type
REMARK                         _______ _______ _______ _____ _____    ______ ____
ROOT
ATOM      1  N   UNL     1      35.033 -17.951 -23.342  0.00  0.00    -0.241 NA
ATOM      2  C   UNL     1      34.154 -15.708 -23.262  0.00  0.00    +0.043 C 
ATOM      3  C   UNL     1      34.717 -16.844 -22.643  0.00  0.00    +0.116 C 
ATOM      4  C   UNL     1      33.837 -14.569 -22.501  0.00  0.00    +0.144 C 
ATOM      5  C   UNL     1      34.945 -16.797 -21.270  0.00  0.00    +0.151 C 
ATOM      6  C   UNL     1      34.075 -14.550 -21.129  0.00  0.00    +0.027 C 
ATOM      7  C   UNL     1      33.925 -15.755 -24.644  0.00  0.00    +0.005 C 
ATOM      8  C   UNL     1      34.629 -15.665 -20.514  0.00  0.00    +0.040 C 
ATOM      9  C   UNL     1      34.250 -16.893 -25.366  0.00  0.00    +0.021 C 
ATOM     10  C   UNL     1      34.797 -17.955 -24.674  0.00  0.00    +0.099 C 
ENDROOT
BRANCH   4  13
ATOM     11  O   UNL     1      32.032 -13.224 -22.980  0.00  0.00    -0.126 OA
ATOM     12  O   UNL     1      34.022 -12.601 -23.682  0.00  0.00    -0.126 OA
ATOM     13  N   UNL     1      33.266 -13.401 -23.086  0.00  0.00    +0.058 N 
ENDBRANCH   4  13
BRANCH   5  14
ATOM     14  O   UNL     1      35.488 -17.874 -20.628  0.00  0.00    -0.504 OA
ATOM     15  H   UNL     1      35.039 -18.696 -20.630  0.00  0.00    +0.292 HD
ENDBRANCH   5  14
TORSDOF 2
ENDMDL
MODEL 8
REMARK VINA RESULT:      -7.3      1.535      3.177
REMARK  Name = 19910
REMARK  2 active torsions:
REMARK  status: ('A' for Active; 'I' for Inactive)
REMARK    1  A    between atoms: C_4  and  N_13
REMARK    2  A    between atoms: C_5  and  O_14
REMARK                            x       y       z     vdW  Elec       q    Type
REMARK                         _______ _______ _______ _____ _____    ______ ____
ROOT
ATOM      1  N   UNL     1      33.867 -15.276 -24.514  0.00  0.00    -0.241 NA
ATOM      2  C   UNL     1      34.671 -16.855 -22.881  0.00  0.00    +0.043 C 
ATOM      3  C   UNL     1      34.177 -15.584 -23.240  0.00  0.00    +0.116 C 
ATOM      4  C   UNL     1      34.984 -17.143 -21.541  0.00  0.00    +0.144 C 
ATOM      5  C   UNL     1      34.013 -14.636 -22.234  0.00  0.00    +0.151 C 
ATOM      6  C   UNL     1      34.811 -16.176 -20.554  0.00  0.00    +0.027 C 
ATOM      7  C   UNL     1      34.836 -17.810 -23.894  0.00  0.00    +0.005 C 
ATOM      8  C   UNL     1      34.325 -14.922 -20.902  0.00  0.00    +0.040 C 
ATOM      9  C   UNL     1      34.518 -17.495 -25.207  0.00  0.00    +0.021 C 
ATOM     10  C   UNL     1      34.040 -16.225 -25.462  0.00  0.00    +0.099 C 
ENDROOT
BRANCH   4  13
ATOM     11  O   UNL     1      36.704 -18.656 -21.305  0.00  0.00    -0.126 OA
ATOM     12  O   UNL     1      34.693 -19.236 -20.627  0.00  0.00    -0.126 OA
ATOM     13  N   UNL     1      35.487 -18.414 -21.136  0.00  0.00    +0.058 N 
ENDBRANCH   4  13
BRANCH   5  14
ATOM     14  O   UNL     1      33.538 -13.391 -22.535  0.00  0.00    -0.504 OA
ATOM     15  H   UNL     1      34.128 -12.721 -22.818  0.00  0.00    +0.292 HD
ENDBRANCH   5  14
TORSDOF 2
ENDMDL
MODEL 9
REMARK VINA RESULT:      -7.3      2.335      3.545
REMARK  Name = 19910
REMARK  2 active torsions:
REMARK  status: ('A' for Active; 'I' for Inactive)
REMARK    1  A    between atoms: C_4  and  N_13
REMARK    2  A    between atoms: C_5  and  O_14
REMARK                            x       y       z     vdW  Elec       q    Type
REMARK                         _______ _______ _______ _____ _____    ______ ____
ROOT
ATOM      1  N   UNL     1      34.584 -17.822 -24.853  0.00  0.00    -0.241 NA
ATOM      2  C   UNL     1      34.259 -16.510 -22.857  0.00  0.00    +0.043 C 
ATOM      3  C   UNL     1      34.224 -16.668 -24.258  0.00  0.00    +0.116 C 
ATOM      4  C   UNL     1      33.876 -15.292 -22.270  0.00  0.00    +0.144 C 
ATOM      5  C   UNL     1      33.804 -15.587 -25.029  0.00  0.00    +0.151 C 
ATOM      6  C   UNL     1      33.459 -14.227 -23.065  0.00  0.00    +0.027 C 
ATOM      7  C   UNL     1      34.682 -17.598 -22.081  0.00  0.00    +0.005 C 
ATOM      8  C   UNL     1      33.424 -14.376 -24.445  0.00  0.00    +0.040 C 
ATOM      9  C   UNL     1      35.053 -18.787 -22.690  0.00  0.00    +0.021 C 
ATOM     10  C   UNL     1      34.986 -18.847 -24.068  0.00  0.00    +0.099 C 
ENDROOT
BRANCH   4  13
ATOM     11  O   UNL     1      32.823 -15.195 -20.225  0.00  0.00    -0.126 OA
ATOM     12  O   UNL     1      34.989 -14.818 -20.310  0.00  0.00    -0.126 OA
ATOM     13  N   UNL     1      33.897 -15.090 -20.858  0.00  0.00    +0.058 N 
ENDBRANCH   4  13
BRANCH   5  14
ATOM     14  O   UNL     1      33.755 -15.693 -26.391  0.00  0.00    -0.504 OA
ATOM     15  H   UNL     1      34.171 -16.415 -26.819  0.00  0.00    +0.292 HD
ENDBRANCH   5  14
TORSDOF 2
ENDMDL
