MODEL 1
REMARK VINA RESULT:      -6.6      0.000      0.000
REMARK  Name = 36054
REMARK  3 active torsions:
REMARK  status: ('A' for Active; 'I' for Inactive)
REMARK    1  A    between atoms: C_2  and  C_11
REMARK    2  A    between atoms: C_11  and  N_12
REMARK    3  A    between atoms: N_12  and  C_15
REMARK                            x       y       z     vdW  Elec       q    Type
REMARK                         _______ _______ _______ _____ _____    ______ ____
ROOT
ATOM      1  N   UNL     1      34.024 -16.886 -22.023  0.00  0.00    +0.386 N 
ATOM      2  C   UNL     1      34.839 -18.047 -21.673  0.00  0.00    -0.037 C 
ATOM      3  C   UNL     1      35.698 -18.646 -22.801  0.00  0.00    -0.019 C 
ATOM      4  C   UNL     1      34.975 -19.168 -24.043  0.00  0.00    -0.002 C 
ATOM      5  C   UNL     1      34.146 -18.167 -24.853  0.00  0.00    -0.000 C 
ATOM      6  C   UNL     1      34.823 -16.820 -25.108  0.00  0.00    -0.002 C 
ATOM      7  C   UNL     1      34.362 -15.685 -24.189  0.00  0.00    -0.023 C 
ATOM      8  C   UNL     1      34.727 -15.811 -22.708  0.00  0.00    -0.082 C 
ATOM      9  H   UNL     1      33.631 -16.507 -21.161  0.00  0.00    -0.084 HD
ATOM     10  H   UNL     1      33.322 -17.226 -22.680  0.00  0.00    -0.084 HD
ENDROOT
BRANCH   2  11
ATOM     11  C   UNL     1      33.919 -19.106 -21.055  0.00  0.00    +0.107 C 
BRANCH  11  12
ATOM     12  N   UNL     1      34.748 -20.155 -20.477  0.00  0.00    -0.242 NA
BRANCH  12  15
ATOM     13  N   UNL     1      32.788 -21.004 -19.561  0.00  0.00    -0.370 N 
ATOM     14  N   UNL     1      34.682 -22.244 -19.293  0.00  0.00    -0.370 N 
ATOM     15  C   UNL     1      34.138 -21.093 -19.815  0.00  0.00    +0.188 C 
ATOM     16  H   UNL     1      32.278 -20.226 -19.881  0.00  0.00    +0.159 HD
ATOM     17  H   UNL     1      32.335 -21.719 -19.059  0.00  0.00    +0.159 HD
ATOM     18  H   UNL     1      35.643 -22.430 -19.406  0.00  0.00    +0.159 HD
ATOM     19  H   UNL     1      34.112 -22.883 -18.807  0.00  0.00    +0.159 HD
ENDBRANCH  12  15
ENDBRANCH  11  12
ENDBRANCH   2  11
TORSDOF 3
ENDMDL
MODEL 2
REMARK VINA RESULT:      -6.5      0.981      1.238
REMARK  Name = 36054
REMARK  3 active torsions:
REMARK  status: ('A' for Active; 'I' for Inactive)
REMARK    1  A    between atoms: C_2  and  C_11
REMARK    2  A    between atoms: C_11  and  N_12
REMARK    3  A    between atoms: N_12  and  C_15
REMARK                            x       y       z     vdW  Elec       q    Type
REMARK                         _______ _______ _______ _____ _____    ______ ____
ROOT
ATOM      1  N   UNL     1      33.890 -17.398 -21.121  0.00  0.00    +0.386 N 
ATOM      2  C   UNL     1      34.760 -18.557 -21.305  0.00  0.00    -0.037 C 
ATOM      3  C   UNL     1      35.794 -18.463 -22.441  0.00  0.00    -0.019 C 
ATOM      4  C   UNL     1      35.269 -18.272 -23.865  0.00  0.00    -0.002 C 
ATOM      5  C   UNL     1      34.452 -17.010 -24.154  0.00  0.00    -0.000 C 
ATOM      6  C   UNL     1      35.029 -15.717 -23.578  0.00  0.00    -0.002 C 
ATOM      7  C   UNL     1      34.364 -15.237 -22.284  0.00  0.00    -0.023 C 
ATOM      8  C   UNL     1      34.567 -16.111 -21.044  0.00  0.00    -0.082 C 
ATOM      9  H   UNL     1      33.368 -17.531 -20.255  0.00  0.00    -0.084 HD
ATOM     10  H   UNL     1      33.302 -17.356 -21.954  0.00  0.00    -0.084 HD
ENDROOT
BRANCH   2  11
ATOM     11  C   UNL     1      33.875 -19.798 -21.461  0.00  0.00    +0.107 C 
BRANCH  11  12
ATOM     12  N   UNL     1      33.380 -20.179 -20.145  0.00  0.00    -0.242 NA
BRANCH  12  15
ATOM     13  N   UNL     1      32.958 -22.262 -19.205  0.00  0.00    -0.370 N 
ATOM     14  N   UNL     1      35.142 -21.670 -19.480  0.00  0.00    -0.370 N 
ATOM     15  C   UNL     1      33.829 -21.292 -19.645  0.00  0.00    +0.188 C 
ATOM     16  H   UNL     1      31.987 -22.116 -19.267  0.00  0.00    +0.159 HD
ATOM     17  H   UNL     1      33.307 -23.101 -18.828  0.00  0.00    +0.159 HD
ATOM     18  H   UNL     1      35.867 -21.063 -19.756  0.00  0.00    +0.159 HD
ATOM     19  H   UNL     1      35.357 -22.546 -19.085  0.00  0.00    +0.159 HD
ENDBRANCH  12  15
ENDBRANCH  11  12
ENDBRANCH   2  11
TORSDOF 3
ENDMDL
MODEL 3
REMARK VINA RESULT:      -6.3      2.202      5.379
REMARK  Name = 36054
REMARK  3 active torsions:
REMARK  status: ('A' for Active; 'I' for Inactive)
REMARK    1  A    between atoms: C_2  and  C_11
REMARK    2  A    between atoms: C_11  and  N_12
REMARK    3  A    between atoms: N_12  and  C_15
REMARK                            x       y       z     vdW  Elec       q    Type
REMARK                         _______ _______ _______ _____ _____    ______ ____
ROOT
ATOM      1  N   UNL     1      33.803 -18.350 -20.940  0.00  0.00    +0.386 N 
ATOM      2  C   UNL     1      34.532 -17.792 -22.076  0.00  0.00    -0.037 C 
ATOM      3  C   UNL     1      35.741 -18.603 -22.579  0.00  0.00    -0.019 C 
ATOM      4  C   UNL     1      36.887 -18.851 -21.597  0.00  0.00    -0.002 C 
ATOM      5  C   UNL     1      36.568 -19.628 -20.318  0.00  0.00    -0.000 C 
ATOM      6  C   UNL     1      35.703 -20.874 -20.515  0.00  0.00    -0.002 C 
ATOM      7  C   UNL     1      34.223 -20.690 -20.167  0.00  0.00    -0.023 C 
ATOM      8  C   UNL     1      33.419 -19.748 -21.067  0.00  0.00    -0.082 C 
ATOM      9  H   UNL     1      32.953 -17.800 -20.812  0.00  0.00    -0.084 HD
ATOM     10  H   UNL     1      34.445 -18.306 -20.148  0.00  0.00    -0.084 HD
ENDROOT
BRANCH   2  11
ATOM     11  C   UNL     1      34.935 -16.356 -21.726  0.00  0.00    +0.107 C 
BRANCH  11  12
ATOM     12  N   UNL     1      34.891 -15.555 -22.943  0.00  0.00    -0.242 NA
BRANCH  12  15
ATOM     13  N   UNL     1      32.802 -14.688 -22.408  0.00  0.00    -0.370 N 
ATOM     14  N   UNL     1      34.251 -13.309 -23.501  0.00  0.00    -0.370 N 
ATOM     15  C   UNL     1      34.055 -14.561 -22.964  0.00  0.00    +0.188 C 
ATOM     16  H   UNL     1      32.534 -15.537 -21.989  0.00  0.00    +0.159 HD
ATOM     17  H   UNL     1      32.176 -13.929 -22.430  0.00  0.00    +0.159 HD
ATOM     18  H   UNL     1      35.109 -13.087 -23.932  0.00  0.00    +0.159 HD
ATOM     19  H   UNL     1      33.535 -12.635 -23.456  0.00  0.00    +0.159 HD
ENDBRANCH  12  15
ENDBRANCH  11  12
ENDBRANCH   2  11
TORSDOF 3
ENDMDL
MODEL 4
REMARK VINA RESULT:      -6.1      3.360      5.349
REMARK  Name = 36054
REMARK  3 active torsions:
REMARK  status: ('A' for Active; 'I' for Inactive)
REMARK    1  A    between atoms: C_2  and  C_11
REMARK    2  A    between atoms: C_11  and  N_12
REMARK    3  A    between atoms: N_12  and  C_15
REMARK                            x       y       z     vdW  Elec       q    Type
REMARK                         _______ _______ _______ _____ _____    ______ ____
ROOT
ATOM      1  N   UNL     1      33.908 -16.243 -23.809  0.00  0.00    +0.386 N 
ATOM      2  C   UNL     1      34.508 -15.789 -22.557  0.00  0.00    -0.037 C 
ATOM      3  C   UNL     1      35.350 -16.822 -21.787  0.00  0.00    -0.019 C 
ATOM      4  C   UNL     1      34.653 -18.101 -21.323  0.00  0.00    -0.002 C 
ATOM      5  C   UNL     1      34.050 -19.009 -22.397  0.00  0.00    -0.000 C 
ATOM      6  C   UNL     1      34.940 -19.252 -23.616  0.00  0.00    -0.002 C 
ATOM      7  C   UNL     1      34.588 -18.413 -24.848  0.00  0.00    -0.023 C 
ATOM      8  C   UNL     1      34.816 -16.903 -24.736  0.00  0.00    -0.082 C 
ATOM      9  H   UNL     1      33.513 -15.429 -24.281  0.00  0.00    -0.084 HD
ATOM     10  H   UNL     1      33.215 -16.944 -23.548  0.00  0.00    -0.084 HD
ENDROOT
BRANCH   2  11
ATOM     11  C   UNL     1      33.395 -15.214 -21.676  0.00  0.00    +0.107 C 
BRANCH  11  12
ATOM     12  N   UNL     1      32.408 -14.576 -22.538  0.00  0.00    -0.242 NA
BRANCH  12  15
ATOM     13  N   UNL     1      31.595 -12.512 -21.847  0.00  0.00    -0.370 N 
ATOM     14  N   UNL     1      33.256 -12.504 -23.408  0.00  0.00    -0.370 N 
ATOM     15  C   UNL     1      32.441 -13.279 -22.615  0.00  0.00    +0.188 C 
ATOM     16  H   UNL     1      30.958 -12.945 -21.234  0.00  0.00    +0.159 HD
ATOM     17  H   UNL     1      31.627 -11.530 -21.912  0.00  0.00    +0.159 HD
ATOM     18  H   UNL     1      33.910 -12.932 -24.008  0.00  0.00    +0.159 HD
ATOM     19  H   UNL     1      33.186 -11.523 -23.377  0.00  0.00    +0.159 HD
ENDBRANCH  12  15
ENDBRANCH  11  12
ENDBRANCH   2  11
TORSDOF 3
ENDMDL
MODEL 5
REMARK VINA RESULT:      -6.1      5.829      8.321
REMARK  Name = 36054
REMARK  3 active torsions:
REMARK  status: ('A' for Active; 'I' for Inactive)
REMARK    1  A    between atoms: C_2  and  C_11
REMARK    2  A    between atoms: C_11  and  N_12
REMARK    3  A    between atoms: N_12  and  C_15
REMARK                            x       y       z     vdW  Elec       q    Type
REMARK                         _______ _______ _______ _____ _____    ______ ____
ROOT
ATOM      1  N   UNL     1      32.495 -10.568 -22.431  0.00  0.00    +0.386 N 
ATOM      2  C   UNL     1      31.465 -11.548 -22.098  0.00  0.00    -0.037 C 
ATOM      3  C   UNL     1      30.589 -11.231 -20.872  0.00  0.00    -0.019 C 
ATOM      4  C   UNL     1      31.288 -11.079 -19.521  0.00  0.00    -0.002 C 
ATOM      5  C   UNL     1      32.334  -9.970 -19.385  0.00  0.00    -0.000 C 
ATOM      6  C   UNL     1      31.927  -8.619 -19.974  0.00  0.00    -0.002 C 
ATOM      7  C   UNL     1      32.522  -8.313 -21.352  0.00  0.00    -0.023 C 
ATOM      8  C   UNL     1      32.042  -9.187 -22.514  0.00  0.00    -0.082 C 
ATOM      9  H   UNL     1      32.892 -10.824 -23.336  0.00  0.00    -0.084 HD
ATOM     10  H   UNL     1      33.167 -10.597 -21.664  0.00  0.00    -0.084 HD
ENDROOT
BRANCH   2  11
ATOM     11  C   UNL     1      32.138 -12.918 -21.958  0.00  0.00    +0.107 C 
BRANCH  11  12
ATOM     12  N   UNL     1      32.334 -13.472 -23.292  0.00  0.00    -0.242 NA
BRANCH  12  15
ATOM     13  N   UNL     1      34.525 -14.002 -22.726  0.00  0.00    -0.370 N 
ATOM     14  N   UNL     1      33.551 -15.236 -24.377  0.00  0.00    -0.370 N 
ATOM     15  C   UNL     1      33.389 -14.207 -23.476  0.00  0.00    +0.188 C 
ATOM     16  H   UNL     1      34.541 -13.294 -22.042  0.00  0.00    +0.159 HD
ATOM     17  H   UNL     1      35.319 -14.563 -22.873  0.00  0.00    +0.159 HD
ATOM     18  H   UNL     1      32.811 -15.485 -24.977  0.00  0.00    +0.159 HD
ATOM     19  H   UNL     1      34.407 -15.721 -24.423  0.00  0.00    +0.159 HD
ENDBRANCH  12  15
ENDBRANCH  11  12
ENDBRANCH   2  11
TORSDOF 3
ENDMDL
MODEL 6
REMARK VINA RESULT:      -6.1      8.321      9.919
REMARK  Name = 36054
REMARK  3 active torsions:
REMARK  status: ('A' for Active; 'I' for Inactive)
REMARK    1  A    between atoms: C_2  and  C_11
REMARK    2  A    between atoms: C_11  and  N_12
REMARK    3  A    between atoms: N_12  and  C_15
REMARK                            x       y       z     vdW  Elec       q    Type
REMARK                         _______ _______ _______ _____ _____    ______ ____
ROOT
ATOM      1  N   UNL     1      33.615 -24.881 -14.098  0.00  0.00    +0.386 N 
ATOM      2  C   UNL     1      34.880 -24.269 -14.497  0.00  0.00    -0.037 C 
ATOM      3  C   UNL     1      34.783 -23.006 -15.371  0.00  0.00    -0.019 C 
ATOM      4  C   UNL     1      34.087 -23.133 -16.727  0.00  0.00    -0.002 C 
ATOM      5  C   UNL     1      32.618 -23.562 -16.731  0.00  0.00    -0.000 C 
ATOM      6  C   UNL     1      31.735 -22.863 -15.697  0.00  0.00    -0.002 C 
ATOM      7  C   UNL     1      31.445 -23.686 -14.438  0.00  0.00    -0.023 C 
ATOM      8  C   UNL     1      32.635 -23.974 -13.518  0.00  0.00    -0.082 C 
ATOM      9  H   UNL     1      33.819 -25.606 -13.410  0.00  0.00    -0.084 HD
ATOM     10  H   UNL     1      33.194 -25.237 -14.957  0.00  0.00    -0.084 HD
ENDROOT
BRANCH   2  11
ATOM     11  C   UNL     1      35.739 -25.345 -15.170  0.00  0.00    +0.107 C 
BRANCH  11  12
ATOM     12  N   UNL     1      37.134 -25.098 -14.831  0.00  0.00    -0.242 NA
BRANCH  12  15
ATOM     13  N   UNL     1      37.061 -27.036 -13.549  0.00  0.00    -0.370 N 
ATOM     14  N   UNL     1      39.121 -26.198 -14.048  0.00  0.00    -0.370 N 
ATOM     15  C   UNL     1      37.761 -26.040 -14.190  0.00  0.00    +0.188 C 
ATOM     16  H   UNL     1      36.077 -27.040 -13.574  0.00  0.00    +0.159 HD
ATOM     17  H   UNL     1      37.545 -27.744 -13.067  0.00  0.00    +0.159 HD
ATOM     18  H   UNL     1      39.738 -25.550 -14.461  0.00  0.00    +0.159 HD
ATOM     19  H   UNL     1      39.478 -26.958 -13.535  0.00  0.00    +0.159 HD
ENDBRANCH  12  15
ENDBRANCH  11  12
ENDBRANCH   2  11
TORSDOF 3
ENDMDL
MODEL 7
REMARK VINA RESULT:      -6.0      3.829      6.258
REMARK  Name = 36054
REMARK  3 active torsions:
REMARK  status: ('A' for Active; 'I' for Inactive)
REMARK    1  A    between atoms: C_2  and  C_11
REMARK    2  A    between atoms: C_11  and  N_12
REMARK    3  A    between atoms: N_12  and  C_15
REMARK                            x       y       z     vdW  Elec       q    Type
REMARK                         _______ _______ _______ _____ _____    ______ ____
ROOT
ATOM      1  N   UNL     1      33.692 -15.616 -23.975  0.00  0.00    +0.386 N 
ATOM      2  C   UNL     1      33.825 -14.414 -23.155  0.00  0.00    -0.037 C 
ATOM      3  C   UNL     1      34.659 -14.552 -21.869  0.00  0.00    -0.019 C 
ATOM      4  C   UNL     1      34.188 -15.563 -20.822  0.00  0.00    -0.002 C 
ATOM      5  C   UNL     1      34.114 -17.033 -21.241  0.00  0.00    -0.000 C 
ATOM      6  C   UNL     1      35.320 -17.545 -22.029  0.00  0.00    -0.002 C 
ATOM      7  C   UNL     1      35.109 -17.630 -23.544  0.00  0.00    -0.023 C 
ATOM      8  C   UNL     1      34.938 -16.302 -24.287  0.00  0.00    -0.082 C 
ATOM      9  H   UNL     1      33.251 -15.348 -24.856  0.00  0.00    -0.084 HD
ATOM     10  H   UNL     1      33.141 -16.272 -23.422  0.00  0.00    -0.084 HD
ENDROOT
BRANCH   2  11
ATOM     11  C   UNL     1      32.418 -13.888 -22.850  0.00  0.00    +0.107 C 
BRANCH  11  12
ATOM     12  N   UNL     1      32.522 -12.481 -22.484  0.00  0.00    -0.242 NA
BRANCH  12  15
ATOM     13  N   UNL     1      31.909 -12.248 -20.255  0.00  0.00    -0.370 N 
ATOM     14  N   UNL     1      30.517 -11.340 -21.816  0.00  0.00    -0.370 N 
ATOM     15  C   UNL     1      31.683 -12.039 -21.596  0.00  0.00    +0.188 C 
ATOM     16  H   UNL     1      32.711 -12.737 -19.962  0.00  0.00    +0.159 HD
ATOM     17  H   UNL     1      31.267 -11.910 -19.590  0.00  0.00    +0.159 HD
ATOM     18  H   UNL     1      30.239 -11.124 -22.735  0.00  0.00    +0.159 HD
ATOM     19  H   UNL     1      29.961 -11.057 -21.054  0.00  0.00    +0.159 HD
ENDBRANCH  12  15
ENDBRANCH  11  12
ENDBRANCH   2  11
TORSDOF 3
ENDMDL
MODEL 8
REMARK VINA RESULT:      -6.0      3.762      6.921
REMARK  Name = 36054
REMARK  3 active torsions:
REMARK  status: ('A' for Active; 'I' for Inactive)
REMARK    1  A    between atoms: C_2  and  C_11
REMARK    2  A    between atoms: C_11  and  N_12
REMARK    3  A    between atoms: N_12  and  C_15
REMARK                            x       y       z     vdW  Elec       q    Type
REMARK                         _______ _______ _______ _____ _____    ______ ____
ROOT
ATOM      1  N   UNL     1      34.028 -15.861 -24.000  0.00  0.00    +0.386 N 
ATOM      2  C   UNL     1      34.202 -14.497 -23.508  0.00  0.00    -0.037 C 
ATOM      3  C   UNL     1      34.572 -14.349 -22.021  0.00  0.00    -0.019 C 
ATOM      4  C   UNL     1      33.593 -14.905 -20.986  0.00  0.00    -0.002 C 
ATOM      5  C   UNL     1      33.294 -16.405 -21.029  0.00  0.00    -0.000 C 
ATOM      6  C   UNL     1      34.518 -17.306 -21.201  0.00  0.00    -0.002 C 
ATOM      7  C   UNL     1      34.738 -17.825 -22.626  0.00  0.00    -0.023 C 
ATOM      8  C   UNL     1      35.110 -16.784 -23.685  0.00  0.00    -0.082 C 
ATOM      9  H   UNL     1      33.937 -15.820 -25.016  0.00  0.00    -0.084 HD
ATOM     10  H   UNL     1      33.201 -16.226 -23.528  0.00  0.00    -0.084 HD
ENDROOT
BRANCH   2  11
ATOM     11  C   UNL     1      32.935 -13.704 -23.845  0.00  0.00    +0.107 C 
BRANCH  11  12
ATOM     12  N   UNL     1      33.209 -12.288 -23.636  0.00  0.00    -0.242 NA
BRANCH  12  15
ATOM     13  N   UNL     1      34.793 -10.701 -24.246  0.00  0.00    -0.370 N 
ATOM     14  N   UNL     1      33.782 -11.860 -25.929  0.00  0.00    -0.370 N 
ATOM     15  C   UNL     1      33.872 -11.672 -24.568  0.00  0.00    +0.188 C 
ATOM     16  H   UNL     1      34.955 -10.470 -23.304  0.00  0.00    +0.159 HD
ATOM     17  H   UNL     1      35.290 -10.240 -24.959  0.00  0.00    +0.159 HD
ATOM     18  H   UNL     1      33.156 -12.528 -26.293  0.00  0.00    +0.159 HD
ATOM     19  H   UNL     1      34.341 -11.327 -26.539  0.00  0.00    +0.159 HD
ENDBRANCH  12  15
ENDBRANCH  11  12
ENDBRANCH   2  11
TORSDOF 3
ENDMDL
MODEL 9
REMARK VINA RESULT:      -6.0      7.083     10.173
REMARK  Name = 36054
REMARK  3 active torsions:
REMARK  status: ('A' for Active; 'I' for Inactive)
REMARK    1  A    between atoms: C_2  and  C_11
REMARK    2  A    between atoms: C_11  and  N_12
REMARK    3  A    between atoms: N_12  and  C_15
REMARK                            x       y       z     vdW  Elec       q    Type
REMARK                         _______ _______ _______ _____ _____    ______ ____
ROOT
ATOM      1  N   UNL     1      35.242 -23.224 -13.529  0.00  0.00    +0.386 N 
ATOM      2  C   UNL     1      34.911 -24.005 -14.718  0.00  0.00    -0.037 C 
ATOM      3  C   UNL     1      35.701 -25.311 -14.921  0.00  0.00    -0.019 C 
ATOM      4  C   UNL     1      37.221 -25.207 -15.059  0.00  0.00    -0.002 C 
ATOM      5  C   UNL     1      38.000 -24.614 -13.883  0.00  0.00    -0.000 C 
ATOM      6  C   UNL     1      37.584 -25.127 -12.504  0.00  0.00    -0.002 C 
ATOM      7  C   UNL     1      36.670 -24.183 -11.716  0.00  0.00    -0.023 C 
ATOM      8  C   UNL     1      35.262 -23.966 -12.277  0.00  0.00    -0.082 C 
ATOM      9  H   UNL     1      34.551 -22.478 -13.441  0.00  0.00    -0.084 HD
ATOM     10  H   UNL     1      36.194 -22.888 -13.672  0.00  0.00    -0.084 HD
ENDROOT
BRANCH   2  11
ATOM     11  C   UNL     1      35.034 -23.088 -15.940  0.00  0.00    +0.107 C 
BRANCH  11  12
ATOM     12  N   UNL     1      34.298 -23.691 -17.044  0.00  0.00    -0.242 NA
BRANCH  12  15
ATOM     13  N   UNL     1      32.961 -22.486 -18.513  0.00  0.00    -0.370 N 
ATOM     14  N   UNL     1      31.989 -23.213 -16.584  0.00  0.00    -0.370 N 
ATOM     15  C   UNL     1      33.142 -23.173 -17.335  0.00  0.00    +0.188 C 
ATOM     16  H   UNL     1      33.710 -22.384 -19.144  0.00  0.00    +0.159 HD
ATOM     17  H   UNL     1      32.082 -22.096 -18.725  0.00  0.00    +0.159 HD
ATOM     18  H   UNL     1      31.984 -23.676 -15.714  0.00  0.00    +0.159 HD
ATOM     19  H   UNL     1      31.170 -22.778 -16.914  0.00  0.00    +0.159 HD
ENDBRANCH  12  15
ENDBRANCH  11  12
ENDBRANCH   2  11
TORSDOF 3
ENDMDL
