MODEL 1
REMARK VINA RESULT:     -10.3      0.000      0.000
REMARK  Name = 16117309
REMARK  14 active torsions:
REMARK  status: ('A' for Active; 'I' for Inactive)
REMARK    1  A    between atoms: C_1  and  C_5
REMARK    2  A    between atoms: C_1  and  C_24
REMARK    3  A    between atoms: C_2  and  C_14
REMARK    4  A    between atoms: N_4  and  C_7
REMARK    5  A    between atoms: C_7  and  C_8
REMARK    6  A    between atoms: C_8  and  C_9
REMARK    7  A    between atoms: C_9  and  N_10
REMARK    8  A    between atoms: C_14  and  C_15
REMARK    9  A    between atoms: C_15  and  C_16
REMARK   10  A    between atoms: C_16  and  C_17
REMARK   11  A    between atoms: C_17  and  C_20
REMARK   12  A    between atoms: N_19  and  O_22
REMARK   13  A    between atoms: C_24  and  O_25
REMARK   14  A    between atoms: O_25  and  C_26
REMARK                            x       y       z     vdW  Elec       q    Type
REMARK                         _______ _______ _______ _____ _____    ______ ____
ROOT
ATOM      1  C   UNL     1      35.926 -23.126 -16.100  0.00  0.00    +0.070 C 
ATOM      2  C   UNL     1      34.816 -23.737 -15.647  0.00  0.00    -0.022 C 
ENDROOT
BRANCH   1   5
ATOM      3  O   UNL     1      38.247 -22.939 -15.658  0.00  0.00    -0.270 OA
ATOM      4  N   UNL     1      37.200 -24.959 -15.177  0.00  0.00    -0.301 N 
ATOM      5  C   UNL     1      37.242 -23.645 -15.607  0.00  0.00    +0.245 C 
ATOM      6  H   UNL     1      36.334 -25.429 -15.180  0.00  0.00    +0.150 HD
BRANCH   4   7
ATOM      7  C   UNL     1      38.372 -25.672 -14.726  0.00  0.00    +0.088 C 
BRANCH   7   8
ATOM      8  C   UNL     1      38.510 -25.668 -13.205  0.00  0.00    -0.002 C 
BRANCH   8   9
ATOM      9  C   UNL     1      37.189 -25.842 -12.449  0.00  0.00    -0.076 C 
BRANCH   9  10
ATOM     10  N   UNL     1      36.840 -24.653 -11.682  0.00  0.00    +0.384 N 
ATOM     11  C   UNL     1      35.501 -24.181 -12.043  0.00  0.00    -0.101 C 
ATOM     12  C   UNL     1      37.826 -23.593 -11.895  0.00  0.00    -0.101 C 
ATOM     13  H   UNL     1      36.840 -24.901 -10.692  0.00  0.00    -0.080 HD
ENDBRANCH   9  10
ENDBRANCH   8   9
ENDBRANCH   7   8
ENDBRANCH   4   7
ENDBRANCH   1   5
BRANCH   2  14
ATOM     14  C   UNL     1      33.389 -23.389 -15.964  0.00  0.00    +0.026 C 
BRANCH  14  15
ATOM     15  C   UNL     1      32.537 -23.193 -14.706  0.00  0.00    +0.005 C 
BRANCH  15  16
ATOM     16  C   UNL     1      31.037 -23.383 -14.967  0.00  0.00    +0.010 C 
BRANCH  16  17
ATOM     17  C   UNL     1      30.586 -22.712 -16.265  0.00  0.00    +0.087 C 
BRANCH  17  20
ATOM     18  O   UNL     1      28.369 -21.976 -15.627  0.00  0.00    -0.273 OA
ATOM     19  N   UNL     1      28.619 -23.320 -17.489  0.00  0.00    -0.197 N 
ATOM     20  C   UNL     1      29.077 -22.609 -16.406  0.00  0.00    +0.244 C 
ATOM     21  H   UNL     1      29.228 -23.812 -18.086  0.00  0.00    +0.182 HD
BRANCH  19  22
ATOM     22  O   UNL     1      27.233 -23.300 -17.690  0.00  0.00    -0.295 OA
ATOM     23  H   UNL     1      26.782 -23.299 -16.831  0.00  0.00    +0.241 HD
ENDBRANCH  19  22
ENDBRANCH  17  20
ENDBRANCH  16  17
ENDBRANCH  15  16
ENDBRANCH  14  15
ENDBRANCH   2  14
BRANCH   1  24
ATOM     24  C   UNL     1      35.997 -21.934 -17.006  0.00  0.00    +0.236 C 
BRANCH  24  25
ATOM     25  O   UNL     1      35.824 -22.362 -18.352  0.00  0.00    -0.470 OA
BRANCH  25  26
ATOM     26  C   UNL     1      34.940 -21.649 -19.117  0.00  0.00    +0.139 C 
ATOM     27  C   UNL     1      35.376 -20.632 -19.981  0.00  0.00    +0.034 C 
ATOM     28  C   UNL     1      34.423 -19.923 -20.751  0.00  0.00    +0.003 C 
ATOM     29  C   UNL     1      33.585 -21.963 -19.013  0.00  0.00    +0.037 C 
ATOM     30  C   UNL     1      36.736 -20.303 -20.099  0.00  0.00    +0.003 C 
ATOM     31  C   UNL     1      33.063 -20.252 -20.634  0.00  0.00    +0.000 C 
ATOM     32  C   UNL     1      32.648 -21.266 -19.770  0.00  0.00    +0.003 C 
ATOM     33  C   UNL     1      34.859 -18.905 -21.615  0.00  0.00    +0.000 C 
ATOM     34  C   UNL     1      37.151 -19.289 -20.962  0.00  0.00    +0.000 C 
ATOM     35  C   UNL     1      36.214 -18.591 -21.719  0.00  0.00    +0.000 C 
ENDBRANCH  25  26
ENDBRANCH  24  25
ENDBRANCH   1  24
TORSDOF 14
ENDMDL
MODEL 2
REMARK VINA RESULT:     -10.1      7.749     12.174
REMARK  Name = 16117309
REMARK  14 active torsions:
REMARK  status: ('A' for Active; 'I' for Inactive)
REMARK    1  A    between atoms: C_1  and  C_5
REMARK    2  A    between atoms: C_1  and  C_24
REMARK    3  A    between atoms: C_2  and  C_14
REMARK    4  A    between atoms: N_4  and  C_7
REMARK    5  A    between atoms: C_7  and  C_8
REMARK    6  A    between atoms: C_8  and  C_9
REMARK    7  A    between atoms: C_9  and  N_10
REMARK    8  A    between atoms: C_14  and  C_15
REMARK    9  A    between atoms: C_15  and  C_16
REMARK   10  A    between atoms: C_16  and  C_17
REMARK   11  A    between atoms: C_17  and  C_20
REMARK   12  A    between atoms: N_19  and  O_22
REMARK   13  A    between atoms: C_24  and  O_25
REMARK   14  A    between atoms: O_25  and  C_26
REMARK                            x       y       z     vdW  Elec       q    Type
REMARK                         _______ _______ _______ _____ _____    ______ ____
ROOT
ATOM      1  C   UNL     1      33.804 -15.500 -22.902  0.00  0.00    +0.070 C 
ATOM      2  C   UNL     1      32.855 -14.905 -22.156  0.00  0.00    -0.022 C 
ENDROOT
BRANCH   1   5
ATOM      3  O   UNL     1      34.199 -16.107 -25.159  0.00  0.00    -0.270 OA
ATOM      4  N   UNL     1      33.258 -14.023 -24.734  0.00  0.00    -0.301 N 
ATOM      5  C   UNL     1      33.761 -15.262 -24.381  0.00  0.00    +0.245 C 
ATOM      6  H   UNL     1      32.933 -13.425 -24.021  0.00  0.00    +0.150 HD
BRANCH   4   7
ATOM      7  C   UNL     1      33.191 -13.568 -26.103  0.00  0.00    +0.088 C 
BRANCH   7   8
ATOM      8  C   UNL     1      33.738 -12.152 -26.277  0.00  0.00    -0.002 C 
BRANCH   8   9
ATOM      9  C   UNL     1      33.867 -11.358 -24.974  0.00  0.00    -0.076 C 
BRANCH   9  10
ATOM     10  N   UNL     1      35.107 -10.595 -24.920  0.00  0.00    +0.384 N 
ATOM     11  C   UNL     1      34.895  -9.311 -24.250  0.00  0.00    -0.101 C 
ATOM     12  C   UNL     1      35.640 -10.382 -26.267  0.00  0.00    -0.101 C 
ATOM     13  H   UNL     1      35.789 -11.132 -24.384  0.00  0.00    -0.080 HD
ENDBRANCH   9  10
ENDBRANCH   8   9
ENDBRANCH   7   8
ENDBRANCH   4   7
ENDBRANCH   1   5
BRANCH   2  14
ATOM     14  C   UNL     1      32.666 -15.010 -20.669  0.00  0.00    +0.026 C 
BRANCH  14  15
ATOM     15  C   UNL     1      32.585 -13.640 -19.987  0.00  0.00    +0.005 C 
BRANCH  15  16
ATOM     16  C   UNL     1      31.918 -12.575 -20.869  0.00  0.00    +0.010 C 
BRANCH  16  17
ATOM     17  C   UNL     1      31.382 -11.400 -20.051  0.00  0.00    +0.087 C 
BRANCH  17  20
ATOM     18  O   UNL     1      31.938  -9.678 -21.659  0.00  0.00    -0.273 OA
ATOM     19  N   UNL     1      32.414  -9.332 -19.426  0.00  0.00    -0.197 N 
ATOM     20  C   UNL     1      31.927 -10.053 -20.489  0.00  0.00    +0.244 C 
ATOM     21  H   UNL     1      32.383  -9.675 -18.504  0.00  0.00    +0.182 HD
BRANCH  19  22
ATOM     22  O   UNL     1      32.958  -8.078 -19.736  0.00  0.00    -0.295 OA
ATOM     23  H   UNL     1      33.063  -7.561 -18.922  0.00  0.00    +0.241 HD
ENDBRANCH  19  22
ENDBRANCH  17  20
ENDBRANCH  16  17
ENDBRANCH  15  16
ENDBRANCH  14  15
ENDBRANCH   2  14
BRANCH   1  24
ATOM     24  C   UNL     1      34.878 -16.431 -22.426  0.00  0.00    +0.236 C 
BRANCH  24  25
ATOM     25  O   UNL     1      34.303 -17.704 -22.157  0.00  0.00    -0.470 OA
BRANCH  25  26
ATOM     26  C   UNL     1      35.096 -18.616 -21.514  0.00  0.00    +0.139 C 
ATOM     27  C   UNL     1      34.543 -19.670 -20.769  0.00  0.00    +0.034 C 
ATOM     28  C   UNL     1      35.406 -20.587 -20.121  0.00  0.00    +0.003 C 
ATOM     29  C   UNL     1      36.480 -18.468 -21.619  0.00  0.00    +0.037 C 
ATOM     30  C   UNL     1      33.153 -19.836 -20.652  0.00  0.00    +0.003 C 
ATOM     31  C   UNL     1      36.795 -20.422 -20.237  0.00  0.00    +0.000 C 
ATOM     32  C   UNL     1      37.327 -19.369 -20.982  0.00  0.00    +0.003 C 
ATOM     33  C   UNL     1      34.852 -21.641 -19.376  0.00  0.00    +0.000 C 
ATOM     34  C   UNL     1      32.621 -20.888 -19.908  0.00  0.00    +0.000 C 
ATOM     35  C   UNL     1      33.469 -21.789 -19.271  0.00  0.00    +0.000 C 
ENDBRANCH  25  26
ENDBRANCH  24  25
ENDBRANCH   1  24
TORSDOF 14
ENDMDL
MODEL 3
REMARK VINA RESULT:     -10.0      9.831     14.042
REMARK  Name = 16117309
REMARK  14 active torsions:
REMARK  status: ('A' for Active; 'I' for Inactive)
REMARK    1  A    between atoms: C_1  and  C_5
REMARK    2  A    between atoms: C_1  and  C_24
REMARK    3  A    between atoms: C_2  and  C_14
REMARK    4  A    between atoms: N_4  and  C_7
REMARK    5  A    between atoms: C_7  and  C_8
REMARK    6  A    between atoms: C_8  and  C_9
REMARK    7  A    between atoms: C_9  and  N_10
REMARK    8  A    between atoms: C_14  and  C_15
REMARK    9  A    between atoms: C_15  and  C_16
REMARK   10  A    between atoms: C_16  and  C_17
REMARK   11  A    between atoms: C_17  and  C_20
REMARK   12  A    between atoms: N_19  and  O_22
REMARK   13  A    between atoms: C_24  and  O_25
REMARK   14  A    between atoms: O_25  and  C_26
REMARK                            x       y       z     vdW  Elec       q    Type
REMARK                         _______ _______ _______ _____ _____    ______ ____
ROOT
ATOM      1  C   UNL     1      33.192 -12.323 -23.648  0.00  0.00    +0.070 C 
ATOM      2  C   UNL     1      32.540 -11.949 -22.532  0.00  0.00    -0.022 C 
ENDROOT
BRANCH   1   5
ATOM      3  O   UNL     1      34.180 -11.453 -25.619  0.00  0.00    -0.270 OA
ATOM      4  N   UNL     1      34.056 -10.070 -23.753  0.00  0.00    -0.301 N 
ATOM      5  C   UNL     1      33.841 -11.242 -24.457  0.00  0.00    +0.245 C 
ATOM      6  H   UNL     1      33.739 -10.014 -22.822  0.00  0.00    +0.150 HD
BRANCH   4   7
ATOM      7  C   UNL     1      34.728  -8.927 -24.326  0.00  0.00    +0.088 C 
BRANCH   7   8
ATOM      8  C   UNL     1      34.467  -7.642 -23.543  0.00  0.00    -0.002 C 
BRANCH   8   9
ATOM      9  C   UNL     1      33.487  -6.678 -24.218  0.00  0.00    -0.076 C 
BRANCH   9  10
ATOM     10  N   UNL     1      32.211  -6.619 -23.518  0.00  0.00    +0.384 N 
ATOM     11  C   UNL     1      31.219  -7.470 -24.178  0.00  0.00    -0.101 C 
ATOM     12  C   UNL     1      31.726  -5.239 -23.444  0.00  0.00    -0.101 C 
ATOM     13  H   UNL     1      32.352  -6.963 -22.568  0.00  0.00    -0.080 HD
ENDBRANCH   9  10
ENDBRANCH   8   9
ENDBRANCH   7   8
ENDBRANCH   4   7
ENDBRANCH   1   5
BRANCH   2  14
ATOM     14  C   UNL     1      31.788 -12.832 -21.576  0.00  0.00    +0.026 C 
BRANCH  14  15
ATOM     15  C   UNL     1      31.875 -12.340 -20.128  0.00  0.00    +0.005 C 
BRANCH  15  16
ATOM     16  C   UNL     1      31.051 -11.069 -19.880  0.00  0.00    +0.010 C 
BRANCH  16  17
ATOM     17  C   UNL     1      31.885  -9.950 -19.257  0.00  0.00    +0.087 C 
BRANCH  17  20
ATOM     18  O   UNL     1      32.298  -8.944 -21.420  0.00  0.00    -0.273 OA
ATOM     19  N   UNL     1      32.282  -7.605 -19.539  0.00  0.00    -0.197 N 
ATOM     20  C   UNL     1      32.170  -8.801 -20.207  0.00  0.00    +0.244 C 
ATOM     21  H   UNL     1      32.171  -7.540 -18.563  0.00  0.00    +0.182 HD
BRANCH  19  22
ATOM     22  O   UNL     1      32.565  -6.486 -20.333  0.00  0.00    -0.295 OA
ATOM     23  H   UNL     1      32.051  -5.727 -20.016  0.00  0.00    +0.241 HD
ENDBRANCH  19  22
ENDBRANCH  17  20
ENDBRANCH  16  17
ENDBRANCH  15  16
ENDBRANCH  14  15
ENDBRANCH   2  14
BRANCH   1  24
ATOM     24  C   UNL     1      33.295 -13.707 -24.215  0.00  0.00    +0.236 C 
BRANCH  24  25
ATOM     25  O   UNL     1      34.575 -14.244 -23.902  0.00  0.00    -0.470 OA
BRANCH  25  26
ATOM     26  C   UNL     1      34.608 -15.269 -22.994  0.00  0.00    +0.139 C 
ATOM     27  C   UNL     1      34.635 -16.610 -23.408  0.00  0.00    +0.034 C 
ATOM     28  C   UNL     1      34.668 -17.635 -22.431  0.00  0.00    +0.003 C 
ATOM     29  C   UNL     1      34.615 -14.942 -21.638  0.00  0.00    +0.037 C 
ATOM     30  C   UNL     1      34.629 -16.959 -24.769  0.00  0.00    +0.003 C 
ATOM     31  C   UNL     1      34.674 -17.288 -21.071  0.00  0.00    +0.000 C 
ATOM     32  C   UNL     1      34.647 -15.949 -20.679  0.00  0.00    +0.003 C 
ATOM     33  C   UNL     1      34.694 -18.977 -22.846  0.00  0.00    +0.000 C 
ATOM     34  C   UNL     1      34.656 -18.297 -25.161  0.00  0.00    +0.000 C 
ATOM     35  C   UNL     1      34.688 -19.304 -24.202  0.00  0.00    +0.000 C 
ENDBRANCH  25  26
ENDBRANCH  24  25
ENDBRANCH   1  24
TORSDOF 14
ENDMDL
MODEL 4
REMARK VINA RESULT:      -9.9      1.536      2.309
REMARK  Name = 16117309
REMARK  14 active torsions:
REMARK  status: ('A' for Active; 'I' for Inactive)
REMARK    1  A    between atoms: C_1  and  C_5
REMARK    2  A    between atoms: C_1  and  C_24
REMARK    3  A    between atoms: C_2  and  C_14
REMARK    4  A    between atoms: N_4  and  C_7
REMARK    5  A    between atoms: C_7  and  C_8
REMARK    6  A    between atoms: C_8  and  C_9
REMARK    7  A    between atoms: C_9  and  N_10
REMARK    8  A    between atoms: C_14  and  C_15
REMARK    9  A    between atoms: C_15  and  C_16
REMARK   10  A    between atoms: C_16  and  C_17
REMARK   11  A    between atoms: C_17  and  C_20
REMARK   12  A    between atoms: N_19  and  O_22
REMARK   13  A    between atoms: C_24  and  O_25
REMARK   14  A    between atoms: O_25  and  C_26
REMARK                            x       y       z     vdW  Elec       q    Type
REMARK                         _______ _______ _______ _____ _____    ______ ____
ROOT
ATOM      1  C   UNL     1      33.590 -23.511 -16.473  0.00  0.00    +0.070 C 
ATOM      2  C   UNL     1      32.629 -23.348 -15.545  0.00  0.00    -0.022 C 
ENDROOT
BRANCH   1   5
ATOM      3  O   UNL     1      35.312 -25.009 -15.834  0.00  0.00    -0.270 OA
ATOM      4  N   UNL     1      35.730 -22.726 -15.676  0.00  0.00    -0.301 N 
ATOM      5  C   UNL     1      34.967 -23.839 -15.983  0.00  0.00    +0.245 C 
ATOM      6  H   UNL     1      35.349 -21.833 -15.838  0.00  0.00    +0.150 HD
BRANCH   4   7
ATOM      7  C   UNL     1      37.062 -22.820 -15.125  0.00  0.00    +0.088 C 
BRANCH   7   8
ATOM      8  C   UNL     1      37.061 -23.244 -13.658  0.00  0.00    -0.002 C 
BRANCH   8   9
ATOM      9  C   UNL     1      38.005 -24.405 -13.333  0.00  0.00    -0.076 C 
BRANCH   9  10
ATOM     10  N   UNL     1      38.256 -25.245 -14.498  0.00  0.00    +0.384 N 
ATOM     11  C   UNL     1      37.683 -26.579 -14.306  0.00  0.00    -0.101 C 
ATOM     12  C   UNL     1      39.693 -25.344 -14.763  0.00  0.00    -0.101 C 
ATOM     13  H   UNL     1      37.807 -24.813 -15.306  0.00  0.00    -0.080 HD
ENDBRANCH   9  10
ENDBRANCH   8   9
ENDBRANCH   7   8
ENDBRANCH   4   7
ENDBRANCH   1   5
BRANCH   2  14
ATOM     14  C   UNL     1      31.189 -22.989 -15.777  0.00  0.00    +0.026 C 
BRANCH  14  15
ATOM     15  C   UNL     1      30.281 -24.221 -15.861  0.00  0.00    +0.005 C 
BRANCH  15  16
ATOM     16  C   UNL     1      28.865 -23.954 -15.334  0.00  0.00    +0.010 C 
BRANCH  16  17
ATOM     17  C   UNL     1      28.356 -22.565 -15.721  0.00  0.00    +0.087 C 
BRANCH  17  20
ATOM     18  O   UNL     1      27.745 -23.305 -17.944  0.00  0.00    -0.273 OA
ATOM     19  N   UNL     1      26.554 -21.588 -16.959  0.00  0.00    -0.197 N 
ATOM     20  C   UNL     1      27.534 -22.551 -16.997  0.00  0.00    +0.244 C 
ATOM     21  H   UNL     1      26.424 -21.006 -16.176  0.00  0.00    +0.182 HD
BRANCH  19  22
ATOM     22  O   UNL     1      25.755 -21.485 -18.105  0.00  0.00    -0.295 OA
ATOM     23  H   UNL     1      25.100 -22.200 -18.107  0.00  0.00    +0.241 HD
ENDBRANCH  19  22
ENDBRANCH  17  20
ENDBRANCH  16  17
ENDBRANCH  15  16
ENDBRANCH  14  15
ENDBRANCH   2  14
BRANCH   1  24
ATOM     24  C   UNL     1      33.453 -23.343 -17.956  0.00  0.00    +0.236 C 
BRANCH  24  25
ATOM     25  O   UNL     1      34.528 -22.544 -18.435  0.00  0.00    -0.470 OA
BRANCH  25  26
ATOM     26  C   UNL     1      34.203 -21.512 -19.275  0.00  0.00    +0.139 C 
ATOM     27  C   UNL     1      35.194 -20.741 -19.903  0.00  0.00    +0.034 C 
ATOM     28  C   UNL     1      34.807 -19.685 -20.763  0.00  0.00    +0.003 C 
ATOM     29  C   UNL     1      32.850 -21.247 -19.492  0.00  0.00    +0.037 C 
ATOM     30  C   UNL     1      36.560 -20.993 -19.697  0.00  0.00    +0.003 C 
ATOM     31  C   UNL     1      33.441 -19.432 -20.970  0.00  0.00    +0.000 C 
ATOM     32  C   UNL     1      32.470 -20.209 -20.337  0.00  0.00    +0.003 C 
ATOM     33  C   UNL     1      35.799 -18.913 -21.390  0.00  0.00    +0.000 C 
ATOM     34  C   UNL     1      37.531 -20.216 -20.329  0.00  0.00    +0.000 C 
ATOM     35  C   UNL     1      37.151 -19.178 -21.174  0.00  0.00    +0.000 C 
ENDBRANCH  25  26
ENDBRANCH  24  25
ENDBRANCH   1  24
TORSDOF 14
ENDMDL
MODEL 5
REMARK VINA RESULT:      -9.8      1.406      2.627
REMARK  Name = 16117309
REMARK  14 active torsions:
REMARK  status: ('A' for Active; 'I' for Inactive)
REMARK    1  A    between atoms: C_1  and  C_5
REMARK    2  A    between atoms: C_1  and  C_24
REMARK    3  A    between atoms: C_2  and  C_14
REMARK    4  A    between atoms: N_4  and  C_7
REMARK    5  A    between atoms: C_7  and  C_8
REMARK    6  A    between atoms: C_8  and  C_9
REMARK    7  A    between atoms: C_9  and  N_10
REMARK    8  A    between atoms: C_14  and  C_15
REMARK    9  A    between atoms: C_15  and  C_16
REMARK   10  A    between atoms: C_16  and  C_17
REMARK   11  A    between atoms: C_17  and  C_20
REMARK   12  A    between atoms: N_19  and  O_22
REMARK   13  A    between atoms: C_24  and  O_25
REMARK   14  A    between atoms: O_25  and  C_26
REMARK                            x       y       z     vdW  Elec       q    Type
REMARK                         _______ _______ _______ _____ _____    ______ ____
ROOT
ATOM      1  C   UNL     1      33.770 -23.534 -16.035  0.00  0.00    +0.070 C 
ATOM      2  C   UNL     1      32.608 -23.333 -15.385  0.00  0.00    -0.022 C 
ENDROOT
BRANCH   1   5
ATOM      3  O   UNL     1      36.090 -23.899 -15.721  0.00  0.00    -0.270 OA
ATOM      4  N   UNL     1      34.804 -23.361 -13.859  0.00  0.00    -0.301 N 
ATOM      5  C   UNL     1      35.016 -23.600 -15.206  0.00  0.00    +0.245 C 
ATOM      6  H   UNL     1      33.896 -23.128 -13.558  0.00  0.00    +0.150 HD
BRANCH   4   7
ATOM      7  C   UNL     1      35.860 -23.441 -12.877  0.00  0.00    +0.088 C 
BRANCH   7   8
ATOM      8  C   UNL     1      36.112 -24.871 -12.404  0.00  0.00    -0.002 C 
BRANCH   8   9
ATOM      9  C   UNL     1      37.562 -25.342 -12.555  0.00  0.00    -0.076 C 
BRANCH   9  10
ATOM     10  N   UNL     1      37.900 -25.628 -13.943  0.00  0.00    +0.384 N 
ATOM     11  C   UNL     1      37.265 -26.872 -14.384  0.00  0.00    -0.101 C 
ATOM     12  C   UNL     1      39.352 -25.712 -14.114  0.00  0.00    -0.101 C 
ATOM     13  H   UNL     1      37.549 -24.863 -14.521  0.00  0.00    -0.080 HD
ENDBRANCH   9  10
ENDBRANCH   8   9
ENDBRANCH   7   8
ENDBRANCH   4   7
ENDBRANCH   1   5
BRANCH   2  14
ATOM     14  C   UNL     1      31.238 -23.199 -15.987  0.00  0.00    +0.026 C 
BRANCH  14  15
ATOM     15  C   UNL     1      30.366 -24.437 -15.746  0.00  0.00    +0.005 C 
BRANCH  15  16
ATOM     16  C   UNL     1      28.993 -24.091 -15.155  0.00  0.00    +0.010 C 
BRANCH  16  17
ATOM     17  C   UNL     1      28.632 -22.618 -15.350  0.00  0.00    +0.087 C 
BRANCH  17  20
ATOM     18  O   UNL     1      26.260 -22.236 -15.645  0.00  0.00    -0.273 OA
ATOM     19  N   UNL     1      27.610 -22.436 -17.508  0.00  0.00    -0.197 N 
ATOM     20  C   UNL     1      27.364 -22.402 -16.157  0.00  0.00    +0.244 C 
ATOM     21  H   UNL     1      28.515 -22.572 -17.871  0.00  0.00    +0.182 HD
BRANCH  19  22
ATOM     22  O   UNL     1      26.493 -22.265 -18.336  0.00  0.00    -0.295 OA
ATOM     23  H   UNL     1      26.144 -23.133 -18.591  0.00  0.00    +0.241 HD
ENDBRANCH  19  22
ENDBRANCH  17  20
ENDBRANCH  16  17
ENDBRANCH  15  16
ENDBRANCH  14  15
ENDBRANCH   2  14
BRANCH   1  24
ATOM     24  C   UNL     1      33.970 -23.641 -17.516  0.00  0.00    +0.236 C 
BRANCH  24  25
ATOM     25  O   UNL     1      33.615 -22.404 -18.124  0.00  0.00    -0.470 OA
BRANCH  25  26
ATOM     26  C   UNL     1      34.600 -21.753 -18.818  0.00  0.00    +0.139 C 
ATOM     27  C   UNL     1      34.292 -20.815 -19.816  0.00  0.00    +0.034 C 
ATOM     28  C   UNL     1      35.346 -20.168 -20.506  0.00  0.00    +0.003 C 
ATOM     29  C   UNL     1      35.926 -22.049 -18.504  0.00  0.00    +0.037 C 
ATOM     30  C   UNL     1      32.963 -20.503 -20.146  0.00  0.00    +0.003 C 
ATOM     31  C   UNL     1      36.675 -20.478 -20.177  0.00  0.00    +0.000 C 
ATOM     32  C   UNL     1      36.962 -21.414 -19.182  0.00  0.00    +0.003 C 
ATOM     33  C   UNL     1      35.038 -19.230 -21.505  0.00  0.00    +0.000 C 
ATOM     34  C   UNL     1      32.676 -19.569 -21.141  0.00  0.00    +0.000 C 
ATOM     35  C   UNL     1      33.711 -18.933 -21.819  0.00  0.00    +0.000 C 
ENDBRANCH  25  26
ENDBRANCH  24  25
ENDBRANCH   1  24
TORSDOF 14
ENDMDL
MODEL 6
REMARK VINA RESULT:      -9.8      1.810      3.457
REMARK  Name = 16117309
REMARK  14 active torsions:
REMARK  status: ('A' for Active; 'I' for Inactive)
REMARK    1  A    between atoms: C_1  and  C_5
REMARK    2  A    between atoms: C_1  and  C_24
REMARK    3  A    between atoms: C_2  and  C_14
REMARK    4  A    between atoms: N_4  and  C_7
REMARK    5  A    between atoms: C_7  and  C_8
REMARK    6  A    between atoms: C_8  and  C_9
REMARK    7  A    between atoms: C_9  and  N_10
REMARK    8  A    between atoms: C_14  and  C_15
REMARK    9  A    between atoms: C_15  and  C_16
REMARK   10  A    between atoms: C_16  and  C_17
REMARK   11  A    between atoms: C_17  and  C_20
REMARK   12  A    between atoms: N_19  and  O_22
REMARK   13  A    between atoms: C_24  and  O_25
REMARK   14  A    between atoms: O_25  and  C_26
REMARK                            x       y       z     vdW  Elec       q    Type
REMARK                         _______ _______ _______ _____ _____    ______ ____
ROOT
ATOM      1  C   UNL     1      33.938 -24.152 -13.584  0.00  0.00    +0.070 C 
ATOM      2  C   UNL     1      32.724 -23.631 -13.328  0.00  0.00    -0.022 C 
ENDROOT
BRANCH   1   5
ATOM      3  O   UNL     1      34.752 -24.900 -11.488  0.00  0.00    -0.270 OA
ATOM      4  N   UNL     1      35.963 -23.264 -12.613  0.00  0.00    -0.301 N 
ATOM      5  C   UNL     1      34.927 -24.168 -12.460  0.00  0.00    +0.245 C 
ATOM      6  H   UNL     1      36.003 -22.728 -13.438  0.00  0.00    +0.150 HD
BRANCH   4   7
ATOM      7  C   UNL     1      36.988 -23.073 -11.613  0.00  0.00    +0.088 C 
BRANCH   7   8
ATOM      8  C   UNL     1      38.322 -23.698 -12.015  0.00  0.00    -0.002 C 
BRANCH   8   9
ATOM      9  C   UNL     1      38.228 -25.162 -12.455  0.00  0.00    -0.076 C 
BRANCH   9  10
ATOM     10  N   UNL     1      38.526 -25.325 -13.872  0.00  0.00    +0.384 N 
ATOM     11  C   UNL     1      37.717 -26.401 -14.449  0.00  0.00    -0.101 C 
ATOM     12  C   UNL     1      39.951 -25.599 -14.072  0.00  0.00    -0.101 C 
ATOM     13  H   UNL     1      38.294 -24.454 -14.349  0.00  0.00    -0.080 HD
ENDBRANCH   9  10
ENDBRANCH   8   9
ENDBRANCH   7   8
ENDBRANCH   4   7
ENDBRANCH   1   5
BRANCH   2  14
ATOM     14  C   UNL     1      31.578 -23.473 -14.288  0.00  0.00    +0.026 C 
BRANCH  14  15
ATOM     15  C   UNL     1      30.751 -24.755 -14.433  0.00  0.00    +0.005 C 
BRANCH  15  16
ATOM     16  C   UNL     1      29.911 -24.780 -15.717  0.00  0.00    +0.010 C 
BRANCH  16  17
ATOM     17  C   UNL     1      28.592 -24.023 -15.559  0.00  0.00    +0.087 C 
BRANCH  17  20
ATOM     18  O   UNL     1      29.393 -22.383 -17.150  0.00  0.00    -0.273 OA
ATOM     19  N   UNL     1      27.185 -22.316 -16.477  0.00  0.00    -0.197 N 
ATOM     20  C   UNL     1      28.459 -22.830 -16.489  0.00  0.00    +0.244 C 
ATOM     21  H   UNL     1      26.468 -22.710 -15.929  0.00  0.00    +0.182 HD
BRANCH  19  22
ATOM     22  O   UNL     1      26.971 -21.197 -17.291  0.00  0.00    -0.295 OA
ATOM     23  H   UNL     1      27.798 -20.699 -17.381  0.00  0.00    +0.241 HD
ENDBRANCH  19  22
ENDBRANCH  17  20
ENDBRANCH  16  17
ENDBRANCH  15  16
ENDBRANCH  14  15
ENDBRANCH   2  14
BRANCH   1  24
ATOM     24  C   UNL     1      34.441 -24.670 -14.898  0.00  0.00    +0.236 C 
BRANCH  24  25
ATOM     25  O   UNL     1      34.055 -23.771 -15.931  0.00  0.00    -0.470 OA
BRANCH  25  26
ATOM     26  C   UNL     1      35.057 -23.062 -16.539  0.00  0.00    +0.139 C 
ATOM     27  C   UNL     1      34.845 -22.394 -17.755  0.00  0.00    +0.034 C 
ATOM     28  C   UNL     1      35.913 -21.675 -18.344  0.00  0.00    +0.003 C 
ATOM     29  C   UNL     1      36.302 -23.023 -15.912  0.00  0.00    +0.037 C 
ATOM     30  C   UNL     1      33.598 -22.421 -18.400  0.00  0.00    +0.003 C 
ATOM     31  C   UNL     1      37.160 -21.646 -17.700  0.00  0.00    +0.000 C 
ATOM     32  C   UNL     1      37.352 -22.317 -16.491  0.00  0.00    +0.003 C 
ATOM     33  C   UNL     1      35.701 -21.006 -19.561  0.00  0.00    +0.000 C 
ATOM     34  C   UNL     1      33.406 -21.751 -19.608  0.00  0.00    +0.000 C 
ATOM     35  C   UNL     1      34.455 -21.045 -20.188  0.00  0.00    +0.000 C 
ENDBRANCH  25  26
ENDBRANCH  24  25
ENDBRANCH   1  24
TORSDOF 14
ENDMDL
MODEL 7
REMARK VINA RESULT:      -9.8      9.763     14.000
REMARK  Name = 16117309
REMARK  14 active torsions:
REMARK  status: ('A' for Active; 'I' for Inactive)
REMARK    1  A    between atoms: C_1  and  C_5
REMARK    2  A    between atoms: C_1  and  C_24
REMARK    3  A    between atoms: C_2  and  C_14
REMARK    4  A    between atoms: N_4  and  C_7
REMARK    5  A    between atoms: C_7  and  C_8
REMARK    6  A    between atoms: C_8  and  C_9
REMARK    7  A    between atoms: C_9  and  N_10
REMARK    8  A    between atoms: C_14  and  C_15
REMARK    9  A    between atoms: C_15  and  C_16
REMARK   10  A    between atoms: C_16  and  C_17
REMARK   11  A    between atoms: C_17  and  C_20
REMARK   12  A    between atoms: N_19  and  O_22
REMARK   13  A    between atoms: C_24  and  O_25
REMARK   14  A    between atoms: O_25  and  C_26
REMARK                            x       y       z     vdW  Elec       q    Type
REMARK                         _______ _______ _______ _____ _____    ______ ____
ROOT
ATOM      1  C   UNL     1      33.388 -12.316 -23.788  0.00  0.00    +0.070 C 
ATOM      2  C   UNL     1      32.724 -12.036 -22.652  0.00  0.00    -0.022 C 
ENDROOT
BRANCH   1   5
ATOM      3  O   UNL     1      34.461 -11.316 -25.650  0.00  0.00    -0.270 OA
ATOM      4  N   UNL     1      34.097 -10.007 -23.762  0.00  0.00    -0.301 N 
ATOM      5  C   UNL     1      34.020 -11.167 -24.513  0.00  0.00    +0.245 C 
ATOM      6  H   UNL     1      33.706 -10.003 -22.858  0.00  0.00    +0.150 HD
BRANCH   4   7
ATOM      7  C   UNL     1      34.729  -8.803 -24.248  0.00  0.00    +0.088 C 
BRANCH   7   8
ATOM      8  C   UNL     1      34.379  -7.577 -23.406  0.00  0.00    -0.002 C 
BRANCH   8   9
ATOM      9  C   UNL     1      33.385  -6.617 -24.066  0.00  0.00    -0.076 C 
BRANCH   9  10
ATOM     10  N   UNL     1      32.081  -6.650 -23.416  0.00  0.00    +0.384 N 
ATOM     11  C   UNL     1      31.128  -7.429 -24.209  0.00  0.00    -0.101 C 
ATOM     12  C   UNL     1      31.575  -5.292 -23.206  0.00  0.00    -0.101 C 
ATOM     13  H   UNL     1      32.190  -7.100 -22.506  0.00  0.00    -0.080 HD
ENDBRANCH   9  10
ENDBRANCH   8   9
ENDBRANCH   7   8
ENDBRANCH   4   7
ENDBRANCH   1   5
BRANCH   2  14
ATOM     14  C   UNL     1      31.985 -13.000 -21.767  0.00  0.00    +0.026 C 
BRANCH  14  15
ATOM     15  C   UNL     1      32.020 -12.589 -20.291  0.00  0.00    +0.005 C 
BRANCH  15  16
ATOM     16  C   UNL     1      31.183 -11.336 -20.001  0.00  0.00    +0.010 C 
BRANCH  16  17
ATOM     17  C   UNL     1      32.011 -10.222 -19.361  0.00  0.00    +0.087 C 
BRANCH  17  20
ATOM     18  O   UNL     1      32.109  -9.054 -21.480  0.00  0.00    -0.273 OA
ATOM     19  N   UNL     1      32.481  -7.879 -19.527  0.00  0.00    -0.197 N 
ATOM     20  C   UNL     1      32.194  -9.008 -20.255  0.00  0.00    +0.244 C 
ATOM     21  H   UNL     1      32.539  -7.893 -18.544  0.00  0.00    +0.182 HD
BRANCH  19  22
ATOM     22  O   UNL     1      32.687  -6.710 -20.269  0.00  0.00    -0.295 OA
ATOM     23  H   UNL     1      33.132  -6.049 -19.715  0.00  0.00    +0.241 HD
ENDBRANCH  19  22
ENDBRANCH  17  20
ENDBRANCH  16  17
ENDBRANCH  15  16
ENDBRANCH  14  15
ENDBRANCH   2  14
BRANCH   1  24
ATOM     24  C   UNL     1      33.522 -13.653 -24.452  0.00  0.00    +0.236 C 
BRANCH  24  25
ATOM     25  O   UNL     1      34.361 -14.484 -23.658  0.00  0.00    -0.470 OA
BRANCH  25  26
ATOM     26  C   UNL     1      34.403 -15.813 -23.989  0.00  0.00    +0.139 C 
ATOM     27  C   UNL     1      34.690 -16.796 -23.030  0.00  0.00    +0.034 C 
ATOM     28  C   UNL     1      34.724 -18.156 -23.421  0.00  0.00    +0.003 C 
ATOM     29  C   UNL     1      34.153 -16.164 -25.316  0.00  0.00    +0.037 C 
ATOM     30  C   UNL     1      34.945 -16.461 -21.689  0.00  0.00    +0.003 C 
ATOM     31  C   UNL     1      34.469 -18.492 -24.761  0.00  0.00    +0.000 C 
ATOM     32  C   UNL     1      34.186 -17.501 -25.701  0.00  0.00    +0.003 C 
ATOM     33  C   UNL     1      35.011 -19.140 -22.461  0.00  0.00    +0.000 C 
ATOM     34  C   UNL     1      35.228 -17.452 -20.749  0.00  0.00    +0.000 C 
ATOM     35  C   UNL     1      35.262 -18.789 -21.134  0.00  0.00    +0.000 C 
ENDBRANCH  25  26
ENDBRANCH  24  25
ENDBRANCH   1  24
TORSDOF 14
ENDMDL
MODEL 8
REMARK VINA RESULT:      -9.8      7.581     12.208
REMARK  Name = 16117309
REMARK  14 active torsions:
REMARK  status: ('A' for Active; 'I' for Inactive)
REMARK    1  A    between atoms: C_1  and  C_5
REMARK    2  A    between atoms: C_1  and  C_24
REMARK    3  A    between atoms: C_2  and  C_14
REMARK    4  A    between atoms: N_4  and  C_7
REMARK    5  A    between atoms: C_7  and  C_8
REMARK    6  A    between atoms: C_8  and  C_9
REMARK    7  A    between atoms: C_9  and  N_10
REMARK    8  A    between atoms: C_14  and  C_15
REMARK    9  A    between atoms: C_15  and  C_16
REMARK   10  A    between atoms: C_16  and  C_17
REMARK   11  A    between atoms: C_17  and  C_20
REMARK   12  A    between atoms: N_19  and  O_22
REMARK   13  A    between atoms: C_24  and  O_25
REMARK   14  A    between atoms: O_25  and  C_26
REMARK                            x       y       z     vdW  Elec       q    Type
REMARK                         _______ _______ _______ _____ _____    ______ ____
ROOT
ATOM      1  C   UNL     1      34.115 -15.456 -22.971  0.00  0.00    +0.070 C 
ATOM      2  C   UNL     1      33.485 -15.091 -24.103  0.00  0.00    -0.022 C 
ENDROOT
BRANCH   1   5
ATOM      3  O   UNL     1      34.465 -14.838 -20.710  0.00  0.00    -0.270 OA
ATOM      4  N   UNL     1      32.693 -13.857 -21.852  0.00  0.00    -0.301 N 
ATOM      5  C   UNL     1      33.800 -14.678 -21.730  0.00  0.00    +0.245 C 
ATOM      6  H   UNL     1      32.235 -13.807 -22.723  0.00  0.00    +0.150 HD
BRANCH   4   7
ATOM      7  C   UNL     1      32.179 -13.071 -20.754  0.00  0.00    +0.088 C 
BRANCH   7   8
ATOM      8  C   UNL     1      31.361 -11.871 -21.226  0.00  0.00    -0.002 C 
BRANCH   8   9
ATOM      9  C   UNL     1      31.492 -10.628 -20.342  0.00  0.00    -0.076 C 
BRANCH   9  10
ATOM     10  N   UNL     1      32.218  -9.556 -21.012  0.00  0.00    +0.384 N 
ATOM     11  C   UNL     1      32.190  -8.332 -20.208  0.00  0.00    -0.101 C 
ATOM     12  C   UNL     1      31.654  -9.303 -22.340  0.00  0.00    -0.101 C 
ATOM     13  H   UNL     1      33.189  -9.849 -21.123  0.00  0.00    -0.080 HD
ENDBRANCH   9  10
ENDBRANCH   8   9
ENDBRANCH   7   8
ENDBRANCH   4   7
ENDBRANCH   1   5
BRANCH   2  14
ATOM     14  C   UNL     1      33.651 -15.688 -25.472  0.00  0.00    +0.026 C 
BRANCH  14  15
ATOM     15  C   UNL     1      33.292 -14.705 -26.590  0.00  0.00    +0.005 C 
BRANCH  15  16
ATOM     16  C   UNL     1      32.806 -13.349 -26.059  0.00  0.00    +0.010 C 
BRANCH  16  17
ATOM     17  C   UNL     1      33.848 -12.247 -26.246  0.00  0.00    +0.087 C 
BRANCH  17  20
ATOM     18  O   UNL     1      33.613 -11.707 -23.897  0.00  0.00    -0.273 OA
ATOM     19  N   UNL     1      35.120 -10.520 -25.182  0.00  0.00    -0.197 N 
ATOM     20  C   UNL     1      34.165 -11.485 -24.972  0.00  0.00    +0.244 C 
ATOM     21  H   UNL     1      35.535 -10.379 -26.063  0.00  0.00    +0.182 HD
BRANCH  19  22
ATOM     22  O   UNL     1      35.465  -9.749 -24.064  0.00  0.00    -0.295 OA
ATOM     23  H   UNL     1      36.357  -9.988 -23.769  0.00  0.00    +0.241 HD
ENDBRANCH  19  22
ENDBRANCH  17  20
ENDBRANCH  16  17
ENDBRANCH  15  16
ENDBRANCH  14  15
ENDBRANCH   2  14
BRANCH   1  24
ATOM     24  C   UNL     1      35.152 -16.528 -22.818  0.00  0.00    +0.236 C 
BRANCH  24  25
ATOM     25  O   UNL     1      34.513 -17.746 -22.455  0.00  0.00    -0.470 OA
BRANCH  25  26
ATOM     26  C   UNL     1      35.249 -18.631 -21.714  0.00  0.00    +0.139 C 
ATOM     27  C   UNL     1      34.631 -19.616 -20.927  0.00  0.00    +0.034 C 
ATOM     28  C   UNL     1      35.435 -20.508 -20.177  0.00  0.00    +0.003 C 
ATOM     29  C   UNL     1      36.639 -18.527 -21.762  0.00  0.00    +0.037 C 
ATOM     30  C   UNL     1      33.232 -19.736 -20.866  0.00  0.00    +0.003 C 
ATOM     31  C   UNL     1      36.832 -20.389 -20.237  0.00  0.00    +0.000 C 
ATOM     32  C   UNL     1      37.429 -19.404 -21.025  0.00  0.00    +0.003 C 
ATOM     33  C   UNL     1      34.816 -21.493 -19.389  0.00  0.00    +0.000 C 
ATOM     34  C   UNL     1      32.635 -20.720 -20.078  0.00  0.00    +0.000 C 
ATOM     35  C   UNL     1      33.426 -21.597 -19.341  0.00  0.00    +0.000 C 
ENDBRANCH  25  26
ENDBRANCH  24  25
ENDBRANCH   1  24
TORSDOF 14
ENDMDL
MODEL 9
REMARK VINA RESULT:      -9.7      2.366      7.289
REMARK  Name = 16117309
REMARK  14 active torsions:
REMARK  status: ('A' for Active; 'I' for Inactive)
REMARK    1  A    between atoms: C_1  and  C_5
REMARK    2  A    between atoms: C_1  and  C_24
REMARK    3  A    between atoms: C_2  and  C_14
REMARK    4  A    between atoms: N_4  and  C_7
REMARK    5  A    between atoms: C_7  and  C_8
REMARK    6  A    between atoms: C_8  and  C_9
REMARK    7  A    between atoms: C_9  and  N_10
REMARK    8  A    between atoms: C_14  and  C_15
REMARK    9  A    between atoms: C_15  and  C_16
REMARK   10  A    between atoms: C_16  and  C_17
REMARK   11  A    between atoms: C_17  and  C_20
REMARK   12  A    between atoms: N_19  and  O_22
REMARK   13  A    between atoms: C_24  and  O_25
REMARK   14  A    between atoms: O_25  and  C_26
REMARK                            x       y       z     vdW  Elec       q    Type
REMARK                         _______ _______ _______ _____ _____    ______ ____
ROOT
ATOM      1  C   UNL     1      33.327 -23.118 -16.945  0.00  0.00    +0.070 C 
ATOM      2  C   UNL     1      32.054 -23.353 -16.577  0.00  0.00    -0.022 C 
ENDROOT
BRANCH   1   5
ATOM      3  O   UNL     1      33.895 -23.944 -19.093  0.00  0.00    -0.270 OA
ATOM      4  N   UNL     1      33.544 -21.657 -18.856  0.00  0.00    -0.301 N 
ATOM      5  C   UNL     1      33.599 -22.966 -18.410  0.00  0.00    +0.245 C 
ATOM      6  H   UNL     1      33.294 -20.951 -18.217  0.00  0.00    +0.150 HD
BRANCH   4   7
ATOM      7  C   UNL     1      33.840 -21.283 -20.220  0.00  0.00    +0.088 C 
BRANCH   7   8
ATOM      8  C   UNL     1      33.194 -19.957 -20.616  0.00  0.00    -0.002 C 
BRANCH   8   9
ATOM      9  C   UNL     1      34.043 -19.095 -21.555  0.00  0.00    -0.076 C 
BRANCH   9  10
ATOM     10  N   UNL     1      35.081 -18.367 -20.836  0.00  0.00    +0.384 N 
ATOM     11  C   UNL     1      34.950 -16.926 -21.061  0.00  0.00    -0.101 C 
ATOM     12  C   UNL     1      36.410 -18.825 -21.243  0.00  0.00    -0.101 C 
ATOM     13  H   UNL     1      34.967 -18.550 -19.839  0.00  0.00    -0.080 HD
ENDBRANCH   9  10
ENDBRANCH   8   9
ENDBRANCH   7   8
ENDBRANCH   4   7
ENDBRANCH   1   5
BRANCH   2  14
ATOM     14  C   UNL     1      31.533 -23.571 -15.185  0.00  0.00    +0.026 C 
BRANCH  14  15
ATOM     15  C   UNL     1      30.679 -24.839 -15.068  0.00  0.00    +0.005 C 
BRANCH  15  16
ATOM     16  C   UNL     1      29.178 -24.539 -14.968  0.00  0.00    +0.010 C 
BRANCH  16  17
ATOM     17  C   UNL     1      28.583 -24.113 -16.310  0.00  0.00    +0.087 C 
BRANCH  17  20
ATOM     18  O   UNL     1      28.231 -21.897 -15.400  0.00  0.00    -0.273 OA
ATOM     19  N   UNL     1      27.312 -22.432 -17.449  0.00  0.00    -0.197 N 
ATOM     20  C   UNL     1      28.042 -22.694 -16.315  0.00  0.00    +0.244 C 
ATOM     21  H   UNL     1      27.188 -23.105 -18.157  0.00  0.00    +0.182 HD
BRANCH  19  22
ATOM     22  O   UNL     1      26.754 -21.150 -17.534  0.00  0.00    -0.295 OA
ATOM     23  H   UNL     1      27.433 -20.521 -17.825  0.00  0.00    +0.241 HD
ENDBRANCH  19  22
ENDBRANCH  17  20
ENDBRANCH  16  17
ENDBRANCH  15  16
ENDBRANCH  14  15
ENDBRANCH   2  14
BRANCH   1  24
ATOM     24  C   UNL     1      34.529 -23.048 -16.052  0.00  0.00    +0.236 C 
BRANCH  24  25
ATOM     25  O   UNL     1      34.873 -24.364 -15.633  0.00  0.00    -0.470 OA
BRANCH  25  26
ATOM     26  C   UNL     1      35.339 -24.501 -14.352  0.00  0.00    +0.139 C 
ATOM     27  C   UNL     1      36.668 -24.870 -14.094  0.00  0.00    +0.034 C 
ATOM     28  C   UNL     1      37.102 -25.000 -12.753  0.00  0.00    +0.003 C 
ATOM     29  C   UNL     1      34.450 -24.263 -13.304  0.00  0.00    +0.037 C 
ATOM     30  C   UNL     1      37.578 -25.114 -15.136  0.00  0.00    +0.003 C 
ATOM     31  C   UNL     1      36.194 -24.756 -11.710  0.00  0.00    +0.000 C 
ATOM     32  C   UNL     1      34.876 -24.390 -11.986  0.00  0.00    +0.003 C 
ATOM     33  C   UNL     1      38.433 -25.370 -12.495  0.00  0.00    +0.000 C 
ATOM     34  C   UNL     1      38.895 -25.480 -14.861  0.00  0.00    +0.000 C 
ATOM     35  C   UNL     1      39.322 -25.608 -13.543  0.00  0.00    +0.000 C 
ENDBRANCH  25  26
ENDBRANCH  24  25
ENDBRANCH   1  24
TORSDOF 14
ENDMDL
