MODEL 1
REMARK VINA RESULT:      -9.1      0.000      0.000
REMARK  Name = 441397
REMARK  11 active torsions:
REMARK  status: ('A' for Active; 'I' for Inactive)
REMARK    1  A    between atoms: C_6  and  C_27
REMARK    2  A    between atoms: C_7  and  N_12
REMARK    3  A    between atoms: C_13  and  C_15
REMARK    4  A    between atoms: C_15  and  C_16
REMARK    5  A    between atoms: C_15  and  N_22
REMARK    6  A    between atoms: C_27  and  O_28
REMARK    7  A    between atoms: O_28  and  C_29
REMARK    8  A    between atoms: C_29  and  O_31
REMARK    9  A    between atoms: O_31  and  C_33
REMARK   10  A    between atoms: C_33  and  O_34
REMARK   11  A    between atoms: O_34  and  C_35
REMARK                            x       y       z     vdW  Elec       q    Type
REMARK                         _______ _______ _______ _____ _____    ______ ____
ROOT
ATOM      1  S   UNL     1      34.437 -14.830 -23.477  0.00  0.00    -0.118 S 
ATOM      2  O   UNL     1      31.947 -15.306 -19.874  0.00  0.00    -0.273 OA
ATOM      3  N   UNL     1      33.208 -13.974 -21.360  0.00  0.00    -0.260 N 
ATOM      4  C   UNL     1      34.559 -14.431 -21.697  0.00  0.00    +0.151 C 
ATOM      5  C   UNL     1      33.155 -13.501 -23.727  0.00  0.00    +0.068 C 
ATOM      6  C   UNL     1      32.325 -13.549 -22.427  0.00  0.00    +0.185 C 
ATOM      7  C   UNL     1      34.342 -15.589 -20.712  0.00  0.00    +0.178 C 
ATOM      8  C   UNL     1      32.945 -14.980 -20.475  0.00  0.00    +0.247 C 
ATOM      9  C   UNL     1      32.304 -13.854 -24.948  0.00  0.00    +0.013 C 
ATOM     10  C   UNL     1      33.891 -12.175 -23.964  0.00  0.00    +0.013 C 
ENDROOT
BRANCH   7  12
ATOM     11  O   UNL     1      36.273 -17.692 -20.267  0.00  0.00    -0.277 OA
ATOM     12  N   UNL     1      34.314 -16.951 -21.262  0.00  0.00    -0.298 N 
ATOM     13  C   UNL     1      35.299 -17.903 -20.988  0.00  0.00    +0.206 C 
ATOM     14  H   UNL     1      33.567 -17.205 -21.850  0.00  0.00    +0.150 HD
BRANCH  13  15
ATOM     15  C   UNL     1      35.056 -19.233 -21.693  0.00  0.00    +0.036 C 
BRANCH  15  16
ATOM     16  C   UNL     1      34.661 -20.306 -20.700  0.00  0.00    -0.034 C 
ATOM     17  C   UNL     1      35.635 -21.143 -20.188  0.00  0.00    -0.006 C 
ATOM     18  C   UNL     1      33.332 -20.425 -20.329  0.00  0.00    -0.006 C 
ATOM     19  C   UNL     1      35.271 -22.131 -19.274  0.00  0.00    -0.000 C 
ATOM     20  C   UNL     1      32.968 -21.415 -19.416  0.00  0.00    -0.000 C 
ATOM     21  C   UNL     1      33.937 -22.267 -18.888  0.00  0.00    -0.000 C 
ENDBRANCH  15  16
BRANCH  15  22
ATOM     22  N   UNL     1      34.030 -19.014 -22.718  0.00  0.00    +0.390 N 
ATOM     23  H   UNL     1      34.315 -18.247 -23.327  0.00  0.00    -0.088 HD
ATOM     24  H   UNL     1      33.145 -18.781 -22.268  0.00  0.00    -0.088 HD
ATOM     25  H   UNL     1      33.917 -19.864 -23.272  0.00  0.00    -0.088 HD
ENDBRANCH  15  22
ENDBRANCH  13  15
ENDBRANCH   7  12
BRANCH   6  27
ATOM     26  O   UNL     1      31.074 -11.522 -22.751  0.00  0.00    -0.248 OA
ATOM     27  C   UNL     1      31.719 -12.247 -22.007  0.00  0.00    +0.339 C 
BRANCH  27  28
ATOM     28  O   UNL     1      32.003 -12.019 -20.693  0.00  0.00    -0.412 OA
BRANCH  28  29
ATOM     29  C   UNL     1      31.587 -10.755 -20.138  0.00  0.00    +0.348 C 
ATOM     30  C   UNL     1      31.330 -10.928 -18.649  0.00  0.00    +0.100 C 
BRANCH  29  31
ATOM     31  O   UNL     1      32.628  -9.763 -20.276  0.00  0.00    -0.382 OA
BRANCH  31  33
ATOM     32  O   UNL     1      32.139  -7.588 -19.690  0.00  0.00    -0.203 OA
ATOM     33  C   UNL     1      32.221  -8.486 -20.517  0.00  0.00    +0.514 C 
BRANCH  33  34
ATOM     34  O   UNL     1      31.920  -8.385 -21.842  0.00  0.00    -0.418 OA
BRANCH  34  35
ATOM     35  C   UNL     1      32.995  -8.676 -22.743  0.00  0.00    +0.212 C 
ATOM     36  C   UNL     1      33.938  -7.493 -22.783  0.00  0.00    +0.051 C 
ENDBRANCH  34  35
ENDBRANCH  33  34
ENDBRANCH  31  33
ENDBRANCH  29  31
ENDBRANCH  28  29
ENDBRANCH  27  28
ENDBRANCH   6  27
TORSDOF 11
ENDMDL
MODEL 2
REMARK VINA RESULT:      -8.0      4.029     10.284
REMARK  Name = 441397
REMARK  11 active torsions:
REMARK  status: ('A' for Active; 'I' for Inactive)
REMARK    1  A    between atoms: C_6  and  C_27
REMARK    2  A    between atoms: C_7  and  N_12
REMARK    3  A    between atoms: C_13  and  C_15
REMARK    4  A    between atoms: C_15  and  C_16
REMARK    5  A    between atoms: C_15  and  N_22
REMARK    6  A    between atoms: C_27  and  O_28
REMARK    7  A    between atoms: O_28  and  C_29
REMARK    8  A    between atoms: C_29  and  O_31
REMARK    9  A    between atoms: O_31  and  C_33
REMARK   10  A    between atoms: C_33  and  O_34
REMARK   11  A    between atoms: O_34  and  C_35
REMARK                            x       y       z     vdW  Elec       q    Type
REMARK                         _______ _______ _______ _____ _____    ______ ____
ROOT
ATOM      1  S   UNL     1      36.316 -19.691 -20.646  0.00  0.00    -0.118 S 
ATOM      2  O   UNL     1      31.939 -19.532 -20.164  0.00  0.00    -0.273 OA
ATOM      3  N   UNL     1      33.926 -20.699 -20.677  0.00  0.00    -0.260 N 
ATOM      4  C   UNL     1      34.838 -20.087 -21.648  0.00  0.00    +0.151 C 
ATOM      5  C   UNL     1      36.005 -21.156 -19.538  0.00  0.00    +0.068 C 
ATOM      6  C   UNL     1      34.466 -21.214 -19.435  0.00  0.00    +0.185 C 
ATOM      7  C   UNL     1      33.799 -18.970 -21.820  0.00  0.00    +0.178 C 
ATOM      8  C   UNL     1      32.963 -19.736 -20.776  0.00  0.00    +0.247 C 
ATOM      9  C   UNL     1      36.647 -20.894 -18.175  0.00  0.00    +0.013 C 
ATOM     10  C   UNL     1      36.646 -22.387 -20.193  0.00  0.00    +0.013 C 
ENDROOT
BRANCH   7  12
ATOM     11  O   UNL     1      34.149 -16.649 -23.507  0.00  0.00    -0.277 OA
ATOM     12  N   UNL     1      34.184 -17.615 -21.399  0.00  0.00    -0.298 N 
ATOM     13  C   UNL     1      34.328 -16.552 -22.294  0.00  0.00    +0.206 C 
ATOM     14  H   UNL     1      34.346 -17.449 -20.443  0.00  0.00    +0.150 HD
BRANCH  13  15
ATOM     15  C   UNL     1      34.755 -15.255 -21.615  0.00  0.00    +0.036 C 
BRANCH  15  16
ATOM     16  C   UNL     1      33.800 -14.129 -21.955  0.00  0.00    -0.034 C 
ATOM     17  C   UNL     1      33.976 -13.429 -23.135  0.00  0.00    -0.006 C 
ATOM     18  C   UNL     1      32.774 -13.826 -21.077  0.00  0.00    -0.006 C 
ATOM     19  C   UNL     1      33.098 -12.392 -23.447  0.00  0.00    -0.000 C 
ATOM     20  C   UNL     1      31.896 -12.789 -21.390  0.00  0.00    -0.000 C 
ATOM     21  C   UNL     1      32.057 -12.072 -22.575  0.00  0.00    -0.000 C 
ENDBRANCH  15  16
BRANCH  15  22
ATOM     22  N   UNL     1      34.828 -15.508 -20.173  0.00  0.00    +0.390 N 
ATOM     23  H   UNL     1      34.187 -14.882 -19.684  0.00  0.00    -0.088 HD
ATOM     24  H   UNL     1      35.780 -15.343 -19.846  0.00  0.00    -0.088 HD
ATOM     25  H   UNL     1      34.566 -16.476 -19.984  0.00  0.00    -0.088 HD
ENDBRANCH  15  22
ENDBRANCH  13  15
ENDBRANCH   7  12
BRANCH   6  27
ATOM     26  O   UNL     1      34.349 -23.596 -19.739  0.00  0.00    -0.248 OA
ATOM     27  C   UNL     1      33.889 -22.580 -19.236  0.00  0.00    +0.339 C 
BRANCH  27  28
ATOM     28  O   UNL     1      32.798 -22.497 -18.423  0.00  0.00    -0.412 OA
BRANCH  28  29
ATOM     29  C   UNL     1      32.794 -23.318 -17.239  0.00  0.00    +0.348 C 
ATOM     30  C   UNL     1      34.147 -23.204 -16.551  0.00  0.00    +0.100 C 
BRANCH  29  31
ATOM     31  O   UNL     1      31.800 -22.859 -16.296  0.00  0.00    -0.382 OA
BRANCH  31  33
ATOM     32  O   UNL     1      30.433 -24.648 -15.802  0.00  0.00    -0.203 OA
ATOM     33  C   UNL     1      30.619 -23.538 -16.281  0.00  0.00    +0.514 C 
BRANCH  33  34
ATOM     34  O   UNL     1      29.682 -22.763 -16.895  0.00  0.00    -0.418 OA
BRANCH  34  35
ATOM     35  C   UNL     1      28.350 -23.291 -16.897  0.00  0.00    +0.212 C 
ATOM     36  C   UNL     1      27.472 -22.416 -16.028  0.00  0.00    +0.051 C 
ENDBRANCH  34  35
ENDBRANCH  33  34
ENDBRANCH  31  33
ENDBRANCH  29  31
ENDBRANCH  28  29
ENDBRANCH  27  28
ENDBRANCH   6  27
TORSDOF 11
ENDMDL
MODEL 3
REMARK VINA RESULT:      -7.9      3.927     10.731
REMARK  Name = 441397
REMARK  11 active torsions:
REMARK  status: ('A' for Active; 'I' for Inactive)
REMARK    1  A    between atoms: C_6  and  C_27
REMARK    2  A    between atoms: C_7  and  N_12
REMARK    3  A    between atoms: C_13  and  C_15
REMARK    4  A    between atoms: C_15  and  C_16
REMARK    5  A    between atoms: C_15  and  N_22
REMARK    6  A    between atoms: C_27  and  O_28
REMARK    7  A    between atoms: O_28  and  C_29
REMARK    8  A    between atoms: C_29  and  O_31
REMARK    9  A    between atoms: O_31  and  C_33
REMARK   10  A    between atoms: C_33  and  O_34
REMARK   11  A    between atoms: O_34  and  C_35
REMARK                            x       y       z     vdW  Elec       q    Type
REMARK                         _______ _______ _______ _____ _____    ______ ____
ROOT
ATOM      1  S   UNL     1      36.277 -19.683 -20.625  0.00  0.00    -0.118 S 
ATOM      2  O   UNL     1      31.897 -19.646 -20.149  0.00  0.00    -0.273 OA
ATOM      3  N   UNL     1      33.913 -20.748 -20.691  0.00  0.00    -0.260 N 
ATOM      4  C   UNL     1      34.811 -20.085 -21.642  0.00  0.00    +0.151 C 
ATOM      5  C   UNL     1      36.001 -21.188 -19.562  0.00  0.00    +0.068 C 
ATOM      6  C   UNL     1      34.464 -21.287 -19.464  0.00  0.00    +0.185 C 
ATOM      7  C   UNL     1      33.745 -18.989 -21.783  0.00  0.00    +0.178 C 
ATOM      8  C   UNL     1      32.927 -19.807 -20.765  0.00  0.00    +0.247 C 
ATOM      9  C   UNL     1      36.634 -20.950 -18.190  0.00  0.00    +0.013 C 
ATOM     10  C   UNL     1      36.674 -22.382 -20.252  0.00  0.00    +0.013 C 
ENDROOT
BRANCH   7  12
ATOM     11  O   UNL     1      34.474 -16.718 -23.415  0.00  0.00    -0.277 OA
ATOM     12  N   UNL     1      34.096 -17.639 -21.321  0.00  0.00    -0.298 N 
ATOM     13  C   UNL     1      34.436 -16.600 -22.192  0.00  0.00    +0.206 C 
ATOM     14  H   UNL     1      34.089 -17.457 -20.354  0.00  0.00    +0.150 HD
BRANCH  13  15
ATOM     15  C   UNL     1      34.779 -15.303 -21.467  0.00  0.00    +0.036 C 
BRANCH  15  16
ATOM     16  C   UNL     1      33.816 -14.199 -21.854  0.00  0.00    -0.034 C 
ATOM     17  C   UNL     1      32.794 -13.861 -20.987  0.00  0.00    -0.006 C 
ATOM     18  C   UNL     1      33.983 -13.554 -23.068  0.00  0.00    -0.006 C 
ATOM     19  C   UNL     1      31.908 -12.845 -21.343  0.00  0.00    -0.000 C 
ATOM     20  C   UNL     1      33.095 -12.539 -23.424  0.00  0.00    -0.000 C 
ATOM     21  C   UNL     1      32.058 -12.183 -22.562  0.00  0.00    -0.000 C 
ENDBRANCH  15  16
BRANCH  15  22
ATOM     22  N   UNL     1      34.764 -15.578 -20.027  0.00  0.00    +0.390 N 
ATOM     23  H   UNL     1      35.143 -16.509 -19.855  0.00  0.00    -0.088 HD
ATOM     24  H   UNL     1      33.806 -15.532 -19.682  0.00  0.00    -0.088 HD
ATOM     25  H   UNL     1      35.334 -14.884 -19.543  0.00  0.00    -0.088 HD
ENDBRANCH  15  22
ENDBRANCH  13  15
ENDBRANCH   7  12
BRANCH   6  27
ATOM     26  O   UNL     1      34.327 -23.640 -19.935  0.00  0.00    -0.248 OA
ATOM     27  C   UNL     1      33.921 -22.672 -19.308  0.00  0.00    +0.339 C 
BRANCH  27  28
ATOM     28  O   UNL     1      32.927 -22.666 -18.374  0.00  0.00    -0.412 OA
BRANCH  28  29
ATOM     29  C   UNL     1      33.310 -22.883 -17.002  0.00  0.00    +0.348 C 
ATOM     30  C   UNL     1      32.152 -23.535 -16.261  0.00  0.00    +0.100 C 
BRANCH  29  31
ATOM     31  O   UNL     1      34.432 -23.788 -16.916  0.00  0.00    -0.382 OA
BRANCH  31  33
ATOM     32  O   UNL     1      35.409 -22.771 -15.092  0.00  0.00    -0.203 OA
ATOM     33  C   UNL     1      35.142 -23.766 -15.754  0.00  0.00    +0.514 C 
BRANCH  33  34
ATOM     34  O   UNL     1      35.504 -25.045 -15.457  0.00  0.00    -0.418 OA
BRANCH  34  35
ATOM     35  C   UNL     1      36.852 -25.217 -15.005  0.00  0.00    +0.212 C 
ATOM     36  C   UNL     1      37.082 -26.678 -14.684  0.00  0.00    +0.051 C 
ENDBRANCH  34  35
ENDBRANCH  33  34
ENDBRANCH  31  33
ENDBRANCH  29  31
ENDBRANCH  28  29
ENDBRANCH  27  28
ENDBRANCH   6  27
TORSDOF 11
ENDMDL
MODEL 4
REMARK VINA RESULT:      -7.7      2.440      9.210
REMARK  Name = 441397
REMARK  11 active torsions:
REMARK  status: ('A' for Active; 'I' for Inactive)
REMARK    1  A    between atoms: C_6  and  C_27
REMARK    2  A    between atoms: C_7  and  N_12
REMARK    3  A    between atoms: C_13  and  C_15
REMARK    4  A    between atoms: C_15  and  C_16
REMARK    5  A    between atoms: C_15  and  N_22
REMARK    6  A    between atoms: C_27  and  O_28
REMARK    7  A    between atoms: O_28  and  C_29
REMARK    8  A    between atoms: C_29  and  O_31
REMARK    9  A    between atoms: O_31  and  C_33
REMARK   10  A    between atoms: C_33  and  O_34
REMARK   11  A    between atoms: O_34  and  C_35
REMARK                            x       y       z     vdW  Elec       q    Type
REMARK                         _______ _______ _______ _____ _____    ______ ____
ROOT
ATOM      1  S   UNL     1      33.759 -13.971 -21.189  0.00  0.00    -0.118 S 
ATOM      2  O   UNL     1      33.032 -14.937 -25.426  0.00  0.00    -0.273 OA
ATOM      3  N   UNL     1      34.242 -15.207 -23.418  0.00  0.00    -0.260 N 
ATOM      4  C   UNL     1      34.718 -13.994 -22.747  0.00  0.00    +0.151 C 
ATOM      5  C   UNL     1      33.708 -15.833 -21.148  0.00  0.00    +0.068 C 
ATOM      6  C   UNL     1      33.573 -16.226 -22.634  0.00  0.00    +0.185 C 
ATOM      7  C   UNL     1      34.142 -13.196 -23.926  0.00  0.00    +0.178 C 
ATOM      8  C   UNL     1      33.704 -14.561 -24.493  0.00  0.00    +0.247 C 
ATOM      9  C   UNL     1      32.490 -16.279 -20.339  0.00  0.00    +0.013 C 
ATOM     10  C   UNL     1      34.996 -16.324 -20.474  0.00  0.00    +0.013 C 
ENDROOT
BRANCH   7  12
ATOM     11  O   UNL     1      34.227 -10.308 -23.872  0.00  0.00    -0.277 OA
ATOM     12  N   UNL     1      33.028 -12.280 -23.644  0.00  0.00    -0.298 N 
ATOM     13  C   UNL     1      33.168 -10.889 -23.642  0.00  0.00    +0.206 C 
ATOM     14  H   UNL     1      32.143 -12.663 -23.450  0.00  0.00    +0.150 HD
BRANCH  13  15
ATOM     15  C   UNL     1      31.872 -10.161 -23.302  0.00  0.00    +0.036 C 
BRANCH  15  16
ATOM     16  C   UNL     1      31.680 -10.074 -21.802  0.00  0.00    -0.034 C 
ATOM     17  C   UNL     1      32.169  -8.974 -21.122  0.00  0.00    -0.006 C 
ATOM     18  C   UNL     1      31.020 -11.099 -21.146  0.00  0.00    -0.006 C 
ATOM     19  C   UNL     1      31.993  -8.895 -19.740  0.00  0.00    -0.000 C 
ATOM     20  C   UNL     1      30.844 -11.020 -19.765  0.00  0.00    -0.000 C 
ATOM     21  C   UNL     1      31.330  -9.918 -19.062  0.00  0.00    -0.000 C 
ENDBRANCH  15  16
BRANCH  15  22
ATOM     22  N   UNL     1      31.922  -8.840 -23.936  0.00  0.00    +0.390 N 
ATOM     23  H   UNL     1      31.605  -8.914 -24.903  0.00  0.00    -0.088 HD
ATOM     24  H   UNL     1      32.880  -8.491 -23.918  0.00  0.00    -0.088 HD
ATOM     25  H   UNL     1      31.315  -8.196 -23.428  0.00  0.00    -0.088 HD
ENDBRANCH  15  22
ENDBRANCH  13  15
ENDBRANCH   7  12
BRANCH   6  27
ATOM     26  O   UNL     1      35.210 -17.657 -23.659  0.00  0.00    -0.248 OA
ATOM     27  C   UNL     1      34.183 -17.540 -23.006  0.00  0.00    +0.339 C 
BRANCH  27  28
ATOM     28  O   UNL     1      33.418 -18.552 -22.507  0.00  0.00    -0.412 OA
BRANCH  28  29
ATOM     29  C   UNL     1      33.895 -19.216 -21.320  0.00  0.00    +0.348 C 
ATOM     30  C   UNL     1      32.780 -20.082 -20.753  0.00  0.00    +0.100 C 
BRANCH  29  31
ATOM     31  O   UNL     1      34.999 -20.095 -21.629  0.00  0.00    -0.382 OA
BRANCH  31  33
ATOM     32  O   UNL     1      36.678 -19.405 -20.208  0.00  0.00    -0.203 OA
ATOM     33  C   UNL     1      35.930 -20.267 -20.649  0.00  0.00    +0.514 C 
BRANCH  33  34
ATOM     34  O   UNL     1      35.882 -21.568 -20.248  0.00  0.00    -0.418 OA
BRANCH  34  35
ATOM     35  C   UNL     1      35.729 -21.774 -18.839  0.00  0.00    +0.212 C 
ATOM     36  C   UNL     1      34.402 -22.455 -18.582  0.00  0.00    +0.051 C 
ENDBRANCH  34  35
ENDBRANCH  33  34
ENDBRANCH  31  33
ENDBRANCH  29  31
ENDBRANCH  28  29
ENDBRANCH  27  28
ENDBRANCH   6  27
TORSDOF 11
ENDMDL
MODEL 5
REMARK VINA RESULT:      -7.5      2.325      9.726
REMARK  Name = 441397
REMARK  11 active torsions:
REMARK  status: ('A' for Active; 'I' for Inactive)
REMARK    1  A    between atoms: C_6  and  C_27
REMARK    2  A    between atoms: C_7  and  N_12
REMARK    3  A    between atoms: C_13  and  C_15
REMARK    4  A    between atoms: C_15  and  C_16
REMARK    5  A    between atoms: C_15  and  N_22
REMARK    6  A    between atoms: C_27  and  O_28
REMARK    7  A    between atoms: O_28  and  C_29
REMARK    8  A    between atoms: C_29  and  O_31
REMARK    9  A    between atoms: O_31  and  C_33
REMARK   10  A    between atoms: C_33  and  O_34
REMARK   11  A    between atoms: O_34  and  C_35
REMARK                            x       y       z     vdW  Elec       q    Type
REMARK                         _______ _______ _______ _____ _____    ______ ____
ROOT
ATOM      1  S   UNL     1      33.331 -15.033 -24.865  0.00  0.00    -0.118 S 
ATOM      2  O   UNL     1      35.110 -14.292 -20.904  0.00  0.00    -0.273 OA
ATOM      3  N   UNL     1      34.016 -15.696 -22.453  0.00  0.00    -0.260 N 
ATOM      4  C   UNL     1      32.818 -15.169 -23.115  0.00  0.00    +0.151 C 
ATOM      5  C   UNL     1      34.472 -16.495 -24.686  0.00  0.00    +0.068 C 
ATOM      6  C   UNL     1      35.034 -16.343 -23.256  0.00  0.00    +0.185 C 
ATOM      7  C   UNL     1      32.974 -13.912 -22.248  0.00  0.00    +0.178 C 
ATOM      8  C   UNL     1      34.217 -14.606 -21.657  0.00  0.00    +0.247 C 
ATOM      9  C   UNL     1      35.580 -16.392 -25.735  0.00  0.00    +0.013 C 
ATOM     10  C   UNL     1      33.647 -17.768 -24.914  0.00  0.00    +0.013 C 
ENDROOT
BRANCH   7  12
ATOM     11  O   UNL     1      31.383 -11.499 -22.222  0.00  0.00    -0.277 OA
ATOM     12  N   UNL     1      33.268 -12.646 -22.936  0.00  0.00    -0.298 N 
ATOM     13  C   UNL     1      32.433 -11.528 -22.863  0.00  0.00    +0.206 C 
ATOM     14  H   UNL     1      34.090 -12.583 -23.472  0.00  0.00    +0.150 HD
BRANCH  13  15
ATOM     15  C   UNL     1      32.945 -10.347 -23.680  0.00  0.00    +0.036 C 
BRANCH  15  16
ATOM     16  C   UNL     1      32.464  -9.036 -23.093  0.00  0.00    -0.034 C 
ATOM     17  C   UNL     1      31.427  -8.361 -23.709  0.00  0.00    -0.006 C 
ATOM     18  C   UNL     1      33.075  -8.545 -21.952  0.00  0.00    -0.006 C 
ATOM     19  C   UNL     1      30.985  -7.153 -23.169  0.00  0.00    -0.000 C 
ATOM     20  C   UNL     1      32.634  -7.337 -21.412  0.00  0.00    -0.000 C 
ATOM     21  C   UNL     1      31.589  -6.641 -22.020  0.00  0.00    -0.000 C 
ENDBRANCH  15  16
BRANCH  15  22
ATOM     22  N   UNL     1      34.407 -10.436 -23.726  0.00  0.00    +0.390 N 
ATOM     23  H   UNL     1      34.703 -11.352 -23.388  0.00  0.00    -0.088 HD
ATOM     24  H   UNL     1      34.811  -9.709 -23.135  0.00  0.00    -0.088 HD
ATOM     25  H   UNL     1      34.726 -10.310 -24.687  0.00  0.00    -0.088 HD
ENDBRANCH  15  22
ENDBRANCH  13  15
ENDBRANCH   7  12
BRANCH   6  27
ATOM     26  O   UNL     1      36.536 -18.014 -22.403  0.00  0.00    -0.248 OA
ATOM     27  C   UNL     1      35.390 -17.624 -22.570  0.00  0.00    +0.339 C 
BRANCH  27  28
ATOM     28  O   UNL     1      34.249 -18.259 -22.176  0.00  0.00    -0.412 OA
BRANCH  28  29
ATOM     29  C   UNL     1      34.321 -19.067 -20.985  0.00  0.00    +0.348 C 
ATOM     30  C   UNL     1      32.921 -19.538 -20.620  0.00  0.00    +0.100 C 
BRANCH  29  31
ATOM     31  O   UNL     1      35.120 -20.249 -21.210  0.00  0.00    -0.382 OA
BRANCH  31  33
ATOM     32  O   UNL     1      36.798 -19.907 -19.666  0.00  0.00    -0.203 OA
ATOM     33  C   UNL     1      35.956 -20.617 -20.199  0.00  0.00    +0.514 C 
BRANCH  33  34
ATOM     34  O   UNL     1      35.689 -21.916 -19.887  0.00  0.00    -0.418 OA
BRANCH  34  35
ATOM     35  C   UNL     1      35.146 -22.138 -18.580  0.00  0.00    +0.212 C 
ATOM     36  C   UNL     1      33.678 -22.484 -18.709  0.00  0.00    +0.051 C 
ENDBRANCH  34  35
ENDBRANCH  33  34
ENDBRANCH  31  33
ENDBRANCH  29  31
ENDBRANCH  28  29
ENDBRANCH  27  28
ENDBRANCH   6  27
TORSDOF 11
ENDMDL
MODEL 6
REMARK VINA RESULT:      -7.4      2.084      3.340
REMARK  Name = 441397
REMARK  11 active torsions:
REMARK  status: ('A' for Active; 'I' for Inactive)
REMARK    1  A    between atoms: C_6  and  C_27
REMARK    2  A    between atoms: C_7  and  N_12
REMARK    3  A    between atoms: C_13  and  C_15
REMARK    4  A    between atoms: C_15  and  C_16
REMARK    5  A    between atoms: C_15  and  N_22
REMARK    6  A    between atoms: C_27  and  O_28
REMARK    7  A    between atoms: O_28  and  C_29
REMARK    8  A    between atoms: C_29  and  O_31
REMARK    9  A    between atoms: O_31  and  C_33
REMARK   10  A    between atoms: C_33  and  O_34
REMARK   11  A    between atoms: O_34  and  C_35
REMARK                            x       y       z     vdW  Elec       q    Type
REMARK                         _______ _______ _______ _____ _____    ______ ____
ROOT
ATOM      1  S   UNL     1      34.961 -18.078 -23.910  0.00  0.00    -0.118 S 
ATOM      2  O   UNL     1      32.745 -15.732 -20.911  0.00  0.00    -0.273 OA
ATOM      3  N   UNL     1      34.287 -15.890 -22.691  0.00  0.00    -0.260 N 
ATOM      4  C   UNL     1      35.353 -16.890 -22.575  0.00  0.00    +0.151 C 
ATOM      5  C   UNL     1      34.232 -16.720 -24.957  0.00  0.00    +0.068 C 
ATOM      6  C   UNL     1      33.540 -15.800 -23.929  0.00  0.00    +0.185 C 
ATOM      7  C   UNL     1      34.806 -17.215 -21.178  0.00  0.00    +0.178 C 
ATOM      8  C   UNL     1      33.746 -16.132 -21.461  0.00  0.00    +0.247 C 
ATOM      9  C   UNL     1      33.221 -17.331 -25.929  0.00  0.00    +0.013 C 
ATOM     10  C   UNL     1      35.377 -16.058 -25.735  0.00  0.00    +0.013 C 
ENDROOT
BRANCH   7  12
ATOM     11  O   UNL     1      36.240 -19.605 -20.414  0.00  0.00    -0.277 OA
ATOM     12  N   UNL     1      34.246 -18.557 -20.964  0.00  0.00    -0.298 N 
ATOM     13  C   UNL     1      35.025 -19.656 -20.593  0.00  0.00    +0.206 C 
ATOM     14  H   UNL     1      33.278 -18.687 -21.085  0.00  0.00    +0.150 HD
BRANCH  13  15
ATOM     15  C   UNL     1      34.214 -20.940 -20.454  0.00  0.00    +0.036 C 
BRANCH  15  16
ATOM     16  C   UNL     1      34.549 -21.651 -19.158  0.00  0.00    -0.034 C 
ATOM     17  C   UNL     1      33.566 -22.384 -18.518  0.00  0.00    -0.006 C 
ATOM     18  C   UNL     1      35.830 -21.549 -18.645  0.00  0.00    -0.006 C 
ATOM     19  C   UNL     1      33.874 -23.038 -17.325  0.00  0.00    -0.000 C 
ATOM     20  C   UNL     1      36.137 -22.202 -17.451  0.00  0.00    -0.000 C 
ATOM     21  C   UNL     1      35.160 -22.947 -16.792  0.00  0.00    -0.000 C 
ENDBRANCH  15  16
BRANCH  15  22
ATOM     22  N   UNL     1      32.795 -20.586 -20.546  0.00  0.00    +0.390 N 
ATOM     23  H   UNL     1      32.268 -21.107 -19.845  0.00  0.00    -0.088 HD
ATOM     24  H   UNL     1      32.446 -20.819 -21.476  0.00  0.00    -0.088 HD
ATOM     25  H   UNL     1      32.683 -19.585 -20.381  0.00  0.00    -0.088 HD
ENDBRANCH  15  22
ENDBRANCH  13  15
ENDBRANCH   7  12
BRANCH   6  27
ATOM     26  O   UNL     1      32.896 -13.927 -25.290  0.00  0.00    -0.248 OA
ATOM     27  C   UNL     1      33.480 -14.353 -24.304  0.00  0.00    +0.339 C 
BRANCH  27  28
ATOM     28  O   UNL     1      34.167 -13.618 -23.385  0.00  0.00    -0.412 OA
BRANCH  28  29
ATOM     29  C   UNL     1      33.511 -12.452 -22.848  0.00  0.00    +0.348 C 
ATOM     30  C   UNL     1      33.592 -11.325 -23.866  0.00  0.00    +0.100 C 
BRANCH  29  31
ATOM     31  O   UNL     1      32.110 -12.711 -22.613  0.00  0.00    -0.382 OA
BRANCH  31  33
ATOM     32  O   UNL     1      30.606 -11.029 -22.140  0.00  0.00    -0.203 OA
ATOM     33  C   UNL     1      31.460 -11.836 -21.797  0.00  0.00    +0.514 C 
BRANCH  33  34
ATOM     34  O   UNL     1      31.927 -12.016 -20.530  0.00  0.00    -0.418 OA
BRANCH  34  35
ATOM     35  C   UNL     1      31.294 -11.224 -19.519  0.00  0.00    +0.212 C 
ATOM     36  C   UNL     1      32.117  -9.976 -19.284  0.00  0.00    +0.051 C 
ENDBRANCH  34  35
ENDBRANCH  33  34
ENDBRANCH  31  33
ENDBRANCH  29  31
ENDBRANCH  28  29
ENDBRANCH  27  28
ENDBRANCH   6  27
TORSDOF 11
ENDMDL
MODEL 7
REMARK VINA RESULT:      -7.4      2.424      9.908
REMARK  Name = 441397
REMARK  11 active torsions:
REMARK  status: ('A' for Active; 'I' for Inactive)
REMARK    1  A    between atoms: C_6  and  C_27
REMARK    2  A    between atoms: C_7  and  N_12
REMARK    3  A    between atoms: C_13  and  C_15
REMARK    4  A    between atoms: C_15  and  C_16
REMARK    5  A    between atoms: C_15  and  N_22
REMARK    6  A    between atoms: C_27  and  O_28
REMARK    7  A    between atoms: O_28  and  C_29
REMARK    8  A    between atoms: C_29  and  O_31
REMARK    9  A    between atoms: O_31  and  C_33
REMARK   10  A    between atoms: C_33  and  O_34
REMARK   11  A    between atoms: O_34  and  C_35
REMARK                            x       y       z     vdW  Elec       q    Type
REMARK                         _______ _______ _______ _____ _____    ______ ____
ROOT
ATOM      1  S   UNL     1      32.771 -11.917 -23.495  0.00  0.00    -0.118 S 
ATOM      2  O   UNL     1      32.128 -12.148 -19.143  0.00  0.00    -0.273 OA
ATOM      3  N   UNL     1      31.880 -13.019 -21.322  0.00  0.00    -0.260 N 
ATOM      4  C   UNL     1      31.355 -12.119 -22.354  0.00  0.00    +0.151 C 
ATOM      5  C   UNL     1      33.372 -13.639 -23.116  0.00  0.00    +0.068 C 
ATOM      6  C   UNL     1      33.056 -13.813 -21.615  0.00  0.00    +0.185 C 
ATOM      7  C   UNL     1      31.196 -11.059 -21.255  0.00  0.00    +0.178 C 
ATOM      8  C   UNL     1      31.771 -12.123 -20.298  0.00  0.00    +0.247 C 
ATOM      9  C   UNL     1      34.876 -13.711 -23.382  0.00  0.00    +0.013 C 
ATOM     10  C   UNL     1      32.627 -14.612 -24.040  0.00  0.00    +0.013 C 
ENDROOT
BRANCH   7  12
ATOM     11  O   UNL     1      31.468  -8.958 -19.289  0.00  0.00    -0.277 OA
ATOM     12  N   UNL     1      32.018  -9.844 -21.360  0.00  0.00    -0.298 N 
ATOM     13  C   UNL     1      32.085  -8.881 -20.350  0.00  0.00    +0.206 C 
ATOM     14  H   UNL     1      32.545  -9.704 -22.178  0.00  0.00    +0.150 HD
BRANCH  13  15
ATOM     15  C   UNL     1      32.988  -7.706 -20.707  0.00  0.00    +0.036 C 
BRANCH  15  16
ATOM     16  C   UNL     1      32.473  -6.983 -21.934  0.00  0.00    -0.034 C 
ATOM     17  C   UNL     1      33.167  -7.096 -23.125  0.00  0.00    -0.006 C 
ATOM     18  C   UNL     1      31.319  -6.224 -21.835  0.00  0.00    -0.006 C 
ATOM     19  C   UNL     1      32.693  -6.430 -24.254  0.00  0.00    -0.000 C 
ATOM     20  C   UNL     1      30.847  -5.557 -22.965  0.00  0.00    -0.000 C 
ATOM     21  C   UNL     1      31.532  -5.660 -24.175  0.00  0.00    -0.000 C 
ENDBRANCH  15  16
BRANCH  15  22
ATOM     22  N   UNL     1      33.066  -6.830 -19.534  0.00  0.00    +0.390 N 
ATOM     23  H   UNL     1      32.137  -6.468 -19.316  0.00  0.00    -0.088 HD
ATOM     24  H   UNL     1      33.695  -6.052 -19.732  0.00  0.00    -0.088 HD
ATOM     25  H   UNL     1      33.420  -7.359 -18.737  0.00  0.00    -0.088 HD
ENDBRANCH  15  22
ENDBRANCH  13  15
ENDBRANCH   7  12
BRANCH   6  27
ATOM     26  O   UNL     1      31.634 -15.661 -21.035  0.00  0.00    -0.248 OA
ATOM     27  C   UNL     1      32.762 -15.214 -21.181  0.00  0.00    +0.339 C 
BRANCH  27  28
ATOM     28  O   UNL     1      33.934 -15.882 -20.983  0.00  0.00    -0.412 OA
BRANCH  28  29
ATOM     29  C   UNL     1      34.088 -17.154 -21.644  0.00  0.00    +0.348 C 
ATOM     30  C   UNL     1      35.153 -17.027 -22.723  0.00  0.00    +0.100 C 
BRANCH  29  31
ATOM     31  O   UNL     1      34.542 -18.164 -20.717  0.00  0.00    -0.382 OA
BRANCH  31  33
ATOM     32  O   UNL     1      32.944 -19.821 -20.845  0.00  0.00    -0.203 OA
ATOM     33  C   UNL     1      34.101 -19.434 -20.941  0.00  0.00    +0.514 C 
BRANCH  33  34
ATOM     34  O   UNL     1      35.175 -20.196 -21.289  0.00  0.00    -0.418 OA
BRANCH  34  35
ATOM     35  C   UNL     1      36.080 -20.510 -20.225  0.00  0.00    +0.212 C 
ATOM     36  C   UNL     1      35.469 -21.593 -19.362  0.00  0.00    +0.051 C 
ENDBRANCH  34  35
ENDBRANCH  33  34
ENDBRANCH  31  33
ENDBRANCH  29  31
ENDBRANCH  28  29
ENDBRANCH  27  28
ENDBRANCH   6  27
TORSDOF 11
ENDMDL
MODEL 8
REMARK VINA RESULT:      -7.4      2.306      3.698
REMARK  Name = 441397
REMARK  11 active torsions:
REMARK  status: ('A' for Active; 'I' for Inactive)
REMARK    1  A    between atoms: C_6  and  C_27
REMARK    2  A    between atoms: C_7  and  N_12
REMARK    3  A    between atoms: C_13  and  C_15
REMARK    4  A    between atoms: C_15  and  C_16
REMARK    5  A    between atoms: C_15  and  N_22
REMARK    6  A    between atoms: C_27  and  O_28
REMARK    7  A    between atoms: O_28  and  C_29
REMARK    8  A    between atoms: C_29  and  O_31
REMARK    9  A    between atoms: O_31  and  C_33
REMARK   10  A    between atoms: C_33  and  O_34
REMARK   11  A    between atoms: O_34  and  C_35
REMARK                            x       y       z     vdW  Elec       q    Type
REMARK                         _______ _______ _______ _____ _____    ______ ____
ROOT
ATOM      1  S   UNL     1      31.873 -13.302 -20.979  0.00  0.00    -0.118 S 
ATOM      2  O   UNL     1      34.641 -11.940 -24.125  0.00  0.00    -0.273 OA
ATOM      3  N   UNL     1      32.534 -11.904 -23.062  0.00  0.00    -0.260 N 
ATOM      4  C   UNL     1      31.885 -13.193 -22.805  0.00  0.00    +0.151 C 
ATOM      5  C   UNL     1      31.731 -11.450 -20.831  0.00  0.00    +0.068 C 
ATOM      6  C   UNL     1      32.595 -10.924 -21.997  0.00  0.00    +0.185 C 
ATOM      7  C   UNL     1      33.064 -13.857 -23.530  0.00  0.00    +0.178 C 
ATOM      8  C   UNL     1      33.614 -12.429 -23.712  0.00  0.00    +0.247 C 
ATOM      9  C   UNL     1      32.293 -11.014 -19.477  0.00  0.00    +0.013 C 
ATOM     10  C   UNL     1      30.243 -11.083 -20.926  0.00  0.00    +0.013 C 
ENDROOT
BRANCH   7  12
ATOM     11  O   UNL     1      33.797 -16.587 -24.132  0.00  0.00    -0.277 OA
ATOM     12  N   UNL     1      33.937 -14.737 -22.740  0.00  0.00    -0.298 N 
ATOM     13  C   UNL     1      34.235 -16.050 -23.115  0.00  0.00    +0.206 C 
ATOM     14  H   UNL     1      34.331 -14.386 -21.910  0.00  0.00    +0.150 HD
BRANCH  13  15
ATOM     15  C   UNL     1      35.144 -16.762 -22.121  0.00  0.00    +0.036 C 
BRANCH  15  16
ATOM     16  C   UNL     1      34.440 -17.952 -21.502  0.00  0.00    -0.034 C 
ATOM     17  C   UNL     1      33.095 -17.855 -21.195  0.00  0.00    -0.006 C 
ATOM     18  C   UNL     1      35.160 -19.109 -21.258  0.00  0.00    -0.006 C 
ATOM     19  C   UNL     1      32.448 -18.951 -20.625  0.00  0.00    -0.000 C 
ATOM     20  C   UNL     1      34.512 -20.204 -20.687  0.00  0.00    -0.000 C 
ATOM     21  C   UNL     1      33.156 -20.126 -20.371  0.00  0.00    -0.000 C 
ENDBRANCH  15  16
BRANCH  15  22
ATOM     22  N   UNL     1      36.369 -17.144 -22.829  0.00  0.00    +0.390 N 
ATOM     23  H   UNL     1      36.126 -17.587 -23.716  0.00  0.00    -0.088 HD
ATOM     24  H   UNL     1      36.903 -17.799 -22.258  0.00  0.00    -0.088 HD
ATOM     25  H   UNL     1      36.932 -16.312 -23.009  0.00  0.00    -0.088 HD
ENDBRANCH  15  22
ENDBRANCH  13  15
ENDBRANCH   7  12
BRANCH   6  27
ATOM     26  O   UNL     1      31.336  -9.504 -23.471  0.00  0.00    -0.248 OA
ATOM     27  C   UNL     1      32.161  -9.615 -22.576  0.00  0.00    +0.339 C 
BRANCH  27  28
ATOM     28  O   UNL     1      32.826  -8.602 -21.951  0.00  0.00    -0.412 OA
BRANCH  28  29
ATOM     29  C   UNL     1      32.028  -7.561 -21.352  0.00  0.00    +0.348 C 
ATOM     30  C   UNL     1      32.552  -7.279 -19.951  0.00  0.00    +0.100 C 
BRANCH  29  31
ATOM     31  O   UNL     1      32.137  -6.331 -22.101  0.00  0.00    -0.382 OA
BRANCH  31  33
ATOM     32  O   UNL     1      30.118  -5.219 -22.083  0.00  0.00    -0.203 OA
ATOM     33  C   UNL     1      30.989  -5.857 -22.659  0.00  0.00    +0.514 C 
BRANCH  33  34
ATOM     34  O   UNL     1      30.980  -6.219 -23.972  0.00  0.00    -0.418 OA
BRANCH  34  35
ATOM     35  C   UNL     1      32.205  -6.000 -24.681  0.00  0.00    +0.212 C 
ATOM     36  C   UNL     1      32.169  -4.625 -25.313  0.00  0.00    +0.051 C 
ENDBRANCH  34  35
ENDBRANCH  33  34
ENDBRANCH  31  33
ENDBRANCH  29  31
ENDBRANCH  28  29
ENDBRANCH  27  28
ENDBRANCH   6  27
TORSDOF 11
ENDMDL
MODEL 9
REMARK VINA RESULT:      -7.3      2.263      9.243
REMARK  Name = 441397
REMARK  11 active torsions:
REMARK  status: ('A' for Active; 'I' for Inactive)
REMARK    1  A    between atoms: C_6  and  C_27
REMARK    2  A    between atoms: C_7  and  N_12
REMARK    3  A    between atoms: C_13  and  C_15
REMARK    4  A    between atoms: C_15  and  C_16
REMARK    5  A    between atoms: C_15  and  N_22
REMARK    6  A    between atoms: C_27  and  O_28
REMARK    7  A    between atoms: O_28  and  C_29
REMARK    8  A    between atoms: C_29  and  O_31
REMARK    9  A    between atoms: O_31  and  C_33
REMARK   10  A    between atoms: C_33  and  O_34
REMARK   11  A    between atoms: O_34  and  C_35
REMARK                            x       y       z     vdW  Elec       q    Type
REMARK                         _______ _______ _______ _____ _____    ______ ____
ROOT
ATOM      1  S   UNL     1      32.404 -12.184 -23.503  0.00  0.00    -0.118 S 
ATOM      2  O   UNL     1      34.438 -14.824 -20.621  0.00  0.00    -0.273 OA
ATOM      3  N   UNL     1      33.157 -14.486 -22.574  0.00  0.00    -0.260 N 
ATOM      4  C   UNL     1      31.973 -13.628 -22.466  0.00  0.00    +0.151 C 
ATOM      5  C   UNL     1      33.433 -13.252 -24.631  0.00  0.00    +0.068 C 
ATOM      6  C   UNL     1      34.078 -14.277 -23.673  0.00  0.00    +0.185 C 
ATOM      7  C   UNL     1      32.273 -13.516 -20.965  0.00  0.00    +0.178 C 
ATOM      8  C   UNL     1      33.485 -14.425 -21.251  0.00  0.00    +0.247 C 
ATOM      9  C   UNL     1      34.490 -12.382 -25.312  0.00  0.00    +0.013 C 
ATOM     10  C   UNL     1      32.498 -13.864 -25.683  0.00  0.00    +0.013 C 
ENDROOT
BRANCH   7  12
ATOM     11  O   UNL     1      30.489 -11.302 -20.449  0.00  0.00    -0.277 OA
ATOM     12  N   UNL     1      32.631 -12.190 -20.442  0.00  0.00    -0.298 N 
ATOM     13  C   UNL     1      31.692 -11.178 -20.224  0.00  0.00    +0.206 C 
ATOM     14  H   UNL     1      33.575 -12.007 -20.234  0.00  0.00    +0.150 HD
BRANCH  13  15
ATOM     15  C   UNL     1      32.315  -9.890 -19.698  0.00  0.00    +0.036 C 
BRANCH  15  16
ATOM     16  C   UNL     1      32.096  -8.749 -20.670  0.00  0.00    -0.034 C 
ATOM     17  C   UNL     1      32.151  -7.448 -20.205  0.00  0.00    -0.006 C 
ATOM     18  C   UNL     1      31.846  -9.035 -22.001  0.00  0.00    -0.006 C 
ATOM     19  C   UNL     1      31.949  -6.397 -21.100  0.00  0.00    -0.000 C 
ATOM     20  C   UNL     1      31.642  -7.984 -22.895  0.00  0.00    -0.000 C 
ATOM     21  C   UNL     1      31.695  -6.665 -22.445  0.00  0.00    -0.000 C 
ENDBRANCH  15  16
BRANCH  15  22
ATOM     22  N   UNL     1      31.736  -9.620 -18.379  0.00  0.00    +0.390 N 
ATOM     23  H   UNL     1      31.001 -10.301 -18.184  0.00  0.00    -0.088 HD
ATOM     24  H   UNL     1      31.339  -8.680 -18.368  0.00  0.00    -0.088 HD
ATOM     25  H   UNL     1      32.463  -9.691 -17.667  0.00  0.00    -0.088 HD
ENDBRANCH  15  22
ENDBRANCH  13  15
ENDBRANCH   7  12
BRANCH   6  27
ATOM     26  O   UNL     1      33.864 -16.025 -25.310  0.00  0.00    -0.248 OA
ATOM     27  C   UNL     1      34.364 -15.618 -24.271  0.00  0.00    +0.339 C 
BRANCH  27  28
ATOM     28  O   UNL     1      35.252 -16.286 -23.480  0.00  0.00    -0.412 OA
BRANCH  28  29
ATOM     29  C   UNL     1      34.846 -17.573 -22.974  0.00  0.00    +0.348 C 
ATOM     30  C   UNL     1      35.261 -18.649 -23.967  0.00  0.00    +0.100 C 
BRANCH  29  31
ATOM     31  O   UNL     1      35.509 -17.870 -21.726  0.00  0.00    -0.382 OA
BRANCH  31  33
ATOM     32  O   UNL     1      33.768 -19.129 -20.891  0.00  0.00    -0.203 OA
ATOM     33  C   UNL     1      34.959 -18.858 -20.966  0.00  0.00    +0.514 C 
BRANCH  33  34
ATOM     34  O   UNL     1      35.967 -19.491 -20.305  0.00  0.00    -0.418 OA
BRANCH  34  35
ATOM     35  C   UNL     1      35.917 -20.922 -20.327  0.00  0.00    +0.212 C 
ATOM     36  C   UNL     1      36.201 -21.446 -18.936  0.00  0.00    +0.051 C 
ENDBRANCH  34  35
ENDBRANCH  33  34
ENDBRANCH  31  33
ENDBRANCH  29  31
ENDBRANCH  28  29
ENDBRANCH  27  28
ENDBRANCH   6  27
TORSDOF 11
ENDMDL
