MODEL 1
REMARK VINA RESULT:      -9.6      0.000      0.000
REMARK  Name = 31378
REMARK  5 active torsions:
REMARK  status: ('A' for Active; 'I' for Inactive)
REMARK    1  A    between atoms: C_7  and  O_22
REMARK    2  A    between atoms: C_7  and  C_27
REMARK    3  A    between atoms: C_10  and  O_24
REMARK    4  A    between atoms: C_27  and  C_28
REMARK    5  A    between atoms: C_28  and  O_29
REMARK                            x       y       z     vdW  Elec       q    Type
REMARK                         _______ _______ _______ _____ _____    ______ ____
ROOT
ATOM      1  F   UNL     1      35.022 -25.570 -15.090  0.00  0.00    -0.237 F 
ATOM      2  O   UNL     1      40.138 -26.174 -14.216  0.00  0.00    -0.291 OA
ATOM      3  C   UNL     1      32.080 -23.686 -14.806  0.00  0.00    +0.032 C 
ATOM      4  C   UNL     1      33.173 -23.592 -15.894  0.00  0.00    +0.005 C 
ATOM      5  C   UNL     1      34.570 -23.283 -15.332  0.00  0.00    +0.033 C 
ATOM      6  C   UNL     1      34.980 -24.410 -14.332  0.00  0.00    +0.161 C 
ATOM      7  C   UNL     1      30.842 -23.927 -15.711  0.00  0.00    +0.141 C 
ATOM      8  C   UNL     1      32.467 -24.844 -13.863  0.00  0.00    +0.035 C 
ATOM      9  C   UNL     1      36.447 -24.219 -13.767  0.00  0.00    +0.046 C 
ATOM     10  C   UNL     1      33.882 -24.688 -13.262  0.00  0.00    +0.141 C 
ATOM     11  C   UNL     1      32.567 -22.641 -16.923  0.00  0.00    +0.003 C 
ATOM     12  C   UNL     1      31.063 -22.986 -16.917  0.00  0.00    +0.034 C 
ATOM     13  C   UNL     1      35.592 -23.187 -16.476  0.00  0.00    +0.007 C 
ATOM     14  C   UNL     1      31.895 -22.367 -14.007  0.00  0.00    +0.003 C 
ATOM     15  C   UNL     1      37.411 -23.999 -14.941  0.00  0.00    -0.039 C 
ATOM     16  C   UNL     1      37.005 -22.958 -15.956  0.00  0.00    +0.022 C 
ATOM     17  C   UNL     1      36.845 -25.506 -12.984  0.00  0.00    +0.014 C 
ATOM     18  C   UNL     1      36.596 -23.000 -12.827  0.00  0.00    +0.007 C 
ATOM     19  C   UNL     1      38.340 -25.627 -12.732  0.00  0.00    +0.070 C 
ATOM     20  C   UNL     1      38.584 -24.640 -15.084  0.00  0.00    +0.029 C 
ATOM     21  C   UNL     1      39.091 -25.556 -14.036  0.00  0.00    +0.173 C 
ENDROOT
BRANCH   7  22
ATOM     22  O   UNL     1      30.790 -25.276 -16.168  0.00  0.00    -0.380 OA
ATOM     23  H   UNL     1      29.892 -25.480 -16.472  0.00  0.00    +0.211 HD
ENDBRANCH   7  22
BRANCH  10  24
ATOM     24  O   UNL     1      33.864 -23.689 -12.255  0.00  0.00    -0.382 OA
ATOM     25  H   UNL     1      33.114 -23.092 -12.403  0.00  0.00    +0.210 HD
ENDBRANCH  10  24
BRANCH   7  27
ATOM     26  O   UNL     1      29.105 -24.500 -14.184  0.00  0.00    -0.291 OA
ATOM     27  C   UNL     1      29.522 -23.714 -15.034  0.00  0.00    +0.204 C 
BRANCH  27  28
ATOM     28  C   UNL     1      28.742 -22.486 -15.455  0.00  0.00    +0.204 C 
BRANCH  28  29
ATOM     29  O   UNL     1      27.391 -22.814 -15.702  0.00  0.00    -0.375 OA
ATOM     30  H   UNL     1      26.915 -22.022 -15.999  0.00  0.00    +0.211 HD
ENDBRANCH  28  29
ENDBRANCH  27  28
ENDBRANCH   7  27
TORSDOF 5
ENDMDL
MODEL 2
REMARK VINA RESULT:      -8.1      1.710      7.071
REMARK  Name = 31378
REMARK  5 active torsions:
REMARK  status: ('A' for Active; 'I' for Inactive)
REMARK    1  A    between atoms: C_7  and  O_22
REMARK    2  A    between atoms: C_7  and  C_27
REMARK    3  A    between atoms: C_10  and  O_24
REMARK    4  A    between atoms: C_27  and  C_28
REMARK    5  A    between atoms: C_28  and  O_29
REMARK                            x       y       z     vdW  Elec       q    Type
REMARK                         _______ _______ _______ _____ _____    ______ ____
ROOT
ATOM      1  F   UNL     1      32.401 -22.324 -14.337  0.00  0.00    -0.237 F 
ATOM      2  O   UNL     1      27.367 -21.846 -15.653  0.00  0.00    -0.291 OA
ATOM      3  C   UNL     1      35.416 -24.111 -14.405  0.00  0.00    +0.032 C 
ATOM      4  C   UNL     1      34.874 -23.113 -15.453  0.00  0.00    +0.005 C 
ATOM      5  C   UNL     1      33.506 -23.513 -16.029  0.00  0.00    +0.033 C 
ATOM      6  C   UNL     1      32.468 -23.604 -14.866  0.00  0.00    +0.161 C 
ATOM      7  C   UNL     1      36.788 -23.449 -14.109  0.00  0.00    +0.141 C 
ATOM      8  C   UNL     1      34.411 -24.143 -13.236  0.00  0.00    +0.035 C 
ATOM      9  C   UNL     1      31.005 -23.928 -15.379  0.00  0.00    +0.046 C 
ATOM     10  C   UNL     1      32.972 -24.484 -13.683  0.00  0.00    +0.141 C 
ATOM     11  C   UNL     1      36.050 -22.929 -16.408  0.00  0.00    +0.003 C 
ATOM     12  C   UNL     1      37.292 -22.982 -15.494  0.00  0.00    +0.034 C 
ATOM     13  C   UNL     1      33.048 -22.481 -17.073  0.00  0.00    +0.007 C 
ATOM     14  C   UNL     1      35.638 -25.539 -14.978  0.00  0.00    +0.003 C 
ATOM     15  C   UNL     1      30.644 -22.953 -16.508  0.00  0.00    -0.039 C 
ATOM     16  C   UNL     1      31.661 -22.799 -17.613  0.00  0.00    +0.022 C 
ATOM     17  C   UNL     1      30.015 -23.756 -14.188  0.00  0.00    +0.014 C 
ATOM     18  C   UNL     1      30.851 -25.357 -15.951  0.00  0.00    +0.007 C 
ATOM     19  C   UNL     1      28.561 -23.645 -14.618  0.00  0.00    +0.070 C 
ATOM     20  C   UNL     1      29.482 -22.280 -16.580  0.00  0.00    +0.029 C 
ATOM     21  C   UNL     1      28.397 -22.515 -15.601  0.00  0.00    +0.173 C 
ENDROOT
BRANCH   7  22
ATOM     22  O   UNL     1      36.642 -22.318 -13.254  0.00  0.00    -0.380 OA
ATOM     23  H   UNL     1      35.746 -21.959 -13.343  0.00  0.00    +0.211 HD
ENDBRANCH   7  22
BRANCH  10  24
ATOM     24  O   UNL     1      32.882 -25.869 -13.982  0.00  0.00    -0.382 OA
ATOM     25  H   UNL     1      33.091 -26.013 -14.917  0.00  0.00    +0.210 HD
ENDBRANCH  10  24
BRANCH   7  27
ATOM     26  O   UNL     1      38.460 -25.143 -14.006  0.00  0.00    -0.291 OA
ATOM     27  C   UNL     1      37.767 -24.330 -13.395  0.00  0.00    +0.204 C 
BRANCH  27  28
ATOM     28  C   UNL     1      37.850 -24.161 -11.892  0.00  0.00    +0.204 C 
BRANCH  28  29
ATOM     29  O   UNL     1      38.684 -23.071 -11.558  0.00  0.00    -0.375 OA
ATOM     30  H   UNL     1      38.156 -22.377 -11.134  0.00  0.00    +0.211 HD
ENDBRANCH  28  29
ENDBRANCH  27  28
ENDBRANCH   7  27
TORSDOF 5
ENDMDL
MODEL 3
REMARK VINA RESULT:      -7.3     14.546     17.036
REMARK  Name = 31378
REMARK  5 active torsions:
REMARK  status: ('A' for Active; 'I' for Inactive)
REMARK    1  A    between atoms: C_7  and  O_22
REMARK    2  A    between atoms: C_7  and  C_27
REMARK    3  A    between atoms: C_10  and  O_24
REMARK    4  A    between atoms: C_27  and  C_28
REMARK    5  A    between atoms: C_28  and  O_29
REMARK                            x       y       z     vdW  Elec       q    Type
REMARK                         _______ _______ _______ _____ _____    ______ ____
ROOT
ATOM      1  F   UNL     1      31.406  -9.599 -23.797  0.00  0.00    -0.237 F 
ATOM      2  O   UNL     1      30.753  -4.451 -23.188  0.00  0.00    -0.291 OA
ATOM      3  C   UNL     1      33.307 -12.508 -23.339  0.00  0.00    +0.032 C 
ATOM      4  C   UNL     1      32.300 -11.861 -22.361  0.00  0.00    +0.005 C 
ATOM      5  C   UNL     1      32.654 -10.414 -21.988  0.00  0.00    +0.033 C 
ATOM      6  C   UNL     1      32.694  -9.546 -23.286  0.00  0.00    +0.161 C 
ATOM      7  C   UNL     1      32.694 -13.932 -23.430  0.00  0.00    +0.141 C 
ATOM      8  C   UNL     1      33.288 -11.676 -24.637  0.00  0.00    +0.035 C 
ATOM      9  C   UNL     1      32.968  -8.015 -22.987  0.00  0.00    +0.046 C 
ATOM     10  C   UNL     1      33.579 -10.178 -24.401  0.00  0.00    +0.141 C 
ATOM     11  C   UNL     1      32.172 -12.898 -21.249  0.00  0.00    +0.003 C 
ATOM     12  C   UNL     1      32.262 -14.254 -21.981  0.00  0.00    +0.034 C 
ATOM     13  C   UNL     1      31.618  -9.851 -21.002  0.00  0.00    +0.007 C 
ATOM     14  C   UNL     1      34.748 -12.597 -22.765  0.00  0.00    +0.003 C 
ATOM     15  C   UNL     1      31.992  -7.534 -21.903  0.00  0.00    -0.039 C 
ATOM     16  C   UNL     1      31.889  -8.391 -20.665  0.00  0.00    +0.022 C 
ATOM     17  C   UNL     1      32.745  -7.208 -24.301  0.00  0.00    +0.014 C 
ATOM     18  C   UNL     1      34.396  -7.730 -22.465  0.00  0.00    +0.007 C 
ATOM     19  C   UNL     1      32.584  -5.712 -24.076  0.00  0.00    +0.070 C 
ATOM     20  C   UNL     1      31.276  -6.399 -21.983  0.00  0.00    +0.029 C 
ATOM     21  C   UNL     1      31.460  -5.453 -23.108  0.00  0.00    +0.173 C 
ENDROOT
BRANCH   7  22
ATOM     22  O   UNL     1      31.549 -13.948 -24.279  0.00  0.00    -0.380 OA
ATOM     23  H   UNL     1      30.877 -13.343 -23.927  0.00  0.00    +0.211 HD
ENDBRANCH   7  22
BRANCH  10  24
ATOM     24  O   UNL     1      34.962  -9.997 -24.140  0.00  0.00    -0.382 OA
ATOM     25  H   UNL     1      35.463 -10.096 -24.964  0.00  0.00    +0.210 HD
ENDBRANCH  10  24
BRANCH   7  27
ATOM     26  O   UNL     1      33.742 -15.083 -25.233  0.00  0.00    -0.291 OA
ATOM     27  C   UNL     1      33.604 -14.968 -24.016  0.00  0.00    +0.204 C 
BRANCH  27  28
ATOM     28  C   UNL     1      34.334 -15.855 -23.028  0.00  0.00    +0.204 C 
BRANCH  28  29
ATOM     29  O   UNL     1      35.649 -16.117 -23.472  0.00  0.00    -0.375 OA
ATOM     30  H   UNL     1      36.284 -15.710 -22.861  0.00  0.00    +0.211 HD
ENDBRANCH  28  29
ENDBRANCH  27  28
ENDBRANCH   7  27
TORSDOF 5
ENDMDL
MODEL 4
REMARK VINA RESULT:      -7.2     10.303     12.809
REMARK  Name = 31378
REMARK  5 active torsions:
REMARK  status: ('A' for Active; 'I' for Inactive)
REMARK    1  A    between atoms: C_7  and  O_22
REMARK    2  A    between atoms: C_7  and  C_27
REMARK    3  A    between atoms: C_10  and  O_24
REMARK    4  A    between atoms: C_27  and  C_28
REMARK    5  A    between atoms: C_28  and  O_29
REMARK                            x       y       z     vdW  Elec       q    Type
REMARK                         _______ _______ _______ _____ _____    ______ ____
ROOT
ATOM      1  F   UNL     1      35.583 -14.868 -23.510  0.00  0.00    -0.237 F 
ATOM      2  O   UNL     1      34.274 -10.339 -25.764  0.00  0.00    -0.291 OA
ATOM      3  C   UNL     1      34.682 -17.833 -21.872  0.00  0.00    +0.032 C 
ATOM      4  C   UNL     1      34.738 -17.561 -23.392  0.00  0.00    +0.005 C 
ATOM      5  C   UNL     1      33.838 -16.398 -23.839  0.00  0.00    +0.033 C 
ATOM      6  C   UNL     1      34.279 -15.096 -23.098  0.00  0.00    +0.161 C 
ATOM      7  C   UNL     1      35.621 -19.067 -21.800  0.00  0.00    +0.141 C 
ATOM      8  C   UNL     1      35.179 -16.559 -21.158  0.00  0.00    +0.035 C 
ATOM      9  C   UNL     1      33.459 -13.823 -23.563  0.00  0.00    +0.046 C 
ATOM     10  C   UNL     1      34.390 -15.293 -21.557  0.00  0.00    +0.141 C 
ATOM     11  C   UNL     1      34.518 -18.940 -24.007  0.00  0.00    +0.003 C 
ATOM     12  C   UNL     1      35.245 -19.904 -23.045  0.00  0.00    +0.034 C 
ATOM     13  C   UNL     1      33.937 -16.206 -25.361  0.00  0.00    +0.007 C 
ATOM     14  C   UNL     1      33.264 -18.225 -21.372  0.00  0.00    +0.003 C 
ATOM     15  C   UNL     1      33.479 -13.747 -25.097  0.00  0.00    -0.039 C 
ATOM     16  C   UNL     1      33.118 -15.013 -25.836  0.00  0.00    +0.022 C 
ATOM     17  C   UNL     1      34.131 -12.555 -22.957  0.00  0.00    +0.014 C 
ATOM     18  C   UNL     1      31.973 -13.852 -23.134  0.00  0.00    +0.007 C 
ATOM     19  C   UNL     1      33.701 -11.260 -23.629  0.00  0.00    +0.070 C 
ATOM     20  C   UNL     1      33.756 -12.631 -25.792  0.00  0.00    +0.029 C 
ATOM     21  C   UNL     1      33.966 -11.333 -25.110  0.00  0.00    +0.173 C 
ENDROOT
BRANCH   7  22
ATOM     22  O   UNL     1      36.990 -18.681 -21.886  0.00  0.00    -0.380 OA
ATOM     23  H   UNL     1      37.101 -18.040 -22.606  0.00  0.00    +0.211 HD
ENDBRANCH   7  22
BRANCH  10  24
ATOM     24  O   UNL     1      33.114 -15.312 -20.936  0.00  0.00    -0.382 OA
ATOM     25  H   UNL     1      33.148 -15.866 -20.141  0.00  0.00    +0.210 HD
ENDBRANCH  10  24
BRANCH   7  27
ATOM     26  O   UNL     1      36.445 -19.819 -19.695  0.00  0.00    -0.291 OA
ATOM     27  C   UNL     1      35.534 -19.845 -20.522  0.00  0.00    +0.204 C 
BRANCH  27  28
ATOM     28  C   UNL     1      34.271 -20.655 -20.313  0.00  0.00    +0.204 C 
BRANCH  28  29
ATOM     29  O   UNL     1      34.501 -21.710 -19.403  0.00  0.00    -0.375 OA
ATOM     30  H   UNL     1      33.817 -22.389 -19.516  0.00  0.00    +0.211 HD
ENDBRANCH  28  29
ENDBRANCH  27  28
ENDBRANCH   7  27
TORSDOF 5
ENDMDL
