MODEL 1
REMARK VINA RESULT:     -10.0      0.000      0.000
REMARK  Name = 60672
REMARK  8 active torsions:
REMARK  status: ('A' for Active; 'I' for Inactive)
REMARK    1  A    between atoms: N_1  and  C_22
REMARK    2  A    between atoms: C_2  and  N_10
REMARK    3  A    between atoms: N_10  and  C_13
REMARK    4  A    between atoms: C_11  and  C_19
REMARK    5  A    between atoms: C_19  and  O_20
REMARK    6  A    between atoms: C_22  and  C_23
REMARK    7  A    between atoms: C_23  and  N_25
REMARK    8  A    between atoms: N_27  and  C_30
REMARK                            x       y       z     vdW  Elec       q    Type
REMARK                         _______ _______ _______ _____ _____    ______ ____
ROOT
ATOM      1  N   UNL     1      32.562 -13.955 -21.275  0.00  0.00    +0.388 N 
ATOM      2  C   UNL     1      34.274 -16.212 -21.992  0.00  0.00    +0.076 C 
ATOM      3  C   UNL     1      33.354 -16.264 -20.754  0.00  0.00    -0.002 C 
ATOM      4  C   UNL     1      33.743 -15.235 -23.044  0.00  0.00    -0.003 C 
ATOM      5  C   UNL     1      33.125 -14.830 -20.235  0.00  0.00    -0.076 C 
ATOM      6  C   UNL     1      33.464 -13.860 -22.432  0.00  0.00    -0.076 C 
ATOM      7  C   UNL     1      32.013 -16.967 -21.011  0.00  0.00    -0.000 C 
ATOM      8  H   UNL     1      31.684 -14.366 -21.592  0.00  0.00    -0.080 HD
ENDROOT
BRANCH   2  10
ATOM      9  O   UNL     1      34.798 -18.823 -24.522  0.00  0.00    -0.272 OA
ATOM     10  N   UNL     1      34.518 -17.512 -22.566  0.00  0.00    -0.256 N 
ATOM     11  C   UNL     1      34.592 -17.739 -23.968  0.00  0.00    +0.260 C 
BRANCH  10  13
ATOM     12  F   UNL     1      37.052 -18.327 -21.663  0.00  0.00    -0.203 F 
ATOM     13  C   UNL     1      34.698 -18.647 -21.667  0.00  0.00    +0.081 C 
ATOM     14  C   UNL     1      35.977 -19.013 -21.247  0.00  0.00    +0.154 C 
ATOM     15  C   UNL     1      33.588 -19.368 -21.227  0.00  0.00    +0.017 C 
ATOM     16  C   UNL     1      36.146 -20.097 -20.386  0.00  0.00    +0.031 C 
ATOM     17  C   UNL     1      33.756 -20.453 -20.366  0.00  0.00    +0.001 C 
ATOM     18  C   UNL     1      35.036 -20.818 -19.946  0.00  0.00    +0.002 C 
ENDBRANCH  10  13
BRANCH  11  19
ATOM     19  C   UNL     1      34.455 -16.516 -24.856  0.00  0.00    +0.228 C 
BRANCH  19  20
ATOM     20  O   UNL     1      33.620 -16.816 -25.953  0.00  0.00    -0.342 OA
ATOM     21  C   UNL     1      32.911 -15.668 -26.411  0.00  0.00    +0.175 C 
ENDBRANCH  19  20
ENDBRANCH  11  19
ENDBRANCH   2  10
BRANCH   1  22
ATOM     22  C   UNL     1      32.287 -12.624 -20.733  0.00  0.00    -0.050 C 
BRANCH  22  23
ATOM     23  C   UNL     1      31.520 -11.788 -21.746  0.00  0.00    +0.111 C 
BRANCH  23  25
ATOM     24  O   UNL     1      32.732 -10.177 -23.951  0.00  0.00    -0.243 OA
ATOM     25  N   UNL     1      31.968 -10.422 -21.740  0.00  0.00    -0.184 N 
ATOM     26  N   UNL     1      31.914  -9.579 -20.664  0.00  0.00    -0.042 NA
ATOM     27  N   UNL     1      32.777  -8.497 -22.307  0.00  0.00    -0.182 N 
ATOM     28  N   UNL     1      32.389  -8.450 -20.998  0.00  0.00    -0.042 NA
ATOM     29  C   UNL     1      32.522  -9.758 -22.824  0.00  0.00    +0.365 A 
BRANCH  27  30
ATOM     30  C   UNL     1      33.357  -7.358 -22.967  0.00  0.00    +0.134 C 
ATOM     31  C   UNL     1      34.805  -7.605 -23.334  0.00  0.00    +0.029 C 
ENDBRANCH  27  30
ENDBRANCH  23  25
ENDBRANCH  22  23
ENDBRANCH   1  22
TORSDOF 8
ENDMDL
MODEL 2
REMARK VINA RESULT:      -9.9      5.841      9.558
REMARK  Name = 60672
REMARK  8 active torsions:
REMARK  status: ('A' for Active; 'I' for Inactive)
REMARK    1  A    between atoms: N_1  and  C_22
REMARK    2  A    between atoms: C_2  and  N_10
REMARK    3  A    between atoms: N_10  and  C_13
REMARK    4  A    between atoms: C_11  and  C_19
REMARK    5  A    between atoms: C_19  and  O_20
REMARK    6  A    between atoms: C_22  and  C_23
REMARK    7  A    between atoms: C_23  and  N_25
REMARK    8  A    between atoms: N_27  and  C_30
REMARK                            x       y       z     vdW  Elec       q    Type
REMARK                         _______ _______ _______ _____ _____    ______ ____
ROOT
ATOM      1  N   UNL     1      35.507 -21.946 -19.123  0.00  0.00    +0.388 N 
ATOM      2  C   UNL     1      34.656 -22.723 -16.437  0.00  0.00    +0.076 C 
ATOM      3  C   UNL     1      33.757 -22.970 -17.666  0.00  0.00    -0.002 C 
ATOM      4  C   UNL     1      36.135 -22.656 -16.828  0.00  0.00    -0.003 C 
ATOM      5  C   UNL     1      34.084 -21.922 -18.749  0.00  0.00    -0.076 C 
ATOM      6  C   UNL     1      36.363 -21.655 -17.963  0.00  0.00    -0.076 C 
ATOM      7  C   UNL     1      33.870 -24.392 -18.237  0.00  0.00    -0.000 C 
ATOM      8  H   UNL     1      35.731 -22.884 -19.453  0.00  0.00    -0.080 HD
ENDROOT
BRANCH   2  10
ATOM      9  O   UNL     1      32.934 -24.668 -13.840  0.00  0.00    -0.272 OA
ATOM     10  N   UNL     1      34.442 -23.680 -15.381  0.00  0.00    -0.256 N 
ATOM     11  C   UNL     1      33.182 -23.867 -14.746  0.00  0.00    +0.260 C 
BRANCH  10  13
ATOM     12  F   UNL     1      36.198 -22.855 -13.347  0.00  0.00    -0.203 F 
ATOM     13  C   UNL     1      35.569 -24.497 -14.944  0.00  0.00    +0.081 C 
ATOM     14  C   UNL     1      36.413 -24.043 -13.930  0.00  0.00    +0.154 C 
ATOM     15  C   UNL     1      35.803 -25.737 -15.541  0.00  0.00    +0.017 C 
ATOM     16  C   UNL     1      37.488 -24.828 -13.512  0.00  0.00    +0.031 C 
ATOM     17  C   UNL     1      36.878 -26.521 -15.124  0.00  0.00    +0.001 C 
ATOM     18  C   UNL     1      37.721 -26.066 -14.110  0.00  0.00    +0.002 C 
ENDBRANCH  10  13
BRANCH  11  19
ATOM     19  C   UNL     1      32.031 -23.033 -15.278  0.00  0.00    +0.228 C 
BRANCH  19  20
ATOM     20  O   UNL     1      31.010 -23.882 -15.756  0.00  0.00    -0.342 OA
ATOM     21  C   UNL     1      29.881 -23.147 -16.218  0.00  0.00    +0.175 C 
ENDBRANCH  19  20
ENDBRANCH  11  19
ENDBRANCH   2  10
BRANCH   1  22
ATOM     22  C   UNL     1      35.770 -20.995 -20.202  0.00  0.00    -0.050 C 
BRANCH  22  23
ATOM     23  C   UNL     1      34.578 -20.071 -20.397  0.00  0.00    +0.111 C 
BRANCH  23  25
ATOM     24  O   UNL     1      35.060 -17.126 -20.539  0.00  0.00    -0.243 OA
ATOM     25  N   UNL     1      34.754 -19.229 -21.548  0.00  0.00    -0.184 N 
ATOM     26  N   UNL     1      34.729 -19.654 -22.848  0.00  0.00    -0.042 NA
ATOM     27  N   UNL     1      35.073 -17.533 -22.854  0.00  0.00    -0.182 N 
ATOM     28  N   UNL     1      34.916 -18.659 -23.614  0.00  0.00    -0.042 NA
ATOM     29  C   UNL     1      34.974 -17.860 -21.511  0.00  0.00    +0.365 A 
BRANCH  27  30
ATOM     30  C   UNL     1      35.302 -16.243 -23.449  0.00  0.00    +0.134 C 
ATOM     31  C   UNL     1      34.030 -15.425 -23.507  0.00  0.00    +0.029 C 
ENDBRANCH  27  30
ENDBRANCH  23  25
ENDBRANCH  22  23
ENDBRANCH   1  22
TORSDOF 8
ENDMDL
MODEL 3
REMARK VINA RESULT:      -9.9      6.266      9.969
REMARK  Name = 60672
REMARK  8 active torsions:
REMARK  status: ('A' for Active; 'I' for Inactive)
REMARK    1  A    between atoms: N_1  and  C_22
REMARK    2  A    between atoms: C_2  and  N_10
REMARK    3  A    between atoms: N_10  and  C_13
REMARK    4  A    between atoms: C_11  and  C_19
REMARK    5  A    between atoms: C_19  and  O_20
REMARK    6  A    between atoms: C_22  and  C_23
REMARK    7  A    between atoms: C_23  and  N_25
REMARK    8  A    between atoms: N_27  and  C_30
REMARK                            x       y       z     vdW  Elec       q    Type
REMARK                         _______ _______ _______ _____ _____    ______ ____
ROOT
ATOM      1  N   UNL     1      35.978 -22.120 -18.433  0.00  0.00    +0.388 N 
ATOM      2  C   UNL     1      34.912 -22.793 -15.797  0.00  0.00    +0.076 C 
ATOM      3  C   UNL     1      34.069 -22.980 -17.075  0.00  0.00    -0.002 C 
ATOM      4  C   UNL     1      36.411 -22.852 -16.102  0.00  0.00    -0.003 C 
ATOM      5  C   UNL     1      34.543 -21.974 -18.144  0.00  0.00    -0.076 C 
ATOM      6  C   UNL     1      36.787 -21.886 -17.228  0.00  0.00    -0.076 C 
ATOM      7  C   UNL     1      34.096 -24.412 -17.629  0.00  0.00    -0.000 C 
ATOM      8  H   UNL     1      36.142 -23.077 -18.744  0.00  0.00    -0.080 HD
ENDROOT
BRANCH   2  10
ATOM      9  O   UNL     1      32.881 -24.578 -13.310  0.00  0.00    -0.272 OA
ATOM     10  N   UNL     1      34.559 -23.717 -14.749  0.00  0.00    -0.256 N 
ATOM     11  C   UNL     1      33.248 -23.810 -14.204  0.00  0.00    +0.260 C 
BRANCH  10  13
ATOM     12  F   UNL     1      35.845 -23.232 -12.297  0.00  0.00    -0.203 F 
ATOM     13  C   UNL     1      35.594 -24.601 -14.223  0.00  0.00    +0.081 C 
ATOM     14  C   UNL     1      36.203 -24.317 -13.000  0.00  0.00    +0.154 C 
ATOM     15  C   UNL     1      35.975 -25.733 -14.944  0.00  0.00    +0.017 C 
ATOM     16  C   UNL     1      37.191 -25.165 -12.499  0.00  0.00    +0.031 C 
ATOM     17  C   UNL     1      36.962 -26.580 -14.443  0.00  0.00    +0.001 C 
ATOM     18  C   UNL     1      37.571 -26.297 -13.220  0.00  0.00    +0.002 C 
ENDBRANCH  10  13
BRANCH  11  19
ATOM     19  C   UNL     1      32.196 -22.909 -14.827  0.00  0.00    +0.228 C 
BRANCH  19  20
ATOM     20  O   UNL     1      31.116 -23.690 -15.292  0.00  0.00    -0.342 OA
ATOM     21  C   UNL     1      30.378 -23.022 -16.311  0.00  0.00    +0.175 C 
ENDBRANCH  19  20
ENDBRANCH  11  19
ENDBRANCH   2  10
BRANCH   1  22
ATOM     22  C   UNL     1      36.381 -21.206 -19.502  0.00  0.00    -0.050 C 
BRANCH  22  23
ATOM     23  C   UNL     1      35.217 -20.948 -20.446  0.00  0.00    +0.111 C 
BRANCH  23  25
ATOM     24  O   UNL     1      32.717 -19.355 -20.817  0.00  0.00    -0.243 OA
ATOM     25  N   UNL     1      35.059 -19.543 -20.707  0.00  0.00    -0.184 N 
ATOM     26  N   UNL     1      36.083 -18.646 -20.838  0.00  0.00    -0.042 NA
ATOM     27  N   UNL     1      34.234 -17.580 -21.092  0.00  0.00    -0.182 N 
ATOM     28  N   UNL     1      35.598 -17.494 -21.065  0.00  0.00    -0.042 NA
ATOM     29  C   UNL     1      33.845 -18.891 -20.866  0.00  0.00    +0.365 A 
BRANCH  27  30
ATOM     30  C   UNL     1      33.407 -16.427 -21.330  0.00  0.00    +0.134 C 
ATOM     31  C   UNL     1      33.948 -15.201 -20.627  0.00  0.00    +0.029 C 
ENDBRANCH  27  30
ENDBRANCH  23  25
ENDBRANCH  22  23
ENDBRANCH   1  22
TORSDOF 8
ENDMDL
MODEL 4
REMARK VINA RESULT:      -9.7      3.263      8.845
REMARK  Name = 60672
REMARK  8 active torsions:
REMARK  status: ('A' for Active; 'I' for Inactive)
REMARK    1  A    between atoms: N_1  and  C_22
REMARK    2  A    between atoms: C_2  and  N_10
REMARK    3  A    between atoms: N_10  and  C_13
REMARK    4  A    between atoms: C_11  and  C_19
REMARK    5  A    between atoms: C_19  and  O_20
REMARK    6  A    between atoms: C_22  and  C_23
REMARK    7  A    between atoms: C_23  and  N_25
REMARK    8  A    between atoms: N_27  and  C_30
REMARK                            x       y       z     vdW  Elec       q    Type
REMARK                         _______ _______ _______ _____ _____    ______ ____
ROOT
ATOM      1  N   UNL     1      35.080 -16.886 -21.627  0.00  0.00    +0.388 N 
ATOM      2  C   UNL     1      33.106 -14.902 -22.470  0.00  0.00    +0.076 C 
ATOM      3  C   UNL     1      33.829 -14.788 -21.112  0.00  0.00    -0.002 C 
ATOM      4  C   UNL     1      33.936 -15.697 -23.482  0.00  0.00    -0.003 C 
ATOM      5  C   UNL     1      34.237 -16.197 -20.637  0.00  0.00    -0.076 C 
ATOM      6  C   UNL     1      34.370 -17.046 -22.905  0.00  0.00    -0.076 C 
ATOM      7  C   UNL     1      35.047 -13.852 -21.139  0.00  0.00    -0.000 C 
ATOM      8  H   UNL     1      35.905 -16.311 -21.794  0.00  0.00    -0.080 HD
ENDROOT
BRANCH   2  10
ATOM      9  O   UNL     1      31.638 -11.540 -22.659  0.00  0.00    -0.272 OA
ATOM     10  N   UNL     1      32.715 -13.624 -23.009  0.00  0.00    -0.256 N 
ATOM     11  C   UNL     1      32.001 -12.650 -22.258  0.00  0.00    +0.260 C 
BRANCH  10  13
ATOM     12  F   UNL     1      34.306 -11.410 -23.693  0.00  0.00    -0.203 F 
ATOM     13  C   UNL     1      33.069 -13.314 -24.390  0.00  0.00    +0.081 C 
ATOM     14  C   UNL     1      33.861 -12.203 -24.679  0.00  0.00    +0.154 C 
ATOM     15  C   UNL     1      32.613 -14.132 -25.425  0.00  0.00    +0.017 C 
ATOM     16  C   UNL     1      34.200 -11.910 -26.000  0.00  0.00    +0.031 C 
ATOM     17  C   UNL     1      32.950 -13.839 -26.746  0.00  0.00    +0.001 C 
ATOM     18  C   UNL     1      33.744 -12.729 -27.034  0.00  0.00    +0.002 C 
ENDBRANCH  10  13
BRANCH  11  19
ATOM     19  C   UNL     1      31.708 -13.000 -20.810  0.00  0.00    +0.228 C 
BRANCH  19  20
ATOM     20  O   UNL     1      32.169 -11.964 -19.968  0.00  0.00    -0.342 OA
ATOM     21  C   UNL     1      31.108 -11.113 -19.545  0.00  0.00    +0.175 C 
ENDBRANCH  19  20
ENDBRANCH  11  19
ENDBRANCH   2  10
BRANCH   1  22
ATOM     22  C   UNL     1      35.511 -18.187 -21.117  0.00  0.00    -0.050 C 
BRANCH  22  23
ATOM     23  C   UNL     1      34.695 -19.302 -21.754  0.00  0.00    +0.111 C 
BRANCH  23  25
ATOM     24  O   UNL     1      35.980 -21.461 -20.138  0.00  0.00    -0.243 OA
ATOM     25  N   UNL     1      34.120 -20.162 -20.755  0.00  0.00    -0.184 N 
ATOM     26  N   UNL     1      32.813 -20.138 -20.352  0.00  0.00    -0.042 NA
ATOM     27  N   UNL     1      33.820 -21.672 -19.234  0.00  0.00    -0.182 N 
ATOM     28  N   UNL     1      32.638 -21.024 -19.460  0.00  0.00    -0.042 NA
ATOM     29  C   UNL     1      34.805 -21.143 -20.055  0.00  0.00    +0.365 A 
BRANCH  27  30
ATOM     30  C   UNL     1      33.931 -22.734 -18.270  0.00  0.00    +0.134 C 
ATOM     31  C   UNL     1      32.670 -22.866 -17.443  0.00  0.00    +0.029 C 
ENDBRANCH  27  30
ENDBRANCH  23  25
ENDBRANCH  22  23
ENDBRANCH   1  22
TORSDOF 8
ENDMDL
MODEL 5
REMARK VINA RESULT:      -9.3      1.448      2.255
REMARK  Name = 60672
REMARK  8 active torsions:
REMARK  status: ('A' for Active; 'I' for Inactive)
REMARK    1  A    between atoms: N_1  and  C_22
REMARK    2  A    between atoms: C_2  and  N_10
REMARK    3  A    between atoms: N_10  and  C_13
REMARK    4  A    between atoms: C_11  and  C_19
REMARK    5  A    between atoms: C_19  and  O_20
REMARK    6  A    between atoms: C_22  and  C_23
REMARK    7  A    between atoms: C_23  and  N_25
REMARK    8  A    between atoms: N_27  and  C_30
REMARK                            x       y       z     vdW  Elec       q    Type
REMARK                         _______ _______ _______ _____ _____    ______ ____
ROOT
ATOM      1  N   UNL     1      32.742 -13.456 -20.792  0.00  0.00    +0.388 N 
ATOM      2  C   UNL     1      33.164 -15.812 -22.469  0.00  0.00    +0.076 C 
ATOM      3  C   UNL     1      33.162 -14.391 -23.068  0.00  0.00    -0.002 C 
ATOM      4  C   UNL     1      33.550 -15.795 -20.988  0.00  0.00    -0.003 C 
ATOM      5  C   UNL     1      32.285 -13.474 -22.191  0.00  0.00    -0.076 C 
ATOM      6  C   UNL     1      32.691 -14.802 -20.202  0.00  0.00    -0.076 C 
ATOM      7  C   UNL     1      34.566 -13.793 -23.243  0.00  0.00    -0.000 C 
ATOM      8  H   UNL     1      33.712 -13.143 -20.780  0.00  0.00    -0.080 HD
ENDROOT
BRANCH   2  10
ATOM      9  O   UNL     1      34.709 -17.533 -25.323  0.00  0.00    -0.272 OA
ATOM     10  N   UNL     1      33.987 -16.734 -23.210  0.00  0.00    -0.256 N 
ATOM     11  C   UNL     1      34.028 -16.771 -24.631  0.00  0.00    +0.260 C 
BRANCH  10  13
ATOM     12  F   UNL     1      32.898 -18.815 -21.665  0.00  0.00    -0.203 F 
ATOM     13  C   UNL     1      34.821 -17.674 -22.467  0.00  0.00    +0.081 C 
ATOM     14  C   UNL     1      34.232 -18.690 -21.714  0.00  0.00    +0.154 C 
ATOM     15  C   UNL     1      36.210 -17.556 -22.509  0.00  0.00    +0.017 C 
ATOM     16  C   UNL     1      35.032 -19.588 -21.006  0.00  0.00    +0.031 C 
ATOM     17  C   UNL     1      37.010 -18.452 -21.802  0.00  0.00    +0.001 C 
ATOM     18  C   UNL     1      36.421 -19.469 -21.050  0.00  0.00    +0.002 C 
ENDBRANCH  10  13
BRANCH  11  19
ATOM     19  C   UNL     1      33.186 -15.735 -25.354  0.00  0.00    +0.228 C 
BRANCH  19  20
ATOM     20  O   UNL     1      33.849 -15.319 -26.528  0.00  0.00    -0.342 OA
ATOM     21  C   UNL     1      33.424 -14.025 -26.948  0.00  0.00    +0.175 C 
ENDBRANCH  19  20
ENDBRANCH  11  19
ENDBRANCH   2  10
BRANCH   1  22
ATOM     22  C   UNL     1      31.939 -12.523 -20.002  0.00  0.00    -0.050 C 
BRANCH  22  23
ATOM     23  C   UNL     1      31.194 -11.562 -20.915  0.00  0.00    +0.111 C 
BRANCH  23  25
ATOM     24  O   UNL     1      31.588  -9.428 -22.969  0.00  0.00    -0.243 OA
ATOM     25  N   UNL     1      31.671 -10.215 -20.754  0.00  0.00    -0.184 N 
ATOM     26  N   UNL     1      32.048  -9.649 -19.568  0.00  0.00    -0.042 NA
ATOM     27  N   UNL     1      32.300  -8.175 -21.111  0.00  0.00    -0.182 N 
ATOM     28  N   UNL     1      32.417  -8.452 -19.778  0.00  0.00    -0.042 NA
ATOM     29  C   UNL     1      31.821  -9.292 -21.779  0.00  0.00    +0.365 A 
BRANCH  27  30
ATOM     30  C   UNL     1      32.647  -6.888 -21.652  0.00  0.00    +0.134 C 
ATOM     31  C   UNL     1      31.479  -5.928 -21.595  0.00  0.00    +0.029 C 
ENDBRANCH  27  30
ENDBRANCH  23  25
ENDBRANCH  22  23
ENDBRANCH   1  22
TORSDOF 8
ENDMDL
MODEL 6
REMARK VINA RESULT:      -9.2      9.835     12.104
REMARK  Name = 60672
REMARK  8 active torsions:
REMARK  status: ('A' for Active; 'I' for Inactive)
REMARK    1  A    between atoms: N_1  and  C_22
REMARK    2  A    between atoms: C_2  and  N_10
REMARK    3  A    between atoms: N_10  and  C_13
REMARK    4  A    between atoms: C_11  and  C_19
REMARK    5  A    between atoms: C_19  and  O_20
REMARK    6  A    between atoms: C_22  and  C_23
REMARK    7  A    between atoms: C_23  and  N_25
REMARK    8  A    between atoms: N_27  and  C_30
REMARK                            x       y       z     vdW  Elec       q    Type
REMARK                         _______ _______ _______ _____ _____    ______ ____
ROOT
ATOM      1  N   UNL     1      31.967 -23.590 -14.743  0.00  0.00    +0.388 N 
ATOM      2  C   UNL     1      34.801 -22.944 -15.045  0.00  0.00    +0.076 C 
ATOM      3  C   UNL     1      34.182 -23.211 -13.657  0.00  0.00    -0.002 C 
ATOM      4  C   UNL     1      34.008 -23.639 -16.155  0.00  0.00    -0.003 C 
ATOM      5  C   UNL     1      32.684 -22.848 -13.694  0.00  0.00    -0.076 C 
ATOM      6  C   UNL     1      32.520 -23.293 -16.073  0.00  0.00    -0.076 C 
ATOM      7  C   UNL     1      34.378 -24.652 -13.161  0.00  0.00    -0.000 C 
ATOM      8  H   UNL     1      32.090 -24.586 -14.565  0.00  0.00    -0.080 HD
ENDROOT
BRANCH   2  10
ATOM      9  O   UNL     1      38.299 -22.965 -16.168  0.00  0.00    -0.272 OA
ATOM     10  N   UNL     1      36.200 -23.287 -15.113  0.00  0.00    -0.256 N 
ATOM     11  C   UNL     1      37.095 -22.715 -16.059  0.00  0.00    +0.260 C 
BRANCH  10  13
ATOM     12  F   UNL     1      36.132 -26.052 -15.618  0.00  0.00    -0.203 F 
ATOM     13  C   UNL     1      36.722 -24.267 -14.166  0.00  0.00    +0.081 C 
ATOM     14  C   UNL     1      36.665 -25.629 -14.462  0.00  0.00    +0.154 C 
ATOM     15  C   UNL     1      37.281 -23.840 -12.960  0.00  0.00    +0.017 C 
ATOM     16  C   UNL     1      37.168 -26.563 -13.556  0.00  0.00    +0.031 C 
ATOM     17  C   UNL     1      37.782 -24.773 -12.054  0.00  0.00    +0.001 C 
ATOM     18  C   UNL     1      37.726 -26.135 -12.351  0.00  0.00    +0.002 C 
ENDBRANCH  10  13
BRANCH  11  19
ATOM     19  C   UNL     1      36.512 -21.660 -16.982  0.00  0.00    +0.228 C 
BRANCH  19  20
ATOM     20  O   UNL     1      36.646 -22.077 -18.324  0.00  0.00    -0.342 OA
ATOM     21  C   UNL     1      35.513 -21.714 -19.108  0.00  0.00    +0.175 C 
ENDBRANCH  19  20
ENDBRANCH  11  19
ENDBRANCH   2  10
BRANCH   1  22
ATOM     22  C   UNL     1      30.538 -23.280 -14.705  0.00  0.00    -0.050 C 
BRANCH  22  23
ATOM     23  C   UNL     1      29.750 -24.325 -15.479  0.00  0.00    +0.111 C 
BRANCH  23  25
ATOM     24  O   UNL     1      28.269 -21.766 -15.054  0.00  0.00    -0.243 OA
ATOM     25  N   UNL     1      28.729 -23.715 -16.287  0.00  0.00    -0.184 N 
ATOM     26  N   UNL     1      28.232 -24.230 -17.452  0.00  0.00    -0.042 NA
ATOM     27  N   UNL     1      27.218 -22.376 -17.066  0.00  0.00    -0.182 N 
ATOM     28  N   UNL     1      27.346 -23.445 -17.909  0.00  0.00    -0.042 NA
ATOM     29  C   UNL     1      28.096 -22.514 -16.002  0.00  0.00    +0.365 A 
BRANCH  27  30
ATOM     30  C   UNL     1      26.282 -21.314 -17.325  0.00  0.00    +0.134 C 
ATOM     31  C   UNL     1      25.817 -21.324 -18.766  0.00  0.00    +0.029 C 
ENDBRANCH  27  30
ENDBRANCH  23  25
ENDBRANCH  22  23
ENDBRANCH   1  22
TORSDOF 8
ENDMDL
MODEL 7
REMARK VINA RESULT:      -8.9      3.119      9.295
REMARK  Name = 60672
REMARK  8 active torsions:
REMARK  status: ('A' for Active; 'I' for Inactive)
REMARK    1  A    between atoms: N_1  and  C_22
REMARK    2  A    between atoms: C_2  and  N_10
REMARK    3  A    between atoms: N_10  and  C_13
REMARK    4  A    between atoms: C_11  and  C_19
REMARK    5  A    between atoms: C_19  and  O_20
REMARK    6  A    between atoms: C_22  and  C_23
REMARK    7  A    between atoms: C_23  and  N_25
REMARK    8  A    between atoms: N_27  and  C_30
REMARK                            x       y       z     vdW  Elec       q    Type
REMARK                         _______ _______ _______ _____ _____    ______ ____
ROOT
ATOM      1  N   UNL     1      32.570 -12.670 -22.077  0.00  0.00    +0.388 N 
ATOM      2  C   UNL     1      32.650  -9.995 -23.250  0.00  0.00    +0.076 C 
ATOM      3  C   UNL     1      31.808 -10.295 -21.992  0.00  0.00    -0.002 C 
ATOM      4  C   UNL     1      33.820 -10.972 -23.387  0.00  0.00    -0.003 C 
ATOM      5  C   UNL     1      31.400 -11.782 -22.001  0.00  0.00    -0.076 C 
ATOM      6  C   UNL     1      33.342 -12.424 -23.304  0.00  0.00    -0.076 C 
ATOM      7  C   UNL     1      32.515  -9.935 -20.676  0.00  0.00    -0.000 C 
ATOM      8  H   UNL     1      33.172 -12.469 -21.279  0.00  0.00    -0.080 HD
ENDROOT
BRANCH   2  10
ATOM      9  O   UNL     1      34.813  -7.105 -23.931  0.00  0.00    -0.272 OA
ATOM     10  N   UNL     1      33.105  -8.628 -23.310  0.00  0.00    -0.256 N 
ATOM     11  C   UNL     1      34.366  -8.253 -23.850  0.00  0.00    +0.260 C 
BRANCH  10  13
ATOM     12  F   UNL     1      30.878  -7.686 -24.743  0.00  0.00    -0.203 F 
ATOM     13  C   UNL     1      32.230  -7.581 -22.793  0.00  0.00    +0.081 C 
ATOM     14  C   UNL     1      31.137  -7.146 -23.543  0.00  0.00    +0.154 C 
ATOM     15  C   UNL     1      32.488  -7.012 -21.545  0.00  0.00    +0.017 C 
ATOM     16  C   UNL     1      30.302  -6.146 -23.045  0.00  0.00    +0.031 C 
ATOM     17  C   UNL     1      31.654  -6.012 -21.047  0.00  0.00    +0.001 C 
ATOM     18  C   UNL     1      30.560  -5.579 -21.797  0.00  0.00    +0.002 C 
ENDBRANCH  10  13
BRANCH  11  19
ATOM     19  C   UNL     1      35.211  -9.375 -24.426  0.00  0.00    +0.228 C 
BRANCH  19  20
ATOM     20  O   UNL     1      35.286  -9.241 -25.829  0.00  0.00    -0.342 OA
ATOM     21  C   UNL     1      35.688 -10.455 -26.457  0.00  0.00    +0.175 C 
ENDBRANCH  19  20
ENDBRANCH  11  19
ENDBRANCH   2  10
BRANCH   1  22
ATOM     22  C   UNL     1      32.156 -14.071 -22.009  0.00  0.00    -0.050 C 
BRANCH  22  23
ATOM     23  C   UNL     1      33.056 -14.932 -22.882  0.00  0.00    +0.111 C 
BRANCH  23  25
ATOM     24  O   UNL     1      34.468 -17.462 -23.612  0.00  0.00    -0.243 OA
ATOM     25  N   UNL     1      33.917 -15.762 -22.083  0.00  0.00    -0.184 N 
ATOM     26  N   UNL     1      34.255 -15.523 -20.780  0.00  0.00    -0.042 NA
ATOM     27  N   UNL     1      35.233 -17.335 -21.393  0.00  0.00    -0.182 N 
ATOM     28  N   UNL     1      35.027 -16.446 -20.375  0.00  0.00    -0.042 NA
ATOM     29  C   UNL     1      34.530 -16.928 -22.517  0.00  0.00    +0.365 A 
BRANCH  27  30
ATOM     30  C   UNL     1      36.070 -18.494 -21.230  0.00  0.00    +0.134 C 
ATOM     31  C   UNL     1      35.260 -19.715 -20.849  0.00  0.00    +0.029 C 
ENDBRANCH  27  30
ENDBRANCH  23  25
ENDBRANCH  22  23
ENDBRANCH   1  22
TORSDOF 8
ENDMDL
MODEL 8
REMARK VINA RESULT:      -8.9      3.080      8.938
REMARK  Name = 60672
REMARK  8 active torsions:
REMARK  status: ('A' for Active; 'I' for Inactive)
REMARK    1  A    between atoms: N_1  and  C_22
REMARK    2  A    between atoms: C_2  and  N_10
REMARK    3  A    between atoms: N_10  and  C_13
REMARK    4  A    between atoms: C_11  and  C_19
REMARK    5  A    between atoms: C_19  and  O_20
REMARK    6  A    between atoms: C_22  and  C_23
REMARK    7  A    between atoms: C_23  and  N_25
REMARK    8  A    between atoms: N_27  and  C_30
REMARK                            x       y       z     vdW  Elec       q    Type
REMARK                         _______ _______ _______ _____ _____    ______ ____
ROOT
ATOM      1  N   UNL     1      33.330 -15.699 -21.880  0.00  0.00    +0.388 N 
ATOM      2  C   UNL     1      33.672 -12.927 -22.740  0.00  0.00    +0.076 C 
ATOM      3  C   UNL     1      34.120 -14.105 -23.630  0.00  0.00    -0.002 C 
ATOM      4  C   UNL     1      32.552 -13.344 -21.782  0.00  0.00    -0.003 C 
ATOM      5  C   UNL     1      34.464 -15.312 -22.734  0.00  0.00    -0.076 C 
ATOM      6  C   UNL     1      32.937 -14.596 -20.990  0.00  0.00    -0.076 C 
ATOM      7  C   UNL     1      33.089 -14.498 -24.698  0.00  0.00    -0.000 C 
ATOM      8  H   UNL     1      32.538 -15.915 -22.484  0.00  0.00    -0.080 HD
ENDROOT
BRANCH   2  10
ATOM      9  O   UNL     1      31.897  -9.856 -23.697  0.00  0.00    -0.272 OA
ATOM     10  N   UNL     1      33.298 -11.759 -23.498  0.00  0.00    -0.256 N 
ATOM     11  C   UNL     1      32.263 -10.870 -23.096  0.00  0.00    +0.260 C 
BRANCH  10  13
ATOM     12  F   UNL     1      35.280  -9.772 -23.661  0.00  0.00    -0.203 F 
ATOM     13  C   UNL     1      34.017 -11.474 -24.735  0.00  0.00    +0.081 C 
ATOM     14  C   UNL     1      34.993 -10.477 -24.765  0.00  0.00    +0.154 C 
ATOM     15  C   UNL     1      33.729 -12.200 -25.891  0.00  0.00    +0.017 C 
ATOM     16  C   UNL     1      35.680 -10.208 -25.950  0.00  0.00    +0.031 C 
ATOM     17  C   UNL     1      34.414 -11.932 -27.075  0.00  0.00    +0.001 C 
ATOM     18  C   UNL     1      35.391 -10.935 -27.104  0.00  0.00    +0.002 C 
ENDBRANCH  10  13
BRANCH  11  19
ATOM     19  C   UNL     1      31.587 -11.182 -21.773  0.00  0.00    +0.228 C 
BRANCH  19  20
ATOM     20  O   UNL     1      31.720 -10.080 -20.900  0.00  0.00    -0.342 OA
ATOM     21  C   UNL     1      31.403 -10.427 -19.555  0.00  0.00    +0.175 C 
ENDBRANCH  19  20
ENDBRANCH  11  19
ENDBRANCH   2  10
BRANCH   1  22
ATOM     22  C   UNL     1      33.660 -16.890 -21.097  0.00  0.00    -0.050 C 
BRANCH  22  23
ATOM     23  C   UNL     1      34.412 -17.896 -21.956  0.00  0.00    +0.111 C 
BRANCH  23  25
ATOM     24  O   UNL     1      33.264 -20.389 -20.775  0.00  0.00    -0.243 OA
ATOM     25  N   UNL     1      35.047 -18.900 -21.147  0.00  0.00    -0.184 N 
ATOM     26  N   UNL     1      36.358 -18.885 -20.756  0.00  0.00    -0.042 NA
ATOM     27  N   UNL     1      35.449 -20.656 -19.947  0.00  0.00    -0.182 N 
ATOM     28  N   UNL     1      36.593 -19.915 -20.052  0.00  0.00    -0.042 NA
ATOM     29  C   UNL     1      34.424 -20.031 -20.641  0.00  0.00    +0.365 A 
BRANCH  27  30
ATOM     30  C   UNL     1      35.408 -21.886 -19.203  0.00  0.00    +0.134 C 
ATOM     31  C   UNL     1      36.321 -21.836 -17.996  0.00  0.00    +0.029 C 
ENDBRANCH  27  30
ENDBRANCH  23  25
ENDBRANCH  22  23
ENDBRANCH   1  22
TORSDOF 8
ENDMDL
MODEL 9
REMARK VINA RESULT:      -8.7      6.693     10.757
REMARK  Name = 60672
REMARK  8 active torsions:
REMARK  status: ('A' for Active; 'I' for Inactive)
REMARK    1  A    between atoms: N_1  and  C_22
REMARK    2  A    between atoms: C_2  and  N_10
REMARK    3  A    between atoms: N_10  and  C_13
REMARK    4  A    between atoms: C_11  and  C_19
REMARK    5  A    between atoms: C_19  and  O_20
REMARK    6  A    between atoms: C_22  and  C_23
REMARK    7  A    between atoms: C_23  and  N_25
REMARK    8  A    between atoms: N_27  and  C_30
REMARK                            x       y       z     vdW  Elec       q    Type
REMARK                         _______ _______ _______ _____ _____    ______ ____
ROOT
ATOM      1  N   UNL     1      35.380 -22.574 -17.594  0.00  0.00    +0.388 N 
ATOM      2  C   UNL     1      33.131 -22.854 -15.749  0.00  0.00    +0.076 C 
ATOM      3  C   UNL     1      32.978 -23.158 -17.254  0.00  0.00    -0.002 C 
ATOM      4  C   UNL     1      34.581 -23.027 -15.288  0.00  0.00    -0.003 C 
ATOM      5  C   UNL     1      34.003 -22.321 -18.045  0.00  0.00    -0.076 C 
ATOM      6  C   UNL     1      35.543 -22.231 -16.173  0.00  0.00    -0.076 C 
ATOM      7  C   UNL     1      33.113 -24.648 -17.600  0.00  0.00    -0.000 C 
ATOM      8  H   UNL     1      35.571 -23.570 -17.702  0.00  0.00    -0.080 HD
ENDROOT
BRANCH   2  10
ATOM      9  O   UNL     1      31.950 -25.118 -13.109  0.00  0.00    -0.272 OA
ATOM     10  N   UNL     1      32.230 -23.620 -14.925  0.00  0.00    -0.256 N 
ATOM     11  C   UNL     1      32.668 -24.441 -13.849  0.00  0.00    +0.260 C 
BRANCH  10  13
ATOM     12  F   UNL     1      30.745 -25.862 -15.742  0.00  0.00    -0.203 F 
ATOM     13  C   UNL     1      30.800 -23.548 -15.207  0.00  0.00    +0.081 C 
ATOM     14  C   UNL     1      30.107 -24.690 -15.611  0.00  0.00    +0.154 C 
ATOM     15  C   UNL     1      30.124 -22.335 -15.073  0.00  0.00    +0.017 C 
ATOM     16  C   UNL     1      28.739 -24.619 -15.877  0.00  0.00    +0.031 C 
ATOM     17  C   UNL     1      28.757 -22.264 -15.340  0.00  0.00    +0.001 C 
ATOM     18  C   UNL     1      28.064 -23.406 -15.742  0.00  0.00    +0.002 C 
ENDBRANCH  10  13
BRANCH  11  19
ATOM     19  C   UNL     1      34.159 -24.434 -13.563  0.00  0.00    +0.228 C 
BRANCH  19  20
ATOM     20  O   UNL     1      34.375 -24.511 -12.171  0.00  0.00    -0.342 OA
ATOM     21  C   UNL     1      35.763 -24.560 -11.851  0.00  0.00    +0.175 C 
ENDBRANCH  19  20
ENDBRANCH  11  19
ENDBRANCH   2  10
BRANCH   1  22
ATOM     22  C   UNL     1      36.334 -21.824 -18.411  0.00  0.00    -0.050 C 
BRANCH  22  23
ATOM     23  C   UNL     1      35.862 -21.763 -19.855  0.00  0.00    +0.111 C 
BRANCH  23  25
ATOM     24  O   UNL     1      33.457 -20.315 -20.877  0.00  0.00    -0.243 OA
ATOM     25  N   UNL     1      35.737 -20.404 -20.306  0.00  0.00    -0.184 N 
ATOM     26  N   UNL     1      36.754 -19.490 -20.347  0.00  0.00    -0.042 NA
ATOM     27  N   UNL     1      34.973 -18.528 -21.069  0.00  0.00    -0.182 N 
ATOM     28  N   UNL     1      36.305 -18.390 -20.795  0.00  0.00    -0.042 NA
ATOM     29  C   UNL     1      34.567 -19.819 -20.767  0.00  0.00    +0.365 A 
BRANCH  27  30
ATOM     30  C   UNL     1      34.190 -17.441 -21.594  0.00  0.00    +0.134 C 
ATOM     31  C   UNL     1      34.714 -16.977 -22.936  0.00  0.00    +0.029 C 
ENDBRANCH  27  30
ENDBRANCH  23  25
ENDBRANCH  22  23
ENDBRANCH   1  22
TORSDOF 8
ENDMDL
