MODEL 1
REMARK VINA RESULT:      -9.2      0.000      0.000
REMARK  Name = 68861
REMARK  3 active torsions:
REMARK  status: ('A' for Active; 'I' for Inactive)
REMARK    1  A    between atoms: C_4  and  O_20
REMARK    2  A    between atoms: C_4  and  C_22
REMARK    3  A    between atoms: C_22  and  C_24
REMARK                            x       y       z     vdW  Elec       q    Type
REMARK                         _______ _______ _______ _____ _____    ______ ____
ROOT
ATOM      1  O   UNL     1      35.995 -23.121 -14.433  0.00  0.00    -0.291 OA
ATOM      2  C   UNL     1      35.112 -18.908 -21.433  0.00  0.00    +0.024 C 
ATOM      3  C   UNL     1      34.041 -19.466 -20.472  0.00  0.00    +0.006 C 
ATOM      4  C   UNL     1      34.564 -17.467 -21.671  0.00  0.00    +0.102 C 
ATOM      5  C   UNL     1      34.242 -20.948 -20.120  0.00  0.00    +0.018 C 
ATOM      6  C   UNL     1      32.726 -19.050 -21.126  0.00  0.00    +0.003 C 
ATOM      7  C   UNL     1      36.471 -19.029 -20.721  0.00  0.00    +0.007 C 
ATOM      8  C   UNL     1      33.030 -17.685 -21.773  0.00  0.00    +0.028 C 
ATOM      9  C   UNL     1      35.643 -21.134 -19.504  0.00  0.00    -0.049 C 
ATOM     10  C   UNL     1      36.770 -20.481 -20.299  0.00  0.00    +0.022 C 
ATOM     11  C   UNL     1      35.184 -19.666 -22.791  0.00  0.00    +0.002 C 
ATOM     12  C   UNL     1      33.100 -21.437 -19.212  0.00  0.00    +0.009 C 
ATOM     13  C   UNL     1      35.833 -21.851 -18.368  0.00  0.00    -0.033 C 
ATOM     14  C   UNL     1      33.472 -22.744 -18.531  0.00  0.00    +0.026 C 
ATOM     15  C   UNL     1      34.714 -22.537 -17.705  0.00  0.00    -0.024 C 
ATOM     16  C   UNL     1      37.165 -22.097 -17.693  0.00  0.00    +0.034 C 
ATOM     17  C   UNL     1      34.767 -22.970 -16.435  0.00  0.00    +0.033 C 
ATOM     18  C   UNL     1      37.081 -21.895 -16.185  0.00  0.00    +0.074 C 
ATOM     19  C   UNL     1      35.963 -22.717 -15.593  0.00  0.00    +0.173 C 
ENDROOT
BRANCH   4  20
ATOM     20  O   UNL     1      35.037 -16.916 -22.899  0.00  0.00    -0.386 OA
ATOM     21  H   UNL     1      35.641 -16.181 -22.711  0.00  0.00    +0.210 HD
ENDBRANCH   4  20
BRANCH   4  22
ATOM     22  C   UNL     1      34.887 -16.442 -20.577  0.00  0.00    +0.132 C 
BRANCH  22  24
ATOM     23  N   UNL     1      33.347 -14.330 -20.798  0.00  0.00    -0.196 NA
ATOM     24  C   UNL     1      34.033 -15.262 -20.705  0.00  0.00    +0.076 C 
ENDBRANCH  22  24
ENDBRANCH   4  22
TORSDOF 3
ENDMDL
MODEL 2
REMARK VINA RESULT:      -7.8      6.330     10.125
REMARK  Name = 68861
REMARK  3 active torsions:
REMARK  status: ('A' for Active; 'I' for Inactive)
REMARK    1  A    between atoms: C_4  and  O_20
REMARK    2  A    between atoms: C_4  and  C_22
REMARK    3  A    between atoms: C_22  and  C_24
REMARK                            x       y       z     vdW  Elec       q    Type
REMARK                         _______ _______ _______ _____ _____    ______ ____
ROOT
ATOM      1  O   UNL     1      35.013 -16.443 -21.224  0.00  0.00    -0.291 OA
ATOM      2  C   UNL     1      32.135  -8.936 -22.924  0.00  0.00    +0.024 C 
ATOM      3  C   UNL     1      32.431  -9.597 -21.561  0.00  0.00    +0.006 C 
ATOM      4  C   UNL     1      32.799  -7.539 -22.718  0.00  0.00    +0.102 C 
ATOM      5  C   UNL     1      31.798 -10.987 -21.399  0.00  0.00    +0.018 C 
ATOM      6  C   UNL     1      32.063  -8.513 -20.552  0.00  0.00    +0.003 C 
ATOM      7  C   UNL     1      32.737  -9.843 -24.011  0.00  0.00    +0.007 C 
ATOM      8  C   UNL     1      32.442  -7.191 -21.248  0.00  0.00    +0.028 C 
ATOM      9  C   UNL     1      32.289 -11.901 -22.540  0.00  0.00    -0.049 C 
ATOM     10  C   UNL     1      32.185 -11.280 -23.930  0.00  0.00    +0.022 C 
ATOM     11  C   UNL     1      30.615  -8.750 -23.205  0.00  0.00    +0.002 C 
ATOM     12  C   UNL     1      32.091 -11.544 -19.995  0.00  0.00    +0.009 C 
ATOM     13  C   UNL     1      32.740 -13.158 -22.302  0.00  0.00    -0.033 C 
ATOM     14  C   UNL     1      31.838 -13.042 -19.943  0.00  0.00    +0.026 C 
ATOM     15  C   UNL     1      32.722 -13.730 -20.949  0.00  0.00    -0.024 C 
ATOM     16  C   UNL     1      33.233 -14.130 -23.353  0.00  0.00    +0.034 C 
ATOM     17  C   UNL     1      33.441 -14.808 -20.597  0.00  0.00    +0.033 C 
ATOM     18  C   UNL     1      34.521 -14.822 -22.921  0.00  0.00    +0.074 C 
ATOM     19  C   UNL     1      34.363 -15.457 -21.562  0.00  0.00    +0.173 C 
ENDROOT
BRANCH   4  20
ATOM     20  O   UNL     1      32.235  -6.553 -23.580  0.00  0.00    -0.386 OA
ATOM     21  H   UNL     1      32.947  -6.042 -23.995  0.00  0.00    +0.210 HD
ENDBRANCH   4  20
BRANCH   4  22
ATOM     22  C   UNL     1      34.318  -7.487 -22.926  0.00  0.00    +0.132 C 
BRANCH  22  24
ATOM     23  N   UNL     1      34.887  -6.488 -25.283  0.00  0.00    -0.196 NA
ATOM     24  C   UNL     1      34.641  -6.933 -24.239  0.00  0.00    +0.076 C 
ENDBRANCH  22  24
ENDBRANCH   4  22
TORSDOF 3
ENDMDL
MODEL 3
REMARK VINA RESULT:      -7.8      6.102      7.928
REMARK  Name = 68861
REMARK  3 active torsions:
REMARK  status: ('A' for Active; 'I' for Inactive)
REMARK    1  A    between atoms: C_4  and  O_20
REMARK    2  A    between atoms: C_4  and  C_22
REMARK    3  A    between atoms: C_22  and  C_24
REMARK                            x       y       z     vdW  Elec       q    Type
REMARK                         _______ _______ _______ _____ _____    ______ ____
ROOT
ATOM      1  O   UNL     1      39.425 -26.868 -14.599  0.00  0.00    -0.291 OA
ATOM      2  C   UNL     1      32.002 -23.343 -14.636  0.00  0.00    +0.024 C 
ATOM      3  C   UNL     1      33.078 -23.395 -15.741  0.00  0.00    +0.006 C 
ATOM      4  C   UNL     1      30.726 -23.705 -15.459  0.00  0.00    +0.102 C 
ATOM      5  C   UNL     1      34.474 -22.970 -15.261  0.00  0.00    +0.018 C 
ATOM      6  C   UNL     1      32.443 -22.620 -16.892  0.00  0.00    +0.003 C 
ATOM      7  C   UNL     1      32.428 -24.332 -13.537  0.00  0.00    +0.007 C 
ATOM      8  C   UNL     1      30.940 -22.944 -16.795  0.00  0.00    +0.028 C 
ATOM      9  C   UNL     1      34.895 -23.867 -14.079  0.00  0.00    -0.049 C 
ATOM     10  C   UNL     1      33.834 -24.014 -12.993  0.00  0.00    +0.022 C 
ATOM     11  C   UNL     1      31.828 -21.931 -14.005  0.00  0.00    +0.002 C 
ATOM     12  C   UNL     1      35.469 -22.991 -16.435  0.00  0.00    +0.009 C 
ATOM     13  C   UNL     1      36.125 -24.439 -14.022  0.00  0.00    -0.033 C 
ATOM     14  C   UNL     1      36.902 -22.974 -15.931  0.00  0.00    +0.026 C 
ATOM     15  C   UNL     1      37.135 -24.178 -15.057  0.00  0.00    -0.024 C 
ATOM     16  C   UNL     1      36.632 -25.325 -12.904  0.00  0.00    +0.034 C 
ATOM     17  C   UNL     1      38.219 -24.950 -15.236  0.00  0.00    +0.033 C 
ATOM     18  C   UNL     1      37.347 -26.560 -13.443  0.00  0.00    +0.074 C 
ATOM     19  C   UNL     1      38.427 -26.173 -14.422  0.00  0.00    +0.173 C 
ENDROOT
BRANCH   4  20
ATOM     20  O   UNL     1      29.538 -23.222 -14.834  0.00  0.00    -0.386 OA
ATOM     21  H   UNL     1      29.568 -23.423 -13.886  0.00  0.00    +0.210 HD
ENDBRANCH   4  20
BRANCH   4  22
ATOM     22  C   UNL     1      30.506 -25.200 -15.724  0.00  0.00    +0.132 C 
BRANCH  22  24
ATOM     23  N   UNL     1      28.417 -26.068 -14.398  0.00  0.00    -0.196 NA
ATOM     24  C   UNL     1      29.343 -25.690 -14.987  0.00  0.00    +0.076 C 
ENDBRANCH  22  24
ENDBRANCH   4  22
TORSDOF 3
ENDMDL
MODEL 4
REMARK VINA RESULT:      -7.7      3.279      7.613
REMARK  Name = 68861
REMARK  3 active torsions:
REMARK  status: ('A' for Active; 'I' for Inactive)
REMARK    1  A    between atoms: C_4  and  O_20
REMARK    2  A    between atoms: C_4  and  C_22
REMARK    3  A    between atoms: C_22  and  C_24
REMARK                            x       y       z     vdW  Elec       q    Type
REMARK                         _______ _______ _______ _____ _____    ______ ____
ROOT
ATOM      1  O   UNL     1      34.193 -18.383 -21.544  0.00  0.00    -0.291 OA
ATOM      2  C   UNL     1      34.125 -23.935 -15.486  0.00  0.00    +0.024 C 
ATOM      3  C   UNL     1      35.115 -22.783 -15.761  0.00  0.00    +0.006 C 
ATOM      4  C   UNL     1      33.879 -23.745 -13.957  0.00  0.00    +0.102 C 
ATOM      5  C   UNL     1      35.648 -22.761 -17.202  0.00  0.00    +0.018 C 
ATOM      6  C   UNL     1      36.120 -22.898 -14.619  0.00  0.00    +0.003 C 
ATOM      7  C   UNL     1      32.918 -23.733 -16.418  0.00  0.00    +0.007 C 
ATOM      8  C   UNL     1      35.286 -23.378 -13.415  0.00  0.00    +0.028 C 
ATOM      9  C   UNL     1      34.459 -22.672 -18.179  0.00  0.00    -0.049 C 
ATOM     10  C   UNL     1      33.341 -23.672 -17.899  0.00  0.00    +0.022 C 
ATOM     11  C   UNL     1      34.730 -25.346 -15.742  0.00  0.00    +0.002 C 
ATOM     12  C   UNL     1      36.671 -21.623 -17.371  0.00  0.00    +0.009 C 
ATOM     13  C   UNL     1      34.449 -21.791 -19.211  0.00  0.00    -0.033 C 
ATOM     14  C   UNL     1      36.906 -21.321 -18.842  0.00  0.00    +0.026 C 
ATOM     15  C   UNL     1      35.603 -20.922 -19.481  0.00  0.00    -0.024 C 
ATOM     16  C   UNL     1      33.336 -21.634 -20.225  0.00  0.00    +0.034 C 
ATOM     17  C   UNL     1      35.532 -19.825 -20.254  0.00  0.00    +0.033 C 
ATOM     18  C   UNL     1      33.002 -20.168 -20.475  0.00  0.00    +0.074 C 
ATOM     19  C   UNL     1      34.240 -19.388 -20.838  0.00  0.00    +0.173 C 
ENDROOT
BRANCH   4  20
ATOM     20  O   UNL     1      33.443 -24.953 -13.337  0.00  0.00    -0.386 OA
ATOM     21  H   UNL     1      33.314 -24.800 -12.388  0.00  0.00    +0.210 HD
ENDBRANCH   4  20
BRANCH   4  22
ATOM     22  C   UNL     1      32.860 -22.664 -13.576  0.00  0.00    +0.132 C 
BRANCH  22  24
ATOM     23  N   UNL     1      30.606 -23.759 -12.802  0.00  0.00    -0.196 NA
ATOM     24  C   UNL     1      31.601 -23.268 -13.145  0.00  0.00    +0.076 C 
ENDBRANCH  22  24
ENDBRANCH   4  22
TORSDOF 3
ENDMDL
MODEL 5
REMARK VINA RESULT:      -7.5      5.860      8.382
REMARK  Name = 68861
REMARK  3 active torsions:
REMARK  status: ('A' for Active; 'I' for Inactive)
REMARK    1  A    between atoms: C_4  and  O_20
REMARK    2  A    between atoms: C_4  and  C_22
REMARK    3  A    between atoms: C_22  and  C_24
REMARK                            x       y       z     vdW  Elec       q    Type
REMARK                         _______ _______ _______ _____ _____    ______ ____
ROOT
ATOM      1  O   UNL     1      28.386 -21.851 -15.384  0.00  0.00    -0.291 OA
ATOM      2  C   UNL     1      36.141 -24.373 -14.372  0.00  0.00    +0.024 C 
ATOM      3  C   UNL     1      35.559 -23.330 -15.350  0.00  0.00    +0.006 C 
ATOM      4  C   UNL     1      37.383 -23.599 -13.830  0.00  0.00    +0.102 C 
ATOM      5  C   UNL     1      34.351 -23.842 -16.149  0.00  0.00    +0.018 C 
ATOM      6  C   UNL     1      36.784 -22.844 -16.121  0.00  0.00    +0.003 C 
ATOM      7  C   UNL     1      35.035 -24.716 -13.360  0.00  0.00    +0.007 C 
ATOM      8  C   UNL     1      37.929 -22.879 -15.091  0.00  0.00    +0.028 C 
ATOM      9  C   UNL     1      33.257 -24.304 -15.167  0.00  0.00    -0.049 C 
ATOM     10  C   UNL     1      33.757 -25.223 -14.057  0.00  0.00    +0.022 C 
ATOM     11  C   UNL     1      36.612 -25.682 -15.070  0.00  0.00    +0.002 C 
ATOM     12  C   UNL     1      33.876 -22.765 -17.140  0.00  0.00    +0.009 C 
ATOM     13  C   UNL     1      31.960 -23.936 -15.321  0.00  0.00    -0.033 C 
ATOM     14  C   UNL     1      32.474 -23.071 -17.641  0.00  0.00    +0.026 C 
ATOM     15  C   UNL     1      31.529 -23.127 -16.470  0.00  0.00    -0.024 C 
ATOM     16  C   UNL     1      30.815 -24.344 -14.418  0.00  0.00    +0.034 C 
ATOM     17  C   UNL     1      30.361 -22.464 -16.505  0.00  0.00    +0.033 C 
ATOM     18  C   UNL     1      29.913 -23.162 -14.080  0.00  0.00    +0.074 C 
ATOM     19  C   UNL     1      29.451 -22.462 -15.334  0.00  0.00    +0.173 C 
ENDROOT
BRANCH   4  20
ATOM     20  O   UNL     1      38.382 -24.485 -13.330  0.00  0.00    -0.386 OA
ATOM     21  H   UNL     1      38.453 -25.255 -13.916  0.00  0.00    +0.210 HD
ENDBRANCH   4  20
BRANCH   4  22
ATOM     22  C   UNL     1      37.100 -22.584 -12.715  0.00  0.00    +0.132 C 
BRANCH  22  24
ATOM     23  N   UNL     1      36.783 -23.805 -10.415  0.00  0.00    -0.196 NA
ATOM     24  C   UNL     1      36.928 -23.261 -11.430  0.00  0.00    +0.076 C 
ENDBRANCH  22  24
ENDBRANCH   4  22
TORSDOF 3
ENDMDL
MODEL 6
REMARK VINA RESULT:      -7.1     10.052     15.682
REMARK  Name = 68861
REMARK  3 active torsions:
REMARK  status: ('A' for Active; 'I' for Inactive)
REMARK    1  A    between atoms: C_4  and  O_20
REMARK    2  A    between atoms: C_4  and  C_22
REMARK    3  A    between atoms: C_22  and  C_24
REMARK                            x       y       z     vdW  Elec       q    Type
REMARK                         _______ _______ _______ _____ _____    ______ ____
ROOT
ATOM      1  O   UNL     1      33.193  -3.301 -29.861  0.00  0.00    -0.291 OA
ATOM      2  C   UNL     1      33.252  -8.327 -23.360  0.00  0.00    +0.024 C 
ATOM      3  C   UNL     1      32.069  -7.618 -24.052  0.00  0.00    +0.006 C 
ATOM      4  C   UNL     1      32.675  -9.768 -23.204  0.00  0.00    +0.102 C 
ATOM      5  C   UNL     1      32.287  -6.112 -24.256  0.00  0.00    +0.018 C 
ATOM      6  C   UNL     1      30.859  -8.070 -23.239  0.00  0.00    +0.003 C 
ATOM      7  C   UNL     1      34.480  -8.162 -24.273  0.00  0.00    +0.007 C 
ATOM      8  C   UNL     1      31.192  -9.515 -22.818  0.00  0.00    +0.028 C 
ATOM      9  C   UNL     1      33.576  -5.895 -25.074  0.00  0.00    -0.049 C 
ATOM     10  C   UNL     1      34.781  -6.679 -24.565  0.00  0.00    +0.022 C 
ATOM     11  C   UNL     1      33.586  -7.748 -21.954  0.00  0.00    +0.002 C 
ATOM     12  C   UNL     1      31.039  -5.476 -24.892  0.00  0.00    +0.009 C 
ATOM     13  C   UNL     1      33.613  -5.048 -26.133  0.00  0.00    -0.033 C 
ATOM     14  C   UNL     1      31.363  -4.107 -25.468  0.00  0.00    +0.026 C 
ATOM     15  C   UNL     1      32.439  -4.249 -26.511  0.00  0.00    -0.024 C 
ATOM     16  C   UNL     1      34.828  -4.762 -26.991  0.00  0.00    +0.034 C 
ATOM     17  C   UNL     1      32.305  -3.662 -27.711  0.00  0.00    +0.033 C 
ATOM     18  C   UNL     1      34.485  -4.771 -28.476  0.00  0.00    +0.074 C 
ATOM     19  C   UNL     1      33.331  -3.845 -28.768  0.00  0.00    +0.173 C 
ENDROOT
BRANCH   4  20
ATOM     20  O   UNL     1      33.314 -10.483 -22.148  0.00  0.00    -0.386 OA
ATOM     21  H   UNL     1      32.648 -10.775 -21.507  0.00  0.00    +0.210 HD
ENDBRANCH   4  20
BRANCH   4  22
ATOM     22  C   UNL     1      32.758 -10.658 -24.450  0.00  0.00    +0.132 C 
BRANCH  22  24
ATOM     23  N   UNL     1      33.902 -12.949 -23.883  0.00  0.00    -0.196 NA
ATOM     24  C   UNL     1      33.402 -11.932 -24.135  0.00  0.00    +0.076 C 
ENDBRANCH  22  24
ENDBRANCH   4  22
TORSDOF 3
ENDMDL
MODEL 7
REMARK VINA RESULT:      -7.0      4.367      8.519
REMARK  Name = 68861
REMARK  3 active torsions:
REMARK  status: ('A' for Active; 'I' for Inactive)
REMARK    1  A    between atoms: C_4  and  O_20
REMARK    2  A    between atoms: C_4  and  C_22
REMARK    3  A    between atoms: C_22  and  C_24
REMARK                            x       y       z     vdW  Elec       q    Type
REMARK                         _______ _______ _______ _____ _____    ______ ____
ROOT
ATOM      1  O   UNL     1      35.191 -21.048 -21.646  0.00  0.00    -0.291 OA
ATOM      2  C   UNL     1      37.327 -24.264 -14.392  0.00  0.00    +0.024 C 
ATOM      3  C   UNL     1      36.171 -24.644 -15.341  0.00  0.00    +0.006 C 
ATOM      4  C   UNL     1      37.898 -25.675 -14.052  0.00  0.00    +0.102 C 
ATOM      5  C   UNL     1      35.318 -23.446 -15.783  0.00  0.00    +0.018 C 
ATOM      6  C   UNL     1      35.480 -25.795 -14.615  0.00  0.00    +0.003 C 
ATOM      7  C   UNL     1      38.251 -23.303 -15.160  0.00  0.00    +0.007 C 
ATOM      8  C   UNL     1      36.622 -26.547 -13.904  0.00  0.00    +0.028 C 
ATOM      9  C   UNL     1      36.228 -22.402 -16.461  0.00  0.00    -0.049 C 
ATOM     10  C   UNL     1      37.491 -22.065 -15.675  0.00  0.00    +0.022 C 
ATOM     11  C   UNL     1      36.852 -23.568 -13.083  0.00  0.00    +0.002 C 
ATOM     12  C   UNL     1      34.156 -23.921 -16.673  0.00  0.00    +0.009 C 
ATOM     13  C   UNL     1      35.892 -21.824 -17.643  0.00  0.00    -0.033 C 
ATOM     14  C   UNL     1      33.551 -22.757 -17.441  0.00  0.00    +0.026 C 
ATOM     15  C   UNL     1      34.613 -22.123 -18.300  0.00  0.00    -0.024 C 
ATOM     16  C   UNL     1      36.712 -20.787 -18.380  0.00  0.00    +0.034 C 
ATOM     17  C   UNL     1      34.371 -21.855 -19.594  0.00  0.00    +0.033 C 
ATOM     18  C   UNL     1      36.802 -21.094 -19.871  0.00  0.00    +0.074 C 
ATOM     19  C   UNL     1      35.429 -21.288 -20.465  0.00  0.00    +0.173 C 
ENDROOT
BRANCH   4  20
ATOM     20  O   UNL     1      38.607 -25.676 -12.814  0.00  0.00    -0.386 OA
ATOM     21  H   UNL     1      39.219 -24.924 -12.793  0.00  0.00    +0.210 HD
ENDBRANCH   4  20
BRANCH   4  22
ATOM     22  C   UNL     1      38.842 -26.282 -15.098  0.00  0.00    +0.132 C 
BRANCH  22  24
ATOM     23  N   UNL     1      41.265 -26.515 -14.122  0.00  0.00    -0.196 NA
ATOM     24  C   UNL     1      40.194 -26.415 -14.560  0.00  0.00    +0.076 C 
ENDBRANCH  22  24
ENDBRANCH   4  22
TORSDOF 3
ENDMDL
MODEL 8
REMARK VINA RESULT:      -6.8     12.947     16.670
REMARK  Name = 68861
REMARK  3 active torsions:
REMARK  status: ('A' for Active; 'I' for Inactive)
REMARK    1  A    between atoms: C_4  and  O_20
REMARK    2  A    between atoms: C_4  and  C_22
REMARK    3  A    between atoms: C_22  and  C_24
REMARK                            x       y       z     vdW  Elec       q    Type
REMARK                         _______ _______ _______ _____ _____    ______ ____
ROOT
ATOM      1  O   UNL     1      31.203  -9.928 -22.848  0.00  0.00    -0.291 OA
ATOM      2  C   UNL     1      33.072  -3.329 -27.374  0.00  0.00    +0.024 C 
ATOM      3  C   UNL     1      33.820  -4.671 -27.225  0.00  0.00    +0.006 C 
ATOM      4  C   UNL     1      33.099  -3.153 -28.924  0.00  0.00    +0.102 C 
ATOM      5  C   UNL     1      34.059  -5.084 -25.765  0.00  0.00    +0.018 C 
ATOM      6  C   UNL     1      35.031  -4.506 -28.139  0.00  0.00    +0.003 C 
ATOM      7  C   UNL     1      31.693  -3.499 -26.714  0.00  0.00    +0.007 C 
ATOM      8  C   UNL     1      34.519  -3.647 -29.311  0.00  0.00    +0.028 C 
ATOM      9  C   UNL     1      32.704  -5.157 -25.033  0.00  0.00    -0.049 C 
ATOM     10  C   UNL     1      31.812  -3.938 -25.241  0.00  0.00    +0.022 C 
ATOM     11  C   UNL     1      33.808  -2.132 -26.705  0.00  0.00    +0.002 C 
ATOM     12  C   UNL     1      34.862  -6.396 -25.710  0.00  0.00    +0.009 C 
ATOM     13  C   UNL     1      32.374  -6.215 -24.250  0.00  0.00    -0.033 C 
ATOM     14  C   UNL     1      34.766  -7.031 -24.332  0.00  0.00    +0.026 C 
ATOM     15  C   UNL     1      33.322  -7.313 -24.015  0.00  0.00    -0.024 C 
ATOM     16  C   UNL     1      31.077  -6.375 -23.487  0.00  0.00    +0.034 C 
ATOM     17  C   UNL     1      32.952  -8.514 -23.540  0.00  0.00    +0.033 C 
ATOM     18  C   UNL     1      30.499  -7.777 -23.641  0.00  0.00    +0.074 C 
ATOM     19  C   UNL     1      31.524  -8.824 -23.282  0.00  0.00    +0.173 C 
ENDROOT
BRANCH   4  20
ATOM     20  O   UNL     1      32.963  -1.786 -29.305  0.00  0.00    -0.386 OA
ATOM     21  H   UNL     1      33.420  -1.224 -28.660  0.00  0.00    +0.210 HD
ENDBRANCH   4  20
BRANCH   4  22
ATOM     22  C   UNL     1      32.031  -3.933 -29.701  0.00  0.00    +0.132 C 
BRANCH  22  24
ATOM     23  N   UNL     1      29.867  -2.483 -30.000  0.00  0.00    -0.196 NA
ATOM     24  C   UNL     1      30.825  -3.126 -29.875  0.00  0.00    +0.076 C 
ENDBRANCH  22  24
ENDBRANCH   4  22
TORSDOF 3
ENDMDL
MODEL 9
REMARK VINA RESULT:      -6.6      4.033      7.422
REMARK  Name = 68861
REMARK  3 active torsions:
REMARK  status: ('A' for Active; 'I' for Inactive)
REMARK    1  A    between atoms: C_4  and  O_20
REMARK    2  A    between atoms: C_4  and  C_22
REMARK    3  A    between atoms: C_22  and  C_24
REMARK                            x       y       z     vdW  Elec       q    Type
REMARK                         _______ _______ _______ _____ _____    ______ ____
ROOT
ATOM      1  O   UNL     1      37.090 -19.830 -19.851  0.00  0.00    -0.291 OA
ATOM      2  C   UNL     1      31.453 -23.835 -15.412  0.00  0.00    +0.024 C 
ATOM      3  C   UNL     1      32.695 -23.044 -14.952  0.00  0.00    +0.006 C 
ATOM      4  C   UNL     1      30.377 -23.282 -14.427  0.00  0.00    +0.102 C 
ATOM      5  C   UNL     1      33.987 -23.448 -15.678  0.00  0.00    +0.018 C 
ATOM      6  C   UNL     1      32.651 -23.167 -13.431  0.00  0.00    +0.003 C 
ATOM      7  C   UNL     1      31.250 -23.536 -16.908  0.00  0.00    +0.007 C 
ATOM      8  C   UNL     1      31.150 -23.170 -13.085  0.00  0.00    +0.028 C 
ATOM      9  C   UNL     1      33.788 -23.271 -17.197  0.00  0.00    -0.049 C 
ATOM     10  C   UNL     1      32.501 -23.885 -17.737  0.00  0.00    +0.022 C 
ATOM     11  C   UNL     1      31.590 -25.374 -15.218  0.00  0.00    +0.002 C 
ATOM     12  C   UNL     1      35.182 -22.658 -15.116  0.00  0.00    +0.009 C 
ATOM     13  C   UNL     1      34.713 -22.644 -17.968  0.00  0.00    -0.033 C 
ATOM     14  C   UNL     1      36.370 -22.730 -16.060  0.00  0.00    +0.026 C 
ATOM     15  C   UNL     1      35.978 -22.161 -17.398  0.00  0.00    -0.024 C 
ATOM     16  C   UNL     1      34.613 -22.429 -19.463  0.00  0.00    +0.034 C 
ATOM     17  C   UNL     1      36.765 -21.263 -18.013  0.00  0.00    +0.033 C 
ATOM     18  C   UNL     1      35.003 -21.009 -19.856  0.00  0.00    +0.074 C 
ATOM     19  C   UNL     1      36.358 -20.649 -19.301  0.00  0.00    +0.173 C 
ENDROOT
BRANCH   4  20
ATOM     20  O   UNL     1      29.291 -24.192 -14.263  0.00  0.00    -0.386 OA
ATOM     21  H   UNL     1      29.206 -24.428 -13.326  0.00  0.00    +0.210 HD
ENDBRANCH   4  20
BRANCH   4  22
ATOM     22  C   UNL     1      29.761 -21.929 -14.804  0.00  0.00    +0.132 C 
BRANCH  22  24
ATOM     23  N   UNL     1      27.370 -22.239 -15.835  0.00  0.00    -0.196 NA
ATOM     24  C   UNL     1      28.427 -22.108 -15.375  0.00  0.00    +0.076 C 
ENDBRANCH  22  24
ENDBRANCH   4  22
TORSDOF 3
ENDMDL
