MODEL 1
REMARK VINA RESULT:      -9.2      0.000      0.000
REMARK  Name = 6914629
REMARK  6 active torsions:
REMARK  status: ('A' for Active; 'I' for Inactive)
REMARK    1  A    between atoms: N_3  and  C_28
REMARK    2  A    between atoms: C_11  and  C_18
REMARK    3  A    between atoms: C_19  and  C_26
REMARK    4  A    between atoms: C_28  and  C_29
REMARK    5  A    between atoms: C_29  and  C_30
REMARK    6  A    between atoms: C_30  and  O_31
REMARK                            x       y       z     vdW  Elec       q    Type
REMARK                         _______ _______ _______ _____ _____    ______ ____
ROOT
ATOM      1  O   UNL     1      34.997 -17.142 -20.767  0.00  0.00    -0.473 OA
ATOM      2  O   UNL     1      35.711 -18.804 -23.857  0.00  0.00    -0.271 OA
ATOM      3  N   UNL     1      34.777 -16.699 -23.560  0.00  0.00    -0.253 N 
ATOM      4  C   UNL     1      34.902 -18.253 -21.648  0.00  0.00    +0.201 C 
ATOM      5  C   UNL     1      34.353 -15.716 -22.623  0.00  0.00    +0.088 C 
ATOM      6  C   UNL     1      35.206 -17.952 -23.124  0.00  0.00    +0.266 C 
ATOM      7  C   UNL     1      34.489 -15.972 -21.256  0.00  0.00    +0.152 C 
ATOM      8  C   UNL     1      33.492 -18.858 -21.546  0.00  0.00    +0.053 C 
ATOM      9  C   UNL     1      35.917 -19.280 -21.125  0.00  0.00    +0.053 C 
ATOM     10  C   UNL     1      33.842 -14.469 -23.019  0.00  0.00    +0.015 C 
ATOM     11  C   UNL     1      33.482 -13.511 -22.068  0.00  0.00    -0.007 C 
ATOM     12  C   UNL     1      34.144 -15.007 -20.305  0.00  0.00    +0.038 C 
ATOM     13  C   UNL     1      33.635 -13.778 -20.712  0.00  0.00    -0.000 C 
ENDROOT
BRANCH  11  18
ATOM     14  N   UNL     1      31.442 -10.390 -22.147  0.00  0.00    -0.337 NA
ATOM     15  N   UNL     1      32.919 -10.395 -24.051  0.00  0.00    -0.317 NA
ATOM     16  N   UNL     1      34.409 -12.195 -24.412  0.00  0.00    -0.335 N 
ATOM     17  N   UNL     1      31.435  -8.615 -23.682  0.00  0.00    -0.283 N 
ATOM     18  C   UNL     1      32.953 -12.233 -22.495  0.00  0.00    +0.138 C 
ATOM     19  C   UNL     1      31.964 -11.580 -21.786  0.00  0.00    +0.112 C 
ATOM     20  C   UNL     1      33.395 -11.586 -23.632  0.00  0.00    +0.178 C 
ATOM     21  C   UNL     1      31.958  -9.862 -23.274  0.00  0.00    +0.196 C 
ATOM     22  H   UNL     1      34.739 -11.750 -25.226  0.00  0.00    +0.144 HD
ATOM     23  H   UNL     1      34.784 -13.065 -24.141  0.00  0.00    +0.144 HD
ATOM     24  H   UNL     1      30.732  -8.178 -23.150  0.00  0.00    +0.156 HD
ATOM     25  H   UNL     1      31.776  -8.182 -24.498  0.00  0.00    +0.156 HD
BRANCH  19  26
ATOM     26  C   UNL     1      31.396 -12.172 -20.536  0.00  0.00    +0.056 C 
ATOM     27  C   UNL     1      31.344 -11.164 -19.393  0.00  0.00    +0.008 C 
ENDBRANCH  19  26
ENDBRANCH  11  18
BRANCH   3  28
ATOM     28  C   UNL     1      34.820 -16.371 -24.980  0.00  0.00    +0.101 C 
BRANCH  28  29
ATOM     29  C   UNL     1      33.506 -16.673 -25.689  0.00  0.00    +0.054 C 
BRANCH  29  30
ATOM     30  C   UNL     1      32.852 -15.429 -26.276  0.00  0.00    +0.144 C 
BRANCH  30  31
ATOM     31  O   UNL     1      33.825 -14.708 -27.020  0.00  0.00    -0.351 OA
ATOM     32  C   UNL     1      33.356 -13.415 -27.378  0.00  0.00    +0.174 C 
ENDBRANCH  30  31
ENDBRANCH  29  30
ENDBRANCH  28  29
ENDBRANCH   3  28
TORSDOF 6
ENDMDL
MODEL 2
REMARK VINA RESULT:      -9.2      2.634      7.400
REMARK  Name = 6914629
REMARK  6 active torsions:
REMARK  status: ('A' for Active; 'I' for Inactive)
REMARK    1  A    between atoms: N_3  and  C_28
REMARK    2  A    between atoms: C_11  and  C_18
REMARK    3  A    between atoms: C_19  and  C_26
REMARK    4  A    between atoms: C_28  and  C_29
REMARK    5  A    between atoms: C_29  and  C_30
REMARK    6  A    between atoms: C_30  and  O_31
REMARK                            x       y       z     vdW  Elec       q    Type
REMARK                         _______ _______ _______ _____ _____    ______ ____
ROOT
ATOM      1  O   UNL     1      34.304 -15.684 -26.216  0.00  0.00    -0.473 OA
ATOM      2  O   UNL     1      33.566 -12.541 -24.667  0.00  0.00    -0.271 OA
ATOM      3  N   UNL     1      34.166 -14.529 -23.629  0.00  0.00    -0.253 N 
ATOM      4  C   UNL     1      33.467 -14.557 -25.994  0.00  0.00    +0.201 C 
ATOM      5  C   UNL     1      34.525 -15.894 -23.807  0.00  0.00    +0.088 C 
ATOM      6  C   UNL     1      33.763 -13.757 -24.717  0.00  0.00    +0.266 C 
ATOM      7  C   UNL     1      34.590 -16.419 -25.101  0.00  0.00    +0.152 C 
ATOM      8  C   UNL     1      32.000 -15.019 -25.960  0.00  0.00    +0.053 C 
ATOM      9  C   UNL     1      33.668 -13.648 -27.215  0.00  0.00    +0.053 C 
ATOM     10  C   UNL     1      34.864 -16.731 -22.732  0.00  0.00    +0.015 C 
ATOM     11  C   UNL     1      35.258 -18.053 -22.953  0.00  0.00    -0.007 C 
ATOM     12  C   UNL     1      35.000 -17.737 -25.323  0.00  0.00    +0.038 C 
ATOM     13  C   UNL     1      35.330 -18.556 -24.247  0.00  0.00    -0.000 C 
ENDROOT
BRANCH  11  18
ATOM     14  N   UNL     1      34.907 -20.372 -20.053  0.00  0.00    -0.337 NA
ATOM     15  N   UNL     1      37.245 -19.883 -20.372  0.00  0.00    -0.317 NA
ATOM     16  N   UNL     1      37.946 -18.443 -22.111  0.00  0.00    -0.335 N 
ATOM     17  N   UNL     1      36.537 -21.311 -18.650  0.00  0.00    -0.283 N 
ATOM     18  C   UNL     1      35.600 -18.902 -21.831  0.00  0.00    +0.138 C 
ATOM     19  C   UNL     1      34.635 -19.571 -21.104  0.00  0.00    +0.112 C 
ATOM     20  C   UNL     1      36.901 -19.098 -21.414  0.00  0.00    +0.178 C 
ATOM     21  C   UNL     1      36.214 -20.480 -19.746  0.00  0.00    +0.196 C 
ATOM     22  H   UNL     1      38.882 -18.570 -21.830  0.00  0.00    +0.144 HD
ATOM     23  H   UNL     1      37.738 -17.860 -22.878  0.00  0.00    +0.144 HD
ATOM     24  H   UNL     1      35.823 -21.773 -18.156  0.00  0.00    +0.156 HD
ATOM     25  H   UNL     1      37.477 -21.428 -18.381  0.00  0.00    +0.156 HD
BRANCH  19  26
ATOM     26  C   UNL     1      33.186 -19.445 -21.451  0.00  0.00    +0.056 C 
ATOM     27  C   UNL     1      32.279 -19.863 -20.297  0.00  0.00    +0.008 C 
ENDBRANCH  19  26
ENDBRANCH  11  18
BRANCH   3  28
ATOM     28  C   UNL     1      34.281 -13.920 -22.308  0.00  0.00    +0.101 C 
BRANCH  28  29
ATOM     29  C   UNL     1      33.008 -14.069 -21.485  0.00  0.00    +0.054 C 
BRANCH  29  30
ATOM     30  C   UNL     1      32.100 -12.849 -21.574  0.00  0.00    +0.144 C 
BRANCH  30  31
ATOM     31  O   UNL     1      31.989 -12.266 -20.282  0.00  0.00    -0.351 OA
ATOM     32  C   UNL     1      31.033 -11.215 -20.265  0.00  0.00    +0.174 C 
ENDBRANCH  30  31
ENDBRANCH  29  30
ENDBRANCH  28  29
ENDBRANCH   3  28
TORSDOF 6
ENDMDL
MODEL 3
REMARK VINA RESULT:      -9.1      2.971      7.111
REMARK  Name = 6914629
REMARK  6 active torsions:
REMARK  status: ('A' for Active; 'I' for Inactive)
REMARK    1  A    between atoms: N_3  and  C_28
REMARK    2  A    between atoms: C_11  and  C_18
REMARK    3  A    between atoms: C_19  and  C_26
REMARK    4  A    between atoms: C_28  and  C_29
REMARK    5  A    between atoms: C_29  and  C_30
REMARK    6  A    between atoms: C_30  and  O_31
REMARK                            x       y       z     vdW  Elec       q    Type
REMARK                         _______ _______ _______ _____ _____    ______ ____
ROOT
ATOM      1  O   UNL     1      31.285  -9.451 -22.234  0.00  0.00    -0.473 OA
ATOM      2  O   UNL     1      33.597  -7.186 -23.765  0.00  0.00    -0.271 OA
ATOM      3  N   UNL     1      33.798  -9.489 -23.548  0.00  0.00    -0.253 N 
ATOM      4  C   UNL     1      32.101  -8.287 -22.221  0.00  0.00    +0.201 C 
ATOM      5  C   UNL     1      33.198 -10.688 -23.072  0.00  0.00    +0.088 C 
ATOM      6  C   UNL     1      33.215  -8.252 -23.278  0.00  0.00    +0.266 C 
ATOM      7  C   UNL     1      31.954 -10.623 -22.438  0.00  0.00    +0.152 C 
ATOM      8  C   UNL     1      32.735  -8.132 -20.828  0.00  0.00    +0.053 C 
ATOM      9  C   UNL     1      31.144  -7.110 -22.459  0.00  0.00    +0.053 C 
ATOM     10  C   UNL     1      33.788 -11.949 -23.253  0.00  0.00    +0.015 C 
ATOM     11  C   UNL     1      33.144 -13.108 -22.814  0.00  0.00    -0.007 C 
ATOM     12  C   UNL     1      31.302 -11.785 -22.013  0.00  0.00    +0.038 C 
ATOM     13  C   UNL     1      31.900 -13.027 -22.197  0.00  0.00    -0.000 C 
ENDROOT
BRANCH  11  18
ATOM     14  N   UNL     1      34.298 -16.257 -24.445  0.00  0.00    -0.337 NA
ATOM     15  N   UNL     1      35.035 -16.261 -22.150  0.00  0.00    -0.317 NA
ATOM     16  N   UNL     1      34.526 -14.447 -20.721  0.00  0.00    -0.335 N 
ATOM     17  N   UNL     1      35.533 -18.055 -23.579  0.00  0.00    -0.283 N 
ATOM     18  C   UNL     1      33.770 -14.399 -23.006  0.00  0.00    +0.138 C 
ATOM     19  C   UNL     1      33.729 -15.055 -24.220  0.00  0.00    +0.112 C 
ATOM     20  C   UNL     1      34.443 -15.058 -21.997  0.00  0.00    +0.178 C 
ATOM     21  C   UNL     1      34.925 -16.795 -23.381  0.00  0.00    +0.196 C 
ATOM     22  H   UNL     1      35.003 -14.900 -19.987  0.00  0.00    +0.144 HD
ATOM     23  H   UNL     1      34.108 -13.569 -20.567  0.00  0.00    +0.144 HD
ATOM     24  H   UNL     1      35.485 -18.492 -24.459  0.00  0.00    +0.156 HD
ATOM     25  H   UNL     1      36.006 -18.495 -22.836  0.00  0.00    +0.156 HD
BRANCH  19  26
ATOM     26  C   UNL     1      33.032 -14.451 -25.397  0.00  0.00    +0.056 C 
ATOM     27  C   UNL     1      32.783 -15.470 -26.505  0.00  0.00    +0.008 C 
ENDBRANCH  19  26
ENDBRANCH  11  18
BRANCH   3  28
ATOM     28  C   UNL     1      34.996  -9.562 -24.376  0.00  0.00    +0.101 C 
BRANCH  28  29
ATOM     29  C   UNL     1      34.863 -10.570 -25.510  0.00  0.00    +0.054 C 
BRANCH  29  30
ATOM     30  C   UNL     1      35.886 -10.353 -26.617  0.00  0.00    +0.144 C 
BRANCH  30  31
ATOM     31  O   UNL     1      35.646 -11.297 -27.653  0.00  0.00    -0.351 OA
ATOM     32  C   UNL     1      34.598 -12.193 -27.310  0.00  0.00    +0.174 C 
ENDBRANCH  30  31
ENDBRANCH  29  30
ENDBRANCH  28  29
ENDBRANCH   3  28
TORSDOF 6
ENDMDL
MODEL 4
REMARK VINA RESULT:      -9.1      3.070      6.948
REMARK  Name = 6914629
REMARK  6 active torsions:
REMARK  status: ('A' for Active; 'I' for Inactive)
REMARK    1  A    between atoms: N_3  and  C_28
REMARK    2  A    between atoms: C_11  and  C_18
REMARK    3  A    between atoms: C_19  and  C_26
REMARK    4  A    between atoms: C_28  and  C_29
REMARK    5  A    between atoms: C_29  and  C_30
REMARK    6  A    between atoms: C_30  and  O_31
REMARK                            x       y       z     vdW  Elec       q    Type
REMARK                         _______ _______ _______ _____ _____    ______ ____
ROOT
ATOM      1  O   UNL     1      31.352  -9.295 -22.130  0.00  0.00    -0.473 OA
ATOM      2  O   UNL     1      33.727  -6.993 -23.502  0.00  0.00    -0.271 OA
ATOM      3  N   UNL     1      33.817  -9.313 -23.532  0.00  0.00    -0.253 N 
ATOM      4  C   UNL     1      32.227  -8.179 -22.026  0.00  0.00    +0.201 C 
ATOM      5  C   UNL     1      33.173 -10.526 -23.160  0.00  0.00    +0.088 C 
ATOM      6  C   UNL     1      33.307  -8.085 -23.114  0.00  0.00    +0.266 C 
ATOM      7  C   UNL     1      31.955 -10.470 -22.478  0.00  0.00    +0.152 C 
ATOM      8  C   UNL     1      32.911  -8.201 -20.649  0.00  0.00    +0.053 C 
ATOM      9  C   UNL     1      31.323  -6.940 -22.106  0.00  0.00    +0.053 C 
ATOM     10  C   UNL     1      33.692 -11.787 -23.493  0.00  0.00    +0.015 C 
ATOM     11  C   UNL     1      33.004 -12.955 -23.152  0.00  0.00    -0.007 C 
ATOM     12  C   UNL     1      31.258 -11.637 -22.152  0.00  0.00    +0.038 C 
ATOM     13  C   UNL     1      31.786 -12.881 -22.485  0.00  0.00    -0.000 C 
ENDROOT
BRANCH  11  18
ATOM     14  N   UNL     1      34.871 -16.173 -22.896  0.00  0.00    -0.337 NA
ATOM     15  N   UNL     1      33.852 -16.043 -25.076  0.00  0.00    -0.317 NA
ATOM     16  N   UNL     1      32.559 -14.160 -25.689  0.00  0.00    -0.335 N 
ATOM     17  N   UNL     1      35.137 -17.905 -24.457  0.00  0.00    -0.283 N 
ATOM     18  C   UNL     1      33.558 -14.247 -23.500  0.00  0.00    +0.138 C 
ATOM     19  C   UNL     1      34.336 -14.967 -22.615  0.00  0.00    +0.112 C 
ATOM     20  C   UNL     1      33.348 -14.841 -24.728  0.00  0.00    +0.178 C 
ATOM     21  C   UNL     1      34.593 -16.644 -24.127  0.00  0.00    +0.196 C 
ATOM     22  H   UNL     1      32.397 -14.566 -26.571  0.00  0.00    +0.144 HD
ATOM     23  H   UNL     1      32.172 -13.280 -25.475  0.00  0.00    +0.144 HD
ATOM     24  H   UNL     1      35.686 -18.391 -23.800  0.00  0.00    +0.156 HD
ATOM     25  H   UNL     1      34.966 -18.299 -25.343  0.00  0.00    +0.156 HD
BRANCH  19  26
ATOM     26  C   UNL     1      34.640 -14.438 -21.251  0.00  0.00    +0.056 C 
ATOM     27  C   UNL     1      34.627 -15.535 -20.190  0.00  0.00    +0.008 C 
ENDBRANCH  19  26
ENDBRANCH  11  18
BRANCH   3  28
ATOM     28  C   UNL     1      34.984  -9.355 -24.406  0.00  0.00    +0.101 C 
BRANCH  28  29
ATOM     29  C   UNL     1      34.860 -10.412 -25.495  0.00  0.00    +0.054 C 
BRANCH  29  30
ATOM     30  C   UNL     1      35.950 -10.301 -26.553  0.00  0.00    +0.144 C 
BRANCH  30  31
ATOM     31  O   UNL     1      35.635 -11.177 -27.628  0.00  0.00    -0.351 OA
ATOM     32  C   UNL     1      34.655 -12.135 -27.251  0.00  0.00    +0.174 C 
ENDBRANCH  30  31
ENDBRANCH  29  30
ENDBRANCH  28  29
ENDBRANCH   3  28
TORSDOF 6
ENDMDL
MODEL 5
REMARK VINA RESULT:      -9.0      8.760     12.125
REMARK  Name = 6914629
REMARK  6 active torsions:
REMARK  status: ('A' for Active; 'I' for Inactive)
REMARK    1  A    between atoms: N_3  and  C_28
REMARK    2  A    between atoms: C_11  and  C_18
REMARK    3  A    between atoms: C_19  and  C_26
REMARK    4  A    between atoms: C_28  and  C_29
REMARK    5  A    between atoms: C_29  and  C_30
REMARK    6  A    between atoms: C_30  and  O_31
REMARK                            x       y       z     vdW  Elec       q    Type
REMARK                         _______ _______ _______ _____ _____    ______ ____
ROOT
ATOM      1  O   UNL     1      38.130 -23.890 -14.066  0.00  0.00    -0.473 OA
ATOM      2  O   UNL     1      35.747 -25.451 -11.898  0.00  0.00    -0.271 OA
ATOM      3  N   UNL     1      35.332 -24.311 -13.878  0.00  0.00    -0.253 N 
ATOM      4  C   UNL     1      37.536 -24.096 -12.791  0.00  0.00    +0.201 C 
ATOM      5  C   UNL     1      35.897 -23.600 -14.972  0.00  0.00    +0.088 C 
ATOM      6  C   UNL     1      36.133 -24.720 -12.812  0.00  0.00    +0.266 C 
ATOM      7  C   UNL     1      37.282 -23.423 -15.029  0.00  0.00    +0.152 C 
ATOM      8  C   UNL     1      37.471 -22.755 -12.042  0.00  0.00    +0.053 C 
ATOM      9  C   UNL     1      38.492 -25.034 -12.039  0.00  0.00    +0.053 C 
ATOM     10  C   UNL     1      35.119 -23.102 -16.030  0.00  0.00    +0.015 C 
ATOM     11  C   UNL     1      35.717 -22.451 -17.112  0.00  0.00    -0.007 C 
ATOM     12  C   UNL     1      37.882 -22.786 -16.120  0.00  0.00    +0.038 C 
ATOM     13  C   UNL     1      37.098 -22.295 -17.159  0.00  0.00    -0.000 C 
ENDROOT
BRANCH  11  18
ATOM     14  N   UNL     1      32.769 -21.842 -19.313  0.00  0.00    -0.337 NA
ATOM     15  N   UNL     1      34.641 -20.587 -20.165  0.00  0.00    -0.317 NA
ATOM     16  N   UNL     1      36.739 -20.670 -19.079  0.00  0.00    -0.335 N 
ATOM     17  N   UNL     1      32.554 -20.512 -21.234  0.00  0.00    -0.283 N 
ATOM     18  C   UNL     1      34.897 -21.941 -18.190  0.00  0.00    +0.138 C 
ATOM     19  C   UNL     1      33.569 -22.293 -18.325  0.00  0.00    +0.112 C 
ATOM     20  C   UNL     1      35.384 -21.076 -19.151  0.00  0.00    +0.178 C 
ATOM     21  C   UNL     1      33.362 -21.005 -20.186  0.00  0.00    +0.196 C 
ATOM     22  H   UNL     1      37.106 -20.054 -19.753  0.00  0.00    +0.144 HD
ATOM     23  H   UNL     1      37.316 -21.004 -18.353  0.00  0.00    +0.144 HD
ATOM     24  H   UNL     1      31.610 -20.784 -21.298  0.00  0.00    +0.156 HD
ATOM     25  H   UNL     1      32.934 -19.896 -21.901  0.00  0.00    +0.156 HD
BRANCH  19  26
ATOM     26  C   UNL     1      32.918 -23.222 -17.352  0.00  0.00    +0.056 C 
ATOM     27  C   UNL     1      31.537 -22.735 -16.924  0.00  0.00    +0.008 C 
ENDBRANCH  19  26
ENDBRANCH  11  18
BRANCH   3  28
ATOM     28  C   UNL     1      33.918 -24.667 -13.902  0.00  0.00    +0.101 C 
BRANCH  28  29
ATOM     29  C   UNL     1      33.025 -23.547 -13.384  0.00  0.00    +0.054 C 
BRANCH  29  30
ATOM     30  C   UNL     1      31.542 -23.843 -13.563  0.00  0.00    +0.144 C 
BRANCH  30  31
ATOM     31  O   UNL     1      31.390 -25.201 -13.957  0.00  0.00    -0.351 OA
ATOM     32  C   UNL     1      30.235 -25.384 -14.764  0.00  0.00    +0.174 C 
ENDBRANCH  30  31
ENDBRANCH  29  30
ENDBRANCH  28  29
ENDBRANCH   3  28
TORSDOF 6
ENDMDL
MODEL 6
REMARK VINA RESULT:      -8.7      8.527     12.029
REMARK  Name = 6914629
REMARK  6 active torsions:
REMARK  status: ('A' for Active; 'I' for Inactive)
REMARK    1  A    between atoms: N_3  and  C_28
REMARK    2  A    between atoms: C_11  and  C_18
REMARK    3  A    between atoms: C_19  and  C_26
REMARK    4  A    between atoms: C_28  and  C_29
REMARK    5  A    between atoms: C_29  and  C_30
REMARK    6  A    between atoms: C_30  and  O_31
REMARK                            x       y       z     vdW  Elec       q    Type
REMARK                         _______ _______ _______ _____ _____    ______ ____
ROOT
ATOM      1  O   UNL     1      38.071 -23.825 -14.130  0.00  0.00    -0.473 OA
ATOM      2  O   UNL     1      35.731 -25.439 -11.953  0.00  0.00    -0.271 OA
ATOM      3  N   UNL     1      35.283 -24.303 -13.929  0.00  0.00    -0.253 N 
ATOM      4  C   UNL     1      37.487 -24.047 -12.853  0.00  0.00    +0.201 C 
ATOM      5  C   UNL     1      35.828 -23.578 -15.024  0.00  0.00    +0.088 C 
ATOM      6  C   UNL     1      36.097 -24.698 -12.868  0.00  0.00    +0.266 C 
ATOM      7  C   UNL     1      37.209 -23.374 -15.088  0.00  0.00    +0.152 C 
ATOM      8  C   UNL     1      37.400 -22.709 -12.100  0.00  0.00    +0.053 C 
ATOM      9  C   UNL     1      38.466 -24.967 -12.107  0.00  0.00    +0.053 C 
ATOM     10  C   UNL     1      35.034 -23.094 -16.076  0.00  0.00    +0.015 C 
ATOM     11  C   UNL     1      35.614 -22.428 -17.160  0.00  0.00    -0.007 C 
ATOM     12  C   UNL     1      37.791 -22.723 -16.180  0.00  0.00    +0.038 C 
ATOM     13  C   UNL     1      36.992 -22.245 -17.213  0.00  0.00    -0.000 C 
ENDROOT
BRANCH  11  18
ATOM     14  N   UNL     1      34.546 -20.654 -20.261  0.00  0.00    -0.337 NA
ATOM     15  N   UNL     1      32.631 -21.766 -19.310  0.00  0.00    -0.317 NA
ATOM     16  N   UNL     1      32.839 -23.026 -17.319  0.00  0.00    -0.335 N 
ATOM     17  N   UNL     1      32.439 -20.514 -21.284  0.00  0.00    -0.283 N 
ATOM     18  C   UNL     1      34.779 -21.932 -18.233  0.00  0.00    +0.138 C 
ATOM     19  C   UNL     1      35.286 -21.138 -19.242  0.00  0.00    +0.112 C 
ATOM     20  C   UNL     1      33.431 -22.216 -18.320  0.00  0.00    +0.178 C 
ATOM     21  C   UNL     1      33.245 -21.002 -20.233  0.00  0.00    +0.196 C 
ATOM     22  H   UNL     1      31.879 -23.240 -17.363  0.00  0.00    +0.144 HD
ATOM     23  H   UNL     1      33.387 -23.375 -16.579  0.00  0.00    +0.144 HD
ATOM     24  H   UNL     1      32.835 -19.951 -21.988  0.00  0.00    +0.156 HD
ATOM     25  H   UNL     1      31.481 -20.737 -21.314  0.00  0.00    +0.156 HD
BRANCH  19  26
ATOM     26  C   UNL     1      36.731 -20.755 -19.268  0.00  0.00    +0.056 C 
ATOM     27  C   UNL     1      37.044 -19.757 -20.378  0.00  0.00    +0.008 C 
ENDBRANCH  19  26
ENDBRANCH  11  18
BRANCH   3  28
ATOM     28  C   UNL     1      33.876 -24.687 -13.946  0.00  0.00    +0.101 C 
BRANCH  28  29
ATOM     29  C   UNL     1      32.979 -23.648 -13.286  0.00  0.00    +0.054 C 
BRANCH  29  30
ATOM     30  C   UNL     1      31.628 -23.510 -13.976  0.00  0.00    +0.144 C 
BRANCH  30  31
ATOM     31  O   UNL     1      31.486 -24.564 -14.921  0.00  0.00    -0.351 OA
ATOM     32  C   UNL     1      30.224 -25.204 -14.801  0.00  0.00    +0.174 C 
ENDBRANCH  30  31
ENDBRANCH  29  30
ENDBRANCH  28  29
ENDBRANCH   3  28
TORSDOF 6
ENDMDL
MODEL 7
REMARK VINA RESULT:      -8.7      8.371     13.186
REMARK  Name = 6914629
REMARK  6 active torsions:
REMARK  status: ('A' for Active; 'I' for Inactive)
REMARK    1  A    between atoms: N_3  and  C_28
REMARK    2  A    between atoms: C_11  and  C_18
REMARK    3  A    between atoms: C_19  and  C_26
REMARK    4  A    between atoms: C_28  and  C_29
REMARK    5  A    between atoms: C_29  and  C_30
REMARK    6  A    between atoms: C_30  and  O_31
REMARK                            x       y       z     vdW  Elec       q    Type
REMARK                         _______ _______ _______ _____ _____    ______ ____
ROOT
ATOM      1  O   UNL     1      36.056 -20.673 -18.840  0.00  0.00    -0.473 OA
ATOM      2  O   UNL     1      32.840 -21.720 -20.016  0.00  0.00    -0.271 OA
ATOM      3  N   UNL     1      34.056 -22.592 -18.239  0.00  0.00    -0.253 N 
ATOM      4  C   UNL     1      35.173 -21.110 -19.864  0.00  0.00    +0.201 C 
ATOM      5  C   UNL     1      35.251 -22.509 -17.471  0.00  0.00    +0.088 C 
ATOM      6  C   UNL     1      33.892 -21.804 -19.378  0.00  0.00    +0.266 C 
ATOM      7  C   UNL     1      36.205 -21.542 -17.797  0.00  0.00    +0.152 C 
ATOM      8  C   UNL     1      35.926 -22.063 -20.807  0.00  0.00    +0.053 C 
ATOM      9  C   UNL     1      34.792 -19.844 -20.647  0.00  0.00    +0.053 C 
ATOM     10  C   UNL     1      35.492 -23.335 -16.362  0.00  0.00    +0.015 C 
ATOM     11  C   UNL     1      36.657 -23.190 -15.604  0.00  0.00    -0.007 C 
ATOM     12  C   UNL     1      37.363 -21.385 -17.029  0.00  0.00    +0.038 C 
ATOM     13  C   UNL     1      37.591 -22.214 -15.935  0.00  0.00    -0.000 C 
ENDROOT
BRANCH  11  18
ATOM     14  N   UNL     1      38.279 -25.663 -13.332  0.00  0.00    -0.337 NA
ATOM     15  N   UNL     1      36.203 -24.948 -12.339  0.00  0.00    -0.317 NA
ATOM     16  N   UNL     1      34.825 -23.370 -13.437  0.00  0.00    -0.335 N 
ATOM     17  N   UNL     1      37.578 -26.512 -11.260  0.00  0.00    -0.283 N 
ATOM     18  C   UNL     1      36.891 -24.055 -14.467  0.00  0.00    +0.138 C 
ATOM     19  C   UNL     1      38.020 -24.843 -14.372  0.00  0.00    +0.112 C 
ATOM     20  C   UNL     1      36.008 -24.150 -13.410  0.00  0.00    +0.178 C 
ATOM     21  C   UNL     1      37.341 -25.666 -12.365  0.00  0.00    +0.196 C 
ATOM     22  H   UNL     1      34.182 -23.423 -12.693  0.00  0.00    +0.144 HD
ATOM     23  H   UNL     1      34.645 -22.775 -14.201  0.00  0.00    +0.144 HD
ATOM     24  H   UNL     1      38.395 -27.059 -11.225  0.00  0.00    +0.156 HD
ATOM     25  H   UNL     1      36.927 -26.554 -10.523  0.00  0.00    +0.156 HD
BRANCH  19  26
ATOM     26  C   UNL     1      39.057 -24.835 -15.449  0.00  0.00    +0.056 C 
ATOM     27  C   UNL     1      40.359 -25.492 -15.001  0.00  0.00    +0.008 C 
ENDBRANCH  19  26
ENDBRANCH  11  18
BRANCH   3  28
ATOM     28  C   UNL     1      32.973 -23.462 -17.796  0.00  0.00    +0.101 C 
BRANCH  28  29
ATOM     29  C   UNL     1      31.980 -22.744 -16.890  0.00  0.00    +0.054 C 
BRANCH  29  30
ATOM     30  C   UNL     1      31.291 -23.681 -15.908  0.00  0.00    +0.144 C 
BRANCH  30  31
ATOM     31  O   UNL     1      32.219 -24.043 -14.893  0.00  0.00    -0.351 OA
ATOM     32  C   UNL     1      31.663 -24.992 -13.993  0.00  0.00    +0.174 C 
ENDBRANCH  30  31
ENDBRANCH  29  30
ENDBRANCH  28  29
ENDBRANCH   3  28
TORSDOF 6
ENDMDL
MODEL 8
REMARK VINA RESULT:      -8.6      8.208     12.734
REMARK  Name = 6914629
REMARK  6 active torsions:
REMARK  status: ('A' for Active; 'I' for Inactive)
REMARK    1  A    between atoms: N_3  and  C_28
REMARK    2  A    between atoms: C_11  and  C_18
REMARK    3  A    between atoms: C_19  and  C_26
REMARK    4  A    between atoms: C_28  and  C_29
REMARK    5  A    between atoms: C_29  and  C_30
REMARK    6  A    between atoms: C_30  and  O_31
REMARK                            x       y       z     vdW  Elec       q    Type
REMARK                         _______ _______ _______ _____ _____    ______ ____
ROOT
ATOM      1  O   UNL     1      35.996 -20.668 -18.901  0.00  0.00    -0.473 OA
ATOM      2  O   UNL     1      32.717 -21.639 -19.963  0.00  0.00    -0.271 OA
ATOM      3  N   UNL     1      33.978 -22.548 -18.238  0.00  0.00    -0.253 N 
ATOM      4  C   UNL     1      35.066 -21.079 -19.894  0.00  0.00    +0.201 C 
ATOM      5  C   UNL     1      35.202 -22.496 -17.514  0.00  0.00    +0.088 C 
ATOM      6  C   UNL     1      33.789 -21.749 -19.365  0.00  0.00    +0.266 C 
ATOM      7  C   UNL     1      36.164 -21.547 -17.869  0.00  0.00    +0.152 C 
ATOM      8  C   UNL     1      35.763 -22.042 -20.869  0.00  0.00    +0.053 C 
ATOM      9  C   UNL     1      34.684 -19.800 -20.654  0.00  0.00    +0.053 C 
ATOM     10  C   UNL     1      35.466 -23.335 -16.420  0.00  0.00    +0.015 C 
ATOM     11  C   UNL     1      36.661 -23.220 -15.705  0.00  0.00    -0.007 C 
ATOM     12  C   UNL     1      37.353 -21.421 -17.143  0.00  0.00    +0.038 C 
ATOM     13  C   UNL     1      37.603 -22.262 -16.063  0.00  0.00    -0.000 C 
ENDROOT
BRANCH  11  18
ATOM     14  N   UNL     1      36.217 -25.036 -12.477  0.00  0.00    -0.337 NA
ATOM     15  N   UNL     1      38.331 -25.679 -13.440  0.00  0.00    -0.317 NA
ATOM     16  N   UNL     1      39.037 -24.769 -15.506  0.00  0.00    -0.335 N 
ATOM     17  N   UNL     1      37.618 -26.574 -11.392  0.00  0.00    -0.283 N 
ATOM     18  C   UNL     1      36.918 -24.098 -14.582  0.00  0.00    +0.138 C 
ATOM     19  C   UNL     1      36.020 -24.231 -13.542  0.00  0.00    +0.112 C 
ATOM     20  C   UNL     1      38.068 -24.854 -14.475  0.00  0.00    +0.178 C 
ATOM     21  C   UNL     1      37.378 -25.720 -12.491  0.00  0.00    +0.196 C 
ATOM     22  H   UNL     1      39.864 -25.301 -15.449  0.00  0.00    +0.144 HD
ATOM     23  H   UNL     1      38.884 -24.179 -16.279  0.00  0.00    +0.144 HD
ATOM     24  H   UNL     1      36.955 -26.644 -10.669  0.00  0.00    +0.156 HD
ATOM     25  H   UNL     1      38.450 -27.099 -11.350  0.00  0.00    +0.156 HD
BRANCH  19  26
ATOM     26  C   UNL     1      34.734 -23.468 -13.533  0.00  0.00    +0.056 C 
ATOM     27  C   UNL     1      33.518 -24.385 -13.613  0.00  0.00    +0.008 C 
ENDBRANCH  19  26
ENDBRANCH  11  18
BRANCH   3  28
ATOM     28  C   UNL     1      32.893 -23.398 -17.760  0.00  0.00    +0.101 C 
BRANCH  28  29
ATOM     29  C   UNL     1      32.038 -22.713 -16.701  0.00  0.00    +0.054 C 
BRANCH  29  30
ATOM     30  C   UNL     1      30.667 -23.358 -16.542  0.00  0.00    +0.144 C 
BRANCH  30  31
ATOM     31  O   UNL     1      29.680 -22.462 -17.037  0.00  0.00    -0.351 OA
ATOM     32  C   UNL     1      28.373 -23.008 -16.916  0.00  0.00    +0.174 C 
ENDBRANCH  30  31
ENDBRANCH  29  30
ENDBRANCH  28  29
ENDBRANCH   3  28
TORSDOF 6
ENDMDL
MODEL 9
REMARK VINA RESULT:      -8.5      3.470      7.759
REMARK  Name = 6914629
REMARK  6 active torsions:
REMARK  status: ('A' for Active; 'I' for Inactive)
REMARK    1  A    between atoms: N_3  and  C_28
REMARK    2  A    between atoms: C_11  and  C_18
REMARK    3  A    between atoms: C_19  and  C_26
REMARK    4  A    between atoms: C_28  and  C_29
REMARK    5  A    between atoms: C_29  and  C_30
REMARK    6  A    between atoms: C_30  and  O_31
REMARK                            x       y       z     vdW  Elec       q    Type
REMARK                         _______ _______ _______ _____ _____    ______ ____
ROOT
ATOM      1  O   UNL     1      33.641  -8.274 -23.790  0.00  0.00    -0.473 OA
ATOM      2  O   UNL     1      30.889  -7.949 -21.523  0.00  0.00    -0.271 OA
ATOM      3  N   UNL     1      31.687  -9.889 -22.519  0.00  0.00    -0.253 N 
ATOM      4  C   UNL     1      32.408  -7.695 -23.383  0.00  0.00    +0.201 C 
ATOM      5  C   UNL     1      32.655 -10.457 -23.393  0.00  0.00    +0.088 C 
ATOM      6  C   UNL     1      31.605  -8.507 -22.356  0.00  0.00    +0.266 C 
ATOM      7  C   UNL     1      33.605  -9.625 -23.991  0.00  0.00    +0.152 C 
ATOM      8  C   UNL     1      31.529  -7.457 -24.623  0.00  0.00    +0.053 C 
ATOM      9  C   UNL     1      32.775  -6.334 -22.773  0.00  0.00    +0.053 C 
ATOM     10  C   UNL     1      32.724 -11.836 -23.646  0.00  0.00    +0.015 C 
ATOM     11  C   UNL     1      33.721 -12.361 -24.473  0.00  0.00    -0.007 C 
ATOM     12  C   UNL     1      34.612 -10.151 -24.805  0.00  0.00    +0.038 C 
ATOM     13  C   UNL     1      34.667 -11.520 -25.050  0.00  0.00    -0.000 C 
ENDROOT
BRANCH  11  18
ATOM     14  N   UNL     1      34.178 -16.022 -23.930  0.00  0.00    -0.337 NA
ATOM     15  N   UNL     1      33.530 -15.656 -26.223  0.00  0.00    -0.317 NA
ATOM     16  N   UNL     1      33.129 -13.468 -27.024  0.00  0.00    -0.335 N 
ATOM     17  N   UNL     1      33.931 -17.822 -25.415  0.00  0.00    -0.283 N 
ATOM     18  C   UNL     1      33.774 -13.785 -24.726  0.00  0.00    +0.138 C 
ATOM     19  C   UNL     1      34.116 -14.688 -23.740  0.00  0.00    +0.112 C 
ATOM     20  C   UNL     1      33.489 -14.333 -25.961  0.00  0.00    +0.178 C 
ATOM     21  C   UNL     1      33.877 -16.431 -25.178  0.00  0.00    +0.196 C 
ATOM     22  H   UNL     1      32.922 -13.839 -27.913  0.00  0.00    +0.144 HD
ATOM     23  H   UNL     1      33.087 -12.495 -26.876  0.00  0.00    +0.144 HD
ATOM     24  H   UNL     1      34.178 -18.437 -24.687  0.00  0.00    +0.156 HD
ATOM     25  H   UNL     1      33.720 -18.178 -26.308  0.00  0.00    +0.156 HD
BRANCH  19  26
ATOM     26  C   UNL     1      34.448 -14.226 -22.357  0.00  0.00    +0.056 C 
ATOM     27  C   UNL     1      33.412 -14.679 -21.333  0.00  0.00    +0.008 C 
ENDBRANCH  19  26
ENDBRANCH  11  18
BRANCH   3  28
ATOM     28  C   UNL     1      30.815 -10.764 -21.742  0.00  0.00    +0.101 C 
BRANCH  28  29
ATOM     29  C   UNL     1      31.525 -11.381 -20.544  0.00  0.00    +0.054 C 
BRANCH  29  30
ATOM     30  C   UNL     1      31.173 -10.695 -19.231  0.00  0.00    +0.144 C 
BRANCH  30  31
ATOM     31  O   UNL     1      32.330 -10.033 -18.736  0.00  0.00    -0.351 OA
ATOM     32  C   UNL     1      32.367  -8.672 -19.145  0.00  0.00    +0.174 C 
ENDBRANCH  30  31
ENDBRANCH  29  30
ENDBRANCH  28  29
ENDBRANCH   3  28
TORSDOF 6
ENDMDL
