MODEL 1
REMARK VINA RESULT:      -8.6      0.000      0.000
REMARK  Name = 73318
REMARK  4 active torsions:
REMARK  status: ('A' for Active; 'I' for Inactive)
REMARK    1  A    between atoms: N_3  and  C1*_18
REMARK    2  A    between atoms: C3*_20  and  O3*_22
REMARK    3  A    between atoms: C4*_21  and  C5*_24
REMARK    4  A    between atoms: C5*_24  and  O5*_25
REMARK                            x       y       z     vdW  Elec       q    Type
REMARK                         _______ _______ _______ _____ _____    ______ ____
ROOT
ATOM      1  O   UNL     1      34.507 -22.543 -18.734  0.00  0.00    -0.246 OA
ATOM      2  O   UNL     1      29.488 -22.398 -17.042  0.00  0.00    -0.208 OA
ATOM      3  N   UNL     1      33.869 -23.535 -16.653  0.00  0.00    -0.244 N 
ATOM      4  N   UNL     1      32.285 -22.528 -17.897  0.00  0.00    -0.294 N 
ATOM      5  N   UNL     1      32.296 -24.201 -14.814  0.00  0.00    -0.260 N 
ATOM      6  N   UNL     1      30.020 -23.561 -15.114  0.00  0.00    -0.301 NA
ATOM      7  N   UNL     1      30.734 -24.746 -13.207  0.00  0.00    -0.320 N 
ATOM      8  C   UNL     1      32.656 -23.634 -15.999  0.00  0.00    +0.149 A 
ATOM      9  C   UNL     1      33.679 -22.829 -17.883  0.00  0.00    +0.331 A 
ATOM     10  C   UNL     1      31.731 -23.029 -16.757  0.00  0.00    +0.187 A 
ATOM     11  C   UNL     1      30.318 -22.960 -16.335  0.00  0.00    +0.226 C 
ATOM     12  C   UNL     1      30.972 -24.141 -14.414  0.00  0.00    +0.249 C 
ATOM     13  H   UNL     1      31.806 -22.042 -18.607  0.00  0.00    +0.171 HD
ATOM     14  H   UNL     1      32.967 -24.646 -14.250  0.00  0.00    +0.157 HD
ATOM     15  H   UNL     1      31.475 -25.169 -12.714  0.00  0.00    +0.146 HD
ATOM     16  H   UNL     1      29.824 -24.759 -12.833  0.00  0.00    +0.146 HD
ENDROOT
BRANCH   3  18
ATOM     17  O4* UNL     1      34.875 -24.915 -15.054  0.00  0.00    -0.333 OA
ATOM     18  C1* UNL     1      35.116 -24.055 -16.176  0.00  0.00    +0.212 C 
ATOM     19  C2* UNL     1      36.072 -22.966 -15.715  0.00  0.00    +0.086 C 
ATOM     20  C3* UNL     1      36.821 -23.643 -14.591  0.00  0.00    +0.145 C 
ATOM     21  C4* UNL     1      35.773 -24.565 -13.983  0.00  0.00    +0.173 C 
BRANCH  20  22
ATOM     22  O3* UNL     1      37.894 -24.416 -15.126  0.00  0.00    -0.382 OA
ATOM     23  H3* UNL     1      38.624 -24.440 -14.487  0.00  0.00    +0.210 HD
ENDBRANCH  20  22
BRANCH  21  24
ATOM     24  C5* UNL     1      34.955 -23.891 -12.888  0.00  0.00    +0.169 C 
BRANCH  24  25
ATOM     25  O5* UNL     1      33.871 -24.736 -12.539  0.00  0.00    -0.379 OA
ATOM     26  H5* UNL     1      33.094 -24.502 -13.069  0.00  0.00    +0.211 HD
ENDBRANCH  24  25
ENDBRANCH  21  24
ENDBRANCH   3  18
TORSDOF 4
ENDMDL
MODEL 2
REMARK VINA RESULT:      -8.3      1.799      3.307
REMARK  Name = 73318
REMARK  4 active torsions:
REMARK  status: ('A' for Active; 'I' for Inactive)
REMARK    1  A    between atoms: N_3  and  C1*_18
REMARK    2  A    between atoms: C3*_20  and  O3*_22
REMARK    3  A    between atoms: C4*_21  and  C5*_24
REMARK    4  A    between atoms: C5*_24  and  O5*_25
REMARK                            x       y       z     vdW  Elec       q    Type
REMARK                         _______ _______ _______ _____ _____    ______ ____
ROOT
ATOM      1  O   UNL     1      34.691 -24.575 -12.606  0.00  0.00    -0.246 OA
ATOM      2  O   UNL     1      30.363 -22.907 -15.166  0.00  0.00    -0.208 OA
ATOM      3  N   UNL     1      34.777 -23.947 -14.913  0.00  0.00    -0.244 N 
ATOM      4  N   UNL     1      32.805 -23.815 -13.833  0.00  0.00    -0.294 N 
ATOM      5  N   UNL     1      33.868 -23.130 -17.105  0.00  0.00    -0.260 N 
ATOM      6  N   UNL     1      31.543 -22.608 -17.134  0.00  0.00    -0.301 NA
ATOM      7  N   UNL     1      32.892 -22.366 -19.050  0.00  0.00    -0.320 N 
ATOM      8  C   UNL     1      33.815 -23.488 -15.791  0.00  0.00    +0.149 A 
ATOM      9  C   UNL     1      34.172 -24.172 -13.636  0.00  0.00    +0.331 A 
ATOM     10  C   UNL     1      32.653 -23.418 -15.128  0.00  0.00    +0.187 A 
ATOM     11  C   UNL     1      31.417 -22.960 -15.792  0.00  0.00    +0.226 C 
ATOM     12  C   UNL     1      32.712 -22.698 -17.732  0.00  0.00    +0.249 C 
ATOM     13  H   UNL     1      32.094 -23.850 -13.153  0.00  0.00    +0.171 HD
ATOM     14  H   UNL     1      34.715 -23.179 -17.602  0.00  0.00    +0.157 HD
ATOM     15  H   UNL     1      33.784 -22.448 -19.460  0.00  0.00    +0.146 HD
ATOM     16  H   UNL     1      32.132 -22.046 -19.586  0.00  0.00    +0.146 HD
ENDROOT
BRANCH   3  18
ATOM     17  O4* UNL     1      36.409 -25.572 -15.322  0.00  0.00    -0.333 OA
ATOM     18  C1* UNL     1      36.158 -24.163 -15.228  0.00  0.00    +0.212 C 
ATOM     19  C2* UNL     1      37.098 -23.605 -14.172  0.00  0.00    +0.086 C 
ATOM     20  C3* UNL     1      38.256 -24.576 -14.219  0.00  0.00    +0.145 C 
ATOM     21  C4* UNL     1      37.582 -25.899 -14.553  0.00  0.00    +0.173 C 
BRANCH  20  22
ATOM     22  O3* UNL     1      39.149 -24.208 -15.268  0.00  0.00    -0.382 OA
ATOM     23  H3* UNL     1      39.986 -24.686 -15.162  0.00  0.00    +0.210 HD
ENDBRANCH  20  22
BRANCH  21  24
ATOM     24  C5* UNL     1      37.132 -26.664 -13.314  0.00  0.00    +0.169 C 
BRANCH  24  25
ATOM     25  O5* UNL     1      37.563 -25.962 -12.160  0.00  0.00    -0.379 OA
ATOM     26  H5* UNL     1      38.395 -25.503 -12.351  0.00  0.00    +0.211 HD
ENDBRANCH  24  25
ENDBRANCH  21  24
ENDBRANCH   3  18
TORSDOF 4
ENDMDL
MODEL 3
REMARK VINA RESULT:      -8.2      2.059      4.313
REMARK  Name = 73318
REMARK  4 active torsions:
REMARK  status: ('A' for Active; 'I' for Inactive)
REMARK    1  A    between atoms: N_3  and  C1*_18
REMARK    2  A    between atoms: C3*_20  and  O3*_22
REMARK    3  A    between atoms: C4*_21  and  C5*_24
REMARK    4  A    between atoms: C5*_24  and  O5*_25
REMARK                            x       y       z     vdW  Elec       q    Type
REMARK                         _______ _______ _______ _____ _____    ______ ____
ROOT
ATOM      1  O   UNL     1      32.825 -24.566 -13.007  0.00  0.00    -0.246 OA
ATOM      2  O   UNL     1      32.460 -23.040 -18.068  0.00  0.00    -0.208 OA
ATOM      3  N   UNL     1      34.714 -23.678 -14.176  0.00  0.00    -0.244 N 
ATOM      4  N   UNL     1      32.755 -23.856 -15.272  0.00  0.00    -0.294 N 
ATOM      5  N   UNL     1      35.958 -22.711 -16.130  0.00  0.00    -0.260 N 
ATOM      6  N   UNL     1      34.687 -22.413 -18.123  0.00  0.00    -0.301 NA
ATOM      7  N   UNL     1      36.966 -21.830 -18.006  0.00  0.00    -0.320 N 
ATOM      8  C   UNL     1      34.880 -23.217 -15.466  0.00  0.00    +0.149 A 
ATOM      9  C   UNL     1      33.358 -24.101 -14.003  0.00  0.00    +0.331 A 
ATOM     10  C   UNL     1      33.704 -23.332 -16.098  0.00  0.00    +0.187 A 
ATOM     11  C   UNL     1      33.546 -22.922 -17.508  0.00  0.00    +0.226 C 
ATOM     12  C   UNL     1      35.815 -22.323 -17.450  0.00  0.00    +0.249 C 
ATOM     13  H   UNL     1      31.816 -24.034 -15.510  0.00  0.00    +0.171 HD
ATOM     14  H   UNL     1      36.826 -22.623 -15.676  0.00  0.00    +0.157 HD
ATOM     15  H   UNL     1      37.790 -21.780 -17.469  0.00  0.00    +0.146 HD
ATOM     16  H   UNL     1      36.971 -21.526 -18.942  0.00  0.00    +0.146 HD
ENDROOT
BRANCH   3  18
ATOM     17  O4* UNL     1      36.945 -23.162 -13.696  0.00  0.00    -0.333 OA
ATOM     18  C1* UNL     1      35.734 -23.725 -13.171  0.00  0.00    +0.212 C 
ATOM     19  C2* UNL     1      36.053 -25.142 -12.720  0.00  0.00    +0.086 C 
ATOM     20  C3* UNL     1      37.527 -25.060 -12.399  0.00  0.00    +0.145 C 
ATOM     21  C4* UNL     1      38.044 -24.049 -13.413  0.00  0.00    +0.173 C 
BRANCH  20  22
ATOM     22  O3* UNL     1      37.704 -24.554 -11.078  0.00  0.00    -0.382 OA
ATOM     23  H3* UNL     1      36.847 -24.273 -10.722  0.00  0.00    +0.210 HD
ENDBRANCH  20  22
BRANCH  21  24
ATOM     24  C5* UNL     1      38.475 -24.693 -14.725  0.00  0.00    +0.169 C 
BRANCH  24  25
ATOM     25  O5* UNL     1      38.612 -23.682 -15.710  0.00  0.00    -0.379 OA
ATOM     26  H5* UNL     1      37.737 -23.331 -15.938  0.00  0.00    +0.211 HD
ENDBRANCH  24  25
ENDBRANCH  21  24
ENDBRANCH   3  18
TORSDOF 4
ENDMDL
MODEL 4
REMARK VINA RESULT:      -8.0      1.894      2.664
REMARK  Name = 73318
REMARK  4 active torsions:
REMARK  status: ('A' for Active; 'I' for Inactive)
REMARK    1  A    between atoms: N_3  and  C1*_18
REMARK    2  A    between atoms: C3*_20  and  O3*_22
REMARK    3  A    between atoms: C4*_21  and  C5*_24
REMARK    4  A    between atoms: C5*_24  and  O5*_25
REMARK                            x       y       z     vdW  Elec       q    Type
REMARK                         _______ _______ _______ _____ _____    ______ ____
ROOT
ATOM      1  O   UNL     1      36.560 -23.454 -15.744  0.00  0.00    -0.246 OA
ATOM      2  O   UNL     1      31.611 -22.519 -17.387  0.00  0.00    -0.208 OA
ATOM      3  N   UNL     1      34.672 -24.314 -14.552  0.00  0.00    -0.244 N 
ATOM      4  N   UNL     1      34.310 -23.088 -16.406  0.00  0.00    -0.294 N 
ATOM      5  N   UNL     1      32.238 -24.709 -14.085  0.00  0.00    -0.260 N 
ATOM      6  N   UNL     1      30.713 -23.729 -15.631  0.00  0.00    -0.301 NA
ATOM      7  N   UNL     1      29.969 -24.990 -13.785  0.00  0.00    -0.320 N 
ATOM      8  C   UNL     1      33.312 -24.218 -14.765  0.00  0.00    +0.149 A 
ATOM      9  C   UNL     1      35.358 -23.600 -15.586  0.00  0.00    +0.331 A 
ATOM     10  C   UNL     1      33.120 -23.486 -15.871  0.00  0.00    +0.187 A 
ATOM     11  C   UNL     1      31.763 -23.195 -16.374  0.00  0.00    +0.226 C 
ATOM     12  C   UNL     1      30.964 -24.441 -14.553  0.00  0.00    +0.249 C 
ATOM     13  H   UNL     1      34.424 -22.541 -17.216  0.00  0.00    +0.171 HD
ATOM     14  H   UNL     1      32.367 -25.247 -13.271  0.00  0.00    +0.157 HD
ATOM     15  H   UNL     1      30.199 -25.517 -12.985  0.00  0.00    +0.146 HD
ATOM     16  H   UNL     1      29.026 -24.858 -14.033  0.00  0.00    +0.146 HD
ENDROOT
BRANCH   3  18
ATOM     17  O4* UNL     1      35.355 -24.161 -12.319  0.00  0.00    -0.333 OA
ATOM     18  C1* UNL     1      35.298 -25.016 -13.470  0.00  0.00    +0.212 C 
ATOM     19  C2* UNL     1      36.723 -25.441 -13.789  0.00  0.00    +0.086 C 
ATOM     20  C3* UNL     1      37.399 -25.357 -12.440  0.00  0.00    +0.145 C 
ATOM     21  C4* UNL     1      36.686 -24.190 -11.770  0.00  0.00    +0.173 C 
BRANCH  20  22
ATOM     22  O3* UNL     1      37.160 -26.556 -11.707  0.00  0.00    -0.382 OA
ATOM     23  H3* UNL     1      36.607 -26.359 -10.935  0.00  0.00    +0.210 HD
ENDBRANCH  20  22
BRANCH  21  24
ATOM     24  C5* UNL     1      37.343 -22.847 -12.062  0.00  0.00    +0.169 C 
BRANCH  24  25
ATOM     25  O5* UNL     1      38.706 -22.909 -11.675  0.00  0.00    -0.379 OA
ATOM     26  H5* UNL     1      38.892 -22.210 -11.030  0.00  0.00    +0.211 HD
ENDBRANCH  24  25
ENDBRANCH  21  24
ENDBRANCH   3  18
TORSDOF 4
ENDMDL
MODEL 5
REMARK VINA RESULT:      -7.9      9.212     11.670
REMARK  Name = 73318
REMARK  4 active torsions:
REMARK  status: ('A' for Active; 'I' for Inactive)
REMARK    1  A    between atoms: N_3  and  C1*_18
REMARK    2  A    between atoms: C3*_20  and  O3*_22
REMARK    3  A    between atoms: C4*_21  and  C5*_24
REMARK    4  A    between atoms: C5*_24  and  O5*_25
REMARK                            x       y       z     vdW  Elec       q    Type
REMARK                         _______ _______ _______ _____ _____    ______ ____
ROOT
ATOM      1  O   UNL     1      33.408 -15.317 -26.647  0.00  0.00    -0.246 OA
ATOM      2  O   UNL     1      34.983 -19.996 -24.725  0.00  0.00    -0.208 OA
ATOM      3  N   UNL     1      34.066 -15.563 -24.361  0.00  0.00    -0.244 N 
ATOM      4  N   UNL     1      34.128 -17.372 -25.700  0.00  0.00    -0.294 N 
ATOM      5  N   UNL     1      34.883 -16.783 -22.325  0.00  0.00    -0.260 N 
ATOM      6  N   UNL     1      35.339 -19.103 -22.621  0.00  0.00    -0.301 NA
ATOM      7  N   UNL     1      35.643 -18.034 -20.544  0.00  0.00    -0.320 N 
ATOM      8  C   UNL     1      34.508 -16.646 -23.628  0.00  0.00    +0.149 A 
ATOM      9  C   UNL     1      33.808 -15.982 -25.704  0.00  0.00    +0.331 A 
ATOM     10  C   UNL     1      34.537 -17.709 -24.444  0.00  0.00    +0.187 A 
ATOM     11  C   UNL     1      34.968 -19.036 -23.962  0.00  0.00    +0.226 C 
ATOM     12  C   UNL     1      35.290 -18.024 -21.868  0.00  0.00    +0.249 C 
ATOM     13  H   UNL     1      34.065 -17.982 -26.470  0.00  0.00    +0.171 HD
ATOM     14  H   UNL     1      34.864 -16.010 -21.718  0.00  0.00    +0.157 HD
ATOM     15  H   UNL     1      35.592 -17.205 -20.015  0.00  0.00    +0.146 HD
ATOM     16  H   UNL     1      35.947 -18.869 -20.121  0.00  0.00    +0.146 HD
ENDROOT
BRANCH   3  18
ATOM     17  O4* UNL     1      34.362 -14.172 -22.502  0.00  0.00    -0.333 OA
ATOM     18  C1* UNL     1      33.893 -14.232 -23.857  0.00  0.00    +0.212 C 
ATOM     19  C2* UNL     1      32.439 -13.787 -23.852  0.00  0.00    +0.086 C 
ATOM     20  C3* UNL     1      32.377 -12.883 -22.643  0.00  0.00    +0.145 C 
ATOM     21  C4* UNL     1      33.371 -13.523 -21.684  0.00  0.00    +0.173 C 
BRANCH  20  22
ATOM     22  O3* UNL     1      32.820 -11.575 -22.999  0.00  0.00    -0.382 OA
ATOM     23  H3* UNL     1      33.789 -11.561 -23.035  0.00  0.00    +0.210 HD
ENDBRANCH  20  22
BRANCH  21  24
ATOM     24  C5* UNL     1      32.735 -14.580 -20.791  0.00  0.00    +0.169 C 
BRANCH  24  25
ATOM     25  O5* UNL     1      33.762 -15.352 -20.190  0.00  0.00    -0.379 OA
ATOM     26  H5* UNL     1      33.710 -15.267 -19.226  0.00  0.00    +0.211 HD
ENDBRANCH  24  25
ENDBRANCH  21  24
ENDBRANCH   3  18
TORSDOF 4
ENDMDL
MODEL 6
REMARK VINA RESULT:      -7.8      1.389      2.069
REMARK  Name = 73318
REMARK  4 active torsions:
REMARK  status: ('A' for Active; 'I' for Inactive)
REMARK    1  A    between atoms: N_3  and  C1*_18
REMARK    2  A    between atoms: C3*_20  and  O3*_22
REMARK    3  A    between atoms: C4*_21  and  C5*_24
REMARK    4  A    between atoms: C5*_24  and  O5*_25
REMARK                            x       y       z     vdW  Elec       q    Type
REMARK                         _______ _______ _______ _____ _____    ______ ____
ROOT
ATOM      1  O   UNL     1      34.981 -22.922 -17.520  0.00  0.00    -0.246 OA
ATOM      2  O   UNL     1      29.705 -22.909 -17.036  0.00  0.00    -0.208 OA
ATOM      3  N   UNL     1      33.915 -23.686 -15.519  0.00  0.00    -0.244 N 
ATOM      4  N   UNL     1      32.627 -22.954 -17.214  0.00  0.00    -0.294 N 
ATOM      5  N   UNL     1      31.985 -24.221 -14.007  0.00  0.00    -0.260 N 
ATOM      6  N   UNL     1      29.818 -23.781 -14.896  0.00  0.00    -0.301 NA
ATOM      7  N   UNL     1      30.115 -24.665 -12.732  0.00  0.00    -0.320 N 
ATOM      8  C   UNL     1      32.589 -23.785 -15.147  0.00  0.00    +0.149 A 
ATOM      9  C   UNL     1      33.989 -23.155 -16.845  0.00  0.00    +0.331 A 
ATOM     10  C   UNL     1      31.843 -23.345 -16.169  0.00  0.00    +0.187 A 
ATOM     11  C   UNL     1      30.369 -23.319 -16.089  0.00  0.00    +0.226 C 
ATOM     12  C   UNL     1      30.603 -24.201 -13.927  0.00  0.00    +0.249 C 
ATOM     13  H   UNL     1      32.307 -22.595 -18.073  0.00  0.00    +0.171 HD
ATOM     14  H   UNL     1      32.523 -24.545 -13.250  0.00  0.00    +0.157 HD
ATOM     15  H   UNL     1      30.736 -24.971 -12.032  0.00  0.00    +0.146 HD
ATOM     16  H   UNL     1      29.144 -24.693 -12.575  0.00  0.00    +0.146 HD
ENDROOT
BRANCH   3  18
ATOM     17  O4* UNL     1      35.898 -22.921 -14.540  0.00  0.00    -0.333 OA
ATOM     18  C1* UNL     1      35.037 -24.056 -14.707  0.00  0.00    +0.212 C 
ATOM     19  C2* UNL     1      35.870 -25.169 -15.324  0.00  0.00    +0.086 C 
ATOM     20  C3* UNL     1      37.266 -24.832 -14.853  0.00  0.00    +0.145 C 
ATOM     21  C4* UNL     1      37.258 -23.310 -14.813  0.00  0.00    +0.173 C 
BRANCH  20  22
ATOM     22  O3* UNL     1      37.468 -25.351 -13.541  0.00  0.00    -0.382 OA
ATOM     23  H3* UNL     1      38.193 -25.995 -13.557  0.00  0.00    +0.210 HD
ENDBRANCH  20  22
BRANCH  21  24
ATOM     24  C5* UNL     1      37.669 -22.680 -16.137  0.00  0.00    +0.169 C 
BRANCH  24  25
ATOM     25  O5* UNL     1      37.099 -21.384 -16.226  0.00  0.00    -0.379 OA
ATOM     26  H5* UNL     1      36.561 -21.212 -15.438  0.00  0.00    +0.211 HD
ENDBRANCH  24  25
ENDBRANCH  21  24
ENDBRANCH   3  18
TORSDOF 4
ENDMDL
MODEL 7
REMARK VINA RESULT:      -7.8      1.866      5.653
REMARK  Name = 73318
REMARK  4 active torsions:
REMARK  status: ('A' for Active; 'I' for Inactive)
REMARK    1  A    between atoms: N_3  and  C1*_18
REMARK    2  A    between atoms: C3*_20  and  O3*_22
REMARK    3  A    between atoms: C4*_21  and  C5*_24
REMARK    4  A    between atoms: C5*_24  and  O5*_25
REMARK                            x       y       z     vdW  Elec       q    Type
REMARK                         _______ _______ _______ _____ _____    ______ ____
ROOT
ATOM      1  O   UNL     1      33.841 -24.264 -12.543  0.00  0.00    -0.246 OA
ATOM      2  O   UNL     1      36.996 -22.089 -16.201  0.00  0.00    -0.208 OA
ATOM      3  N   UNL     1      33.119 -24.001 -14.809  0.00  0.00    -0.244 N 
ATOM      4  N   UNL     1      35.185 -23.303 -14.248  0.00  0.00    -0.294 N 
ATOM      5  N   UNL     1      33.319 -23.331 -17.219  0.00  0.00    -0.260 N 
ATOM      6  N   UNL     1      35.393 -22.340 -17.850  0.00  0.00    -0.301 NA
ATOM      7  N   UNL     1      33.650 -22.667 -19.402  0.00  0.00    -0.320 N 
ATOM      8  C   UNL     1      33.733 -23.479 -15.929  0.00  0.00    +0.149 A 
ATOM      9  C   UNL     1      34.017 -23.909 -13.699  0.00  0.00    +0.331 A 
ATOM     10  C   UNL     1      34.959 -23.071 -15.572  0.00  0.00    +0.187 A 
ATOM     11  C   UNL     1      35.880 -22.459 -16.551  0.00  0.00    +0.226 C 
ATOM     12  C   UNL     1      34.179 -22.760 -18.141  0.00  0.00    +0.249 C 
ATOM     13  H   UNL     1      36.011 -23.089 -13.757  0.00  0.00    +0.171 HD
ATOM     14  H   UNL     1      32.422 -23.626 -17.491  0.00  0.00    +0.157 HD
ATOM     15  H   UNL     1      32.738 -22.992 -19.578  0.00  0.00    +0.146 HD
ATOM     16  H   UNL     1      34.182 -22.275 -20.132  0.00  0.00    +0.146 HD
ENDROOT
BRANCH   3  18
ATOM     17  O4* UNL     1      31.197 -24.453 -16.065  0.00  0.00    -0.333 OA
ATOM     18  C1* UNL     1      31.794 -24.547 -14.764  0.00  0.00    +0.212 C 
ATOM     19  C2* UNL     1      30.884 -23.809 -13.794  0.00  0.00    +0.086 C 
ATOM     20  C3* UNL     1      29.533 -23.925 -14.461  0.00  0.00    +0.145 C 
ATOM     21  C4* UNL     1      29.876 -23.891 -15.944  0.00  0.00    +0.173 C 
BRANCH  20  22
ATOM     22  O3* UNL     1      28.940 -25.178 -14.129  0.00  0.00    -0.382 OA
ATOM     23  H3* UNL     1      28.034 -25.033 -13.814  0.00  0.00    +0.210 HD
ENDBRANCH  20  22
BRANCH  21  24
ATOM     24  C5* UNL     1      29.915 -22.478 -16.511  0.00  0.00    +0.169 C 
BRANCH  24  25
ATOM     25  O5* UNL     1      28.620 -22.135 -16.977  0.00  0.00    -0.379 OA
ATOM     26  H5* UNL     1      28.603 -21.198 -17.226  0.00  0.00    +0.211 HD
ENDBRANCH  24  25
ENDBRANCH  21  24
ENDBRANCH   3  18
TORSDOF 4
ENDMDL
MODEL 8
REMARK VINA RESULT:      -7.7     13.809     16.181
REMARK  Name = 73318
REMARK  4 active torsions:
REMARK  status: ('A' for Active; 'I' for Inactive)
REMARK    1  A    between atoms: N_3  and  C1*_18
REMARK    2  A    between atoms: C3*_20  and  O3*_22
REMARK    3  A    between atoms: C4*_21  and  C5*_24
REMARK    4  A    between atoms: C5*_24  and  O5*_25
REMARK                            x       y       z     vdW  Elec       q    Type
REMARK                         _______ _______ _______ _____ _____    ______ ____
ROOT
ATOM      1  O   UNL     1      30.324 -11.113 -20.427  0.00  0.00    -0.246 OA
ATOM      2  O   UNL     1      33.032 -14.404 -23.574  0.00  0.00    -0.208 OA
ATOM      3  N   UNL     1      31.811 -10.282 -22.107  0.00  0.00    -0.244 N 
ATOM      4  N   UNL     1      31.576 -12.510 -21.882  0.00  0.00    -0.294 N 
ATOM      5  N   UNL     1      33.460 -10.437 -23.993  0.00  0.00    -0.260 N 
ATOM      6  N   UNL     1      34.032 -12.642 -24.691  0.00  0.00    -0.301 NA
ATOM      7  N   UNL     1      34.961 -10.736 -25.717  0.00  0.00    -0.320 N 
ATOM      8  C   UNL     1      32.614 -10.913 -23.036  0.00  0.00    +0.149 A 
ATOM      9  C   UNL     1      31.121 -11.273 -21.339  0.00  0.00    +0.331 A 
ATOM     10  C   UNL     1      32.458 -12.235 -22.884  0.00  0.00    +0.187 A 
ATOM     11  C   UNL     1      33.187 -13.197 -23.733  0.00  0.00    +0.226 C 
ATOM     12  C   UNL     1      34.144 -11.335 -24.794  0.00  0.00    +0.249 C 
ATOM     13  H   UNL     1      31.301 -13.408 -21.585  0.00  0.00    +0.171 HD
ATOM     14  H   UNL     1      33.582  -9.469 -24.113  0.00  0.00    +0.157 HD
ATOM     15  H   UNL     1      35.017  -9.753 -25.761  0.00  0.00    +0.146 HD
ATOM     16  H   UNL     1      35.492 -11.286 -26.336  0.00  0.00    +0.146 HD
ENDROOT
BRANCH   3  18
ATOM     17  O4* UNL     1      32.196  -8.201 -23.105  0.00  0.00    -0.333 OA
ATOM     18  C1* UNL     1      31.687  -8.864 -21.939  0.00  0.00    +0.212 C 
ATOM     19  C2* UNL     1      32.470  -8.342 -20.744  0.00  0.00    +0.086 C 
ATOM     20  C3* UNL     1      32.890  -6.965 -21.205  0.00  0.00    +0.145 C 
ATOM     21  C4* UNL     1      33.094  -7.150 -22.702  0.00  0.00    +0.173 C 
BRANCH  20  22
ATOM     22  O3* UNL     1      31.833  -6.038 -20.971  0.00  0.00    -0.382 OA
ATOM     23  H3* UNL     1      31.671  -5.522 -21.777  0.00  0.00    +0.210 HD
ENDBRANCH  20  22
BRANCH  21  24
ATOM     24  C5* UNL     1      34.511  -7.583 -23.058  0.00  0.00    +0.169 C 
BRANCH  24  25
ATOM     25  O5* UNL     1      34.575  -7.842 -24.451  0.00  0.00    -0.379 OA
ATOM     26  H5* UNL     1      34.758  -7.018 -24.926  0.00  0.00    +0.211 HD
ENDBRANCH  24  25
ENDBRANCH  21  24
ENDBRANCH   3  18
TORSDOF 4
ENDMDL
MODEL 9
REMARK VINA RESULT:      -7.7      1.589      3.703
REMARK  Name = 73318
REMARK  4 active torsions:
REMARK  status: ('A' for Active; 'I' for Inactive)
REMARK    1  A    between atoms: N_3  and  C1*_18
REMARK    2  A    between atoms: C3*_20  and  O3*_22
REMARK    3  A    between atoms: C4*_21  and  C5*_24
REMARK    4  A    between atoms: C5*_24  and  O5*_25
REMARK                            x       y       z     vdW  Elec       q    Type
REMARK                         _______ _______ _______ _____ _____    ______ ____
ROOT
ATOM      1  O   UNL     1      32.751 -24.665 -12.835  0.00  0.00    -0.246 OA
ATOM      2  O   UNL     1      30.562 -22.697 -17.240  0.00  0.00    -0.208 OA
ATOM      3  N   UNL     1      34.096 -23.980 -14.691  0.00  0.00    -0.244 N 
ATOM      4  N   UNL     1      31.859 -23.772 -14.846  0.00  0.00    -0.294 N 
ATOM      5  N   UNL     1      34.549 -23.057 -16.981  0.00  0.00    -0.260 N 
ATOM      6  N   UNL     1      32.630 -22.410 -18.236  0.00  0.00    -0.301 NA
ATOM      7  N   UNL     1      34.811 -22.189 -19.101  0.00  0.00    -0.320 N 
ATOM      8  C   UNL     1      33.781 -23.446 -15.925  0.00  0.00    +0.149 A 
ATOM      9  C   UNL     1      32.888 -24.207 -13.959  0.00  0.00    +0.331 A 
ATOM     10  C   UNL     1      32.448 -23.332 -15.994  0.00  0.00    +0.187 A 
ATOM     11  C   UNL     1      31.785 -22.790 -17.197  0.00  0.00    +0.226 C 
ATOM     12  C   UNL     1      33.933 -22.546 -18.110  0.00  0.00    +0.249 C 
ATOM     13  H   UNL     1      30.892 -23.787 -14.662  0.00  0.00    +0.171 HD
ATOM     14  H   UNL     1      35.529 -23.137 -16.941  0.00  0.00    +0.157 HD
ATOM     15  H   UNL     1      35.779 -22.307 -18.967  0.00  0.00    +0.146 HD
ATOM     16  H   UNL     1      34.474 -21.814 -19.946  0.00  0.00    +0.146 HD
ENDROOT
BRANCH   3  18
ATOM     17  O4* UNL     1      36.213 -23.068 -14.290  0.00  0.00    -0.333 OA
ATOM     18  C1* UNL     1      35.420 -24.261 -14.219  0.00  0.00    +0.212 C 
ATOM     19  C2* UNL     1      36.127 -25.324 -15.046  0.00  0.00    +0.086 C 
ATOM     20  C3* UNL     1      37.571 -24.887 -14.975  0.00  0.00    +0.145 C 
ATOM     21  C4* UNL     1      37.470 -23.369 -14.927  0.00  0.00    +0.173 C 
BRANCH  20  22
ATOM     22  O3* UNL     1      38.161 -25.371 -13.770  0.00  0.00    -0.382 OA
ATOM     23  H3* UNL     1      37.636 -26.111 -13.428  0.00  0.00    +0.210 HD
ENDBRANCH  20  22
BRANCH  21  24
ATOM     24  C5* UNL     1      37.458 -22.732 -16.311  0.00  0.00    +0.169 C 
BRANCH  24  25
ATOM     25  O5* UNL     1      37.082 -21.370 -16.186  0.00  0.00    -0.379 OA
ATOM     26  H5* UNL     1      36.152 -21.314 -15.916  0.00  0.00    +0.211 HD
ENDBRANCH  24  25
ENDBRANCH  21  24
ENDBRANCH   3  18
TORSDOF 4
ENDMDL
