MODEL 1
REMARK VINA RESULT:     -11.2      0.000      0.000
REMARK  Name = 16113377
REMARK  5 active torsions:
REMARK  status: ('A' for Active; 'I' for Inactive)
REMARK    1  A    between atoms: N_2  and  C_24
REMARK    2  A    between atoms: C_5  and  C_12
REMARK    3  A    between atoms: N_10  and  C_16
REMARK    4  A    between atoms: C_19  and  C_31
REMARK    5  A    between atoms: C_27  and  N_32
REMARK                            x       y       z     vdW  Elec       q    Type
REMARK                         _______ _______ _______ _____ _____    ______ ____
ROOT
ATOM      1  F   UNL     1      32.243  -6.353 -20.418  0.00  0.00    -0.200 F 
ATOM      2  N   UNL     1      31.927 -11.767 -20.759  0.00  0.00    -0.247 N 
ATOM      3  N   UNL     1      32.605  -9.730 -21.705  0.00  0.00    -0.334 NA
ATOM      4  N   UNL     1      31.488  -9.793 -19.569  0.00  0.00    -0.167 NA
ATOM      5  C   UNL     1      32.667  -8.387 -21.590  0.00  0.00    +0.188 C 
ATOM      6  C   UNL     1      32.011 -10.364 -20.674  0.00  0.00    +0.149 C 
ATOM      7  C   UNL     1      32.171  -7.685 -20.512  0.00  0.00    +0.192 C 
ATOM      8  C   UNL     1      31.586  -8.448 -19.521  0.00  0.00    +0.144 C 
ATOM      9  H   UNL     1      31.485 -12.185 -19.984  0.00  0.00    +0.165 HD
ENDROOT
BRANCH   5  12
ATOM     10  N   UNL     1      32.670  -6.870 -23.560  0.00  0.00    -0.274 N 
ATOM     11  N   UNL     1      34.782  -6.959 -24.242  0.00  0.00    -0.232 NA
ATOM     12  C   UNL     1      33.304  -7.720 -22.696  0.00  0.00    +0.105 C 
ATOM     13  C   UNL     1      33.596  -6.439 -24.468  0.00  0.00    +0.113 C 
ATOM     14  C   UNL     1      34.607  -7.759 -23.139  0.00  0.00    +0.117 C 
ATOM     15  C   UNL     1      33.256  -5.500 -25.556  0.00  0.00    +0.069 C 
BRANCH  10  16
ATOM     16  C   UNL     1      31.274  -6.491 -23.522  0.00  0.00    +0.078 C 
ATOM     17  C   UNL     1      31.097  -4.982 -23.340  0.00  0.00    +0.022 C 
ATOM     18  C   UNL     1      30.506  -7.007 -24.739  0.00  0.00    +0.022 C 
ENDBRANCH  10  16
ENDBRANCH   5  12
BRANCH   2  24
ATOM     19  C   UNL     1      33.191 -14.518 -23.661  0.00  0.00    +0.054 C 
ATOM     20  C   UNL     1      33.111 -13.166 -23.979  0.00  0.00    +0.006 C 
ATOM     21  C   UNL     1      32.854 -14.964 -22.386  0.00  0.00    +0.006 C 
ATOM     22  C   UNL     1      32.690 -12.251 -23.014  0.00  0.00    +0.015 C 
ATOM     23  C   UNL     1      32.433 -14.049 -21.422  0.00  0.00    +0.015 C 
ATOM     24  C   UNL     1      32.351 -12.692 -21.735  0.00  0.00    +0.058 C 
BRANCH  19  31
ATOM     25  O   UNL     1      33.506 -15.162 -25.858  0.00  0.00    -0.270 OA
ATOM     26  N   UNL     1      34.179 -16.678 -24.235  0.00  0.00    -0.278 N 
ATOM     27  C   UNL     1      35.394 -18.260 -22.977  0.00  0.00    -0.036 C 
ATOM     28  C   UNL     1      34.957 -18.903 -24.293  0.00  0.00    +0.002 C 
ATOM     29  C   UNL     1      34.427 -17.082 -22.850  0.00  0.00    +0.073 C 
ATOM     30  C   UNL     1      34.660 -17.692 -25.166  0.00  0.00    +0.092 C 
ATOM     31  C   UNL     1      33.637 -15.484 -24.680  0.00  0.00    +0.249 C 
BRANCH  27  32
ATOM     32  N   UNL     1      35.344 -19.175 -21.851  0.00  0.00    +0.387 N 
ATOM     33  C   UNL     1      36.517 -19.005 -20.987  0.00  0.00    -0.101 C 
ATOM     34  C   UNL     1      34.117 -18.981 -21.074  0.00  0.00    -0.101 C 
ATOM     35  H   UNL     1      35.349 -20.125 -22.222  0.00  0.00    -0.080 HD
ENDBRANCH  27  32
ENDBRANCH  19  31
ENDBRANCH   2  24
TORSDOF 5
ENDMDL
MODEL 2
REMARK VINA RESULT:     -10.4      6.739     13.911
REMARK  Name = 16113377
REMARK  5 active torsions:
REMARK  status: ('A' for Active; 'I' for Inactive)
REMARK    1  A    between atoms: N_2  and  C_24
REMARK    2  A    between atoms: C_5  and  C_12
REMARK    3  A    between atoms: N_10  and  C_16
REMARK    4  A    between atoms: C_19  and  C_31
REMARK    5  A    between atoms: C_27  and  N_32
REMARK                            x       y       z     vdW  Elec       q    Type
REMARK                         _______ _______ _______ _____ _____    ______ ____
ROOT
ATOM      1  F   UNL     1      34.541 -24.933 -13.867  0.00  0.00    -0.200 F 
ATOM      2  N   UNL     1      32.552 -22.206 -18.126  0.00  0.00    -0.247 N 
ATOM      3  N   UNL     1      34.412 -22.906 -16.878  0.00  0.00    -0.334 NA
ATOM      4  N   UNL     1      32.176 -23.524 -16.222  0.00  0.00    -0.167 NA
ATOM      5  C   UNL     1      34.874 -23.591 -15.811  0.00  0.00    +0.188 C 
ATOM      6  C   UNL     1      33.071 -22.912 -17.024  0.00  0.00    +0.149 C 
ATOM      7  C   UNL     1      34.063 -24.259 -14.918  0.00  0.00    +0.192 C 
ATOM      8  C   UNL     1      32.708 -24.191 -15.176  0.00  0.00    +0.144 C 
ATOM      9  H   UNL     1      31.570 -22.239 -18.191  0.00  0.00    +0.165 HD
ENDROOT
BRANCH   5  12
ATOM     10  N   UNL     1      37.047 -24.621 -15.179  0.00  0.00    -0.274 N 
ATOM     11  N   UNL     1      38.504 -23.014 -15.655  0.00  0.00    -0.232 NA
ATOM     12  C   UNL     1      36.306 -23.578 -15.666  0.00  0.00    +0.105 C 
ATOM     13  C   UNL     1      38.358 -24.236 -15.193  0.00  0.00    +0.113 C 
ATOM     14  C   UNL     1      37.230 -22.598 -15.951  0.00  0.00    +0.117 C 
ATOM     15  C   UNL     1      39.445 -25.124 -14.732  0.00  0.00    +0.069 C 
BRANCH  10  16
ATOM     16  C   UNL     1      36.539 -25.900 -14.734  0.00  0.00    +0.078 C 
ATOM     17  C   UNL     1      36.746 -26.994 -15.783  0.00  0.00    +0.022 C 
ATOM     18  C   UNL     1      37.115 -26.304 -13.376  0.00  0.00    +0.022 C 
ENDBRANCH  10  16
ENDBRANCH   5  12
BRANCH   2  24
ATOM     19  C   UNL     1      34.366 -19.994 -21.194  0.00  0.00    +0.054 C 
ATOM     20  C   UNL     1      35.128 -20.875 -20.433  0.00  0.00    +0.006 C 
ATOM     21  C   UNL     1      33.005 -19.842 -20.942  0.00  0.00    +0.006 C 
ATOM     22  C   UNL     1      34.525 -21.611 -19.413  0.00  0.00    +0.015 C 
ATOM     23  C   UNL     1      32.402 -20.577 -19.922  0.00  0.00    +0.015 C 
ATOM     24  C   UNL     1      33.162 -21.462 -19.157  0.00  0.00    +0.058 C 
BRANCH  19  31
ATOM     25  O   UNL     1      35.709 -19.833 -23.067  0.00  0.00    -0.270 OA
ATOM     26  N   UNL     1      34.747 -17.857 -22.317  0.00  0.00    -0.278 N 
ATOM     27  C   UNL     1      33.646 -15.776 -22.199  0.00  0.00    -0.036 C 
ATOM     28  C   UNL     1      34.985 -15.589 -22.914  0.00  0.00    +0.002 C 
ATOM     29  C   UNL     1      33.857 -17.089 -21.446  0.00  0.00    +0.073 C 
ATOM     30  C   UNL     1      35.321 -17.008 -23.353  0.00  0.00    +0.092 C 
ATOM     31  C   UNL     1      35.002 -19.219 -22.272  0.00  0.00    +0.249 C 
BRANCH  27  32
ATOM     32  N   UNL     1      33.301 -14.661 -21.336  0.00  0.00    +0.387 N 
ATOM     33  C   UNL     1      32.466 -13.688 -22.049  0.00  0.00    -0.101 C 
ATOM     34  C   UNL     1      32.609 -15.127 -20.131  0.00  0.00    -0.101 C 
ATOM     35  H   UNL     1      34.169 -14.203 -21.058  0.00  0.00    -0.080 HD
ENDBRANCH  27  32
ENDBRANCH  19  31
ENDBRANCH   2  24
TORSDOF 5
ENDMDL
MODEL 3
REMARK VINA RESULT:      -8.6      6.386     13.224
REMARK  Name = 16113377
REMARK  5 active torsions:
REMARK  status: ('A' for Active; 'I' for Inactive)
REMARK    1  A    between atoms: N_2  and  C_24
REMARK    2  A    between atoms: C_5  and  C_12
REMARK    3  A    between atoms: N_10  and  C_16
REMARK    4  A    between atoms: C_19  and  C_31
REMARK    5  A    between atoms: C_27  and  N_32
REMARK                            x       y       z     vdW  Elec       q    Type
REMARK                         _______ _______ _______ _____ _____    ______ ____
ROOT
ATOM      1  F   UNL     1      34.153 -24.513 -14.280  0.00  0.00    -0.200 F 
ATOM      2  N   UNL     1      36.809 -21.766 -18.144  0.00  0.00    -0.247 N 
ATOM      3  N   UNL     1      34.773 -22.505 -17.243  0.00  0.00    -0.334 NA
ATOM      4  N   UNL     1      36.868 -23.059 -16.187  0.00  0.00    -0.167 NA
ATOM      5  C   UNL     1      34.143 -23.195 -16.270  0.00  0.00    +0.188 C 
ATOM      6  C   UNL     1      36.118 -22.477 -17.144  0.00  0.00    +0.149 C 
ATOM      7  C   UNL     1      34.796 -23.834 -15.236  0.00  0.00    +0.192 C 
ATOM      8  C   UNL     1      36.173 -23.731 -15.246  0.00  0.00    +0.144 C 
ATOM      9  H   UNL     1      37.788 -21.774 -18.031  0.00  0.00    +0.165 HD
ENDROOT
BRANCH   5  12
ATOM     10  N   UNL     1      31.852 -23.520 -15.360  0.00  0.00    -0.274 N 
ATOM     11  N   UNL     1      30.565 -23.106 -17.123  0.00  0.00    -0.232 NA
ATOM     12  C   UNL     1      32.709 -23.219 -16.384  0.00  0.00    +0.105 C 
ATOM     13  C   UNL     1      30.579 -23.438 -15.851  0.00  0.00    +0.113 C 
ATOM     14  C   UNL     1      31.889 -22.968 -17.461  0.00  0.00    +0.117 C 
ATOM     15  C   UNL     1      29.392 -23.702 -15.011  0.00  0.00    +0.069 C 
BRANCH  10  16
ATOM     16  C   UNL     1      32.222 -23.860 -14.004  0.00  0.00    +0.078 C 
ATOM     17  C   UNL     1      31.930 -22.718 -13.028  0.00  0.00    +0.022 C 
ATOM     18  C   UNL     1      31.581 -25.171 -13.546  0.00  0.00    +0.022 C 
ENDBRANCH  10  16
ENDBRANCH   5  12
BRANCH   2  24
ATOM     19  C   UNL     1      35.524 -19.623 -21.513  0.00  0.00    +0.054 C 
ATOM     20  C   UNL     1      36.809 -19.426 -21.018  0.00  0.00    +0.006 C 
ATOM     21  C   UNL     1      34.662 -20.526 -20.897  0.00  0.00    +0.006 C 
ATOM     22  C   UNL     1      37.236 -20.139 -19.897  0.00  0.00    +0.015 C 
ATOM     23  C   UNL     1      35.089 -21.238 -19.777  0.00  0.00    +0.015 C 
ATOM     24  C   UNL     1      36.377 -21.045 -19.276  0.00  0.00    +0.058 C 
BRANCH  19  31
ATOM     25  O   UNL     1      35.189 -19.419 -23.790  0.00  0.00    -0.270 OA
ATOM     26  N   UNL     1      34.541 -17.610 -22.488  0.00  0.00    -0.278 N 
ATOM     27  C   UNL     1      33.348 -15.804 -21.553  0.00  0.00    -0.036 C 
ATOM     28  C   UNL     1      33.775 -15.434 -22.973  0.00  0.00    +0.002 C 
ATOM     29  C   UNL     1      34.310 -16.942 -21.207  0.00  0.00    +0.073 C 
ATOM     30  C   UNL     1      34.056 -16.794 -23.595  0.00  0.00    +0.092 C 
ATOM     31  C   UNL     1      35.073 -18.872 -22.696  0.00  0.00    +0.249 C 
BRANCH  27  32
ATOM     32  N   UNL     1      33.415 -14.687 -20.628  0.00  0.00    +0.387 N 
ATOM     33  C   UNL     1      34.788 -14.182 -20.517  0.00  0.00    -0.101 C 
ATOM     34  C   UNL     1      32.516 -13.607 -21.046  0.00  0.00    -0.101 C 
ATOM     35  H   UNL     1      33.118 -15.023 -19.712  0.00  0.00    -0.080 HD
ENDBRANCH  27  32
ENDBRANCH  19  31
ENDBRANCH   2  24
TORSDOF 5
ENDMDL
MODEL 4
REMARK VINA RESULT:      -8.3      3.025      4.567
REMARK  Name = 16113377
REMARK  5 active torsions:
REMARK  status: ('A' for Active; 'I' for Inactive)
REMARK    1  A    between atoms: N_2  and  C_24
REMARK    2  A    between atoms: C_5  and  C_12
REMARK    3  A    between atoms: N_10  and  C_16
REMARK    4  A    between atoms: C_19  and  C_31
REMARK    5  A    between atoms: C_27  and  N_32
REMARK                            x       y       z     vdW  Elec       q    Type
REMARK                         _______ _______ _______ _____ _____    ______ ____
ROOT
ATOM      1  F   UNL     1      31.700  -9.153 -23.523  0.00  0.00    -0.200 F 
ATOM      2  N   UNL     1      32.195 -13.983 -21.083  0.00  0.00    -0.247 N 
ATOM      3  N   UNL     1      32.992 -12.435 -22.656  0.00  0.00    -0.334 NA
ATOM      4  N   UNL     1      31.040 -11.955 -21.324  0.00  0.00    -0.167 NA
ATOM      5  C   UNL     1      32.841 -11.229 -23.243  0.00  0.00    +0.188 C 
ATOM      6  C   UNL     1      32.070 -12.732 -21.717  0.00  0.00    +0.149 C 
ATOM      7  C   UNL     1      31.831 -10.344 -22.929  0.00  0.00    +0.192 C 
ATOM      8  C   UNL     1      30.951 -10.764 -21.952  0.00  0.00    +0.144 C 
ATOM      9  H   UNL     1      31.500 -14.156 -20.407  0.00  0.00    +0.165 HD
ENDROOT
BRANCH   5  12
ATOM     10  N   UNL     1      33.995 -11.612 -25.411  0.00  0.00    -0.274 N 
ATOM     11  N   UNL     1      35.530 -10.007 -25.436  0.00  0.00    -0.232 NA
ATOM     12  C   UNL     1      33.830 -10.921 -24.241  0.00  0.00    +0.105 C 
ATOM     13  C   UNL     1      35.024 -11.027 -26.094  0.00  0.00    +0.113 C 
ATOM     14  C   UNL     1      34.791  -9.936 -24.282  0.00  0.00    +0.117 C 
ATOM     15  C   UNL     1      35.478 -11.520 -27.410  0.00  0.00    +0.069 C 
BRANCH  10  16
ATOM     16  C   UNL     1      33.222 -12.753 -25.850  0.00  0.00    +0.078 C 
ATOM     17  C   UNL     1      32.959 -12.720 -27.357  0.00  0.00    +0.022 C 
ATOM     18  C   UNL     1      33.854 -14.076 -25.416  0.00  0.00    +0.022 C 
ENDBRANCH  10  16
ENDBRANCH   5  12
BRANCH   2  24
ATOM     19  C   UNL     1      34.945 -17.123 -21.506  0.00  0.00    +0.054 C 
ATOM     20  C   UNL     1      34.962 -16.339 -20.356  0.00  0.00    +0.006 C 
ATOM     21  C   UNL     1      34.022 -16.870 -22.517  0.00  0.00    +0.006 C 
ATOM     22  C   UNL     1      34.048 -15.294 -20.216  0.00  0.00    +0.015 C 
ATOM     23  C   UNL     1      33.108 -15.827 -22.376  0.00  0.00    +0.015 C 
ATOM     24  C   UNL     1      33.121 -15.038 -21.225  0.00  0.00    +0.058 C 
BRANCH  19  31
ATOM     25  O   UNL     1      36.971 -17.975 -22.220  0.00  0.00    -0.270 OA
ATOM     26  N   UNL     1      35.555 -19.459 -21.133  0.00  0.00    -0.278 N 
ATOM     27  C   UNL     1      34.677 -21.130 -19.720  0.00  0.00    -0.036 C 
ATOM     28  C   UNL     1      35.604 -21.784 -20.745  0.00  0.00    +0.002 C 
ATOM     29  C   UNL     1      34.342 -19.795 -20.386  0.00  0.00    +0.073 C 
ATOM     30  C   UNL     1      36.448 -20.608 -21.219  0.00  0.00    +0.092 C 
ATOM     31  C   UNL     1      35.910 -18.225 -21.653  0.00  0.00    +0.249 C 
BRANCH  27  32
ATOM     32  N   UNL     1      33.508 -21.935 -19.415  0.00  0.00    +0.387 N 
ATOM     33  C   UNL     1      33.747 -22.777 -18.238  0.00  0.00    -0.101 C 
ATOM     34  C   UNL     1      32.332 -21.087 -19.194  0.00  0.00    -0.101 C 
ATOM     35  H   UNL     1      33.329 -22.540 -20.216  0.00  0.00    -0.080 HD
ENDBRANCH  27  32
ENDBRANCH  19  31
ENDBRANCH   2  24
TORSDOF 5
ENDMDL
