MODEL 1
REMARK VINA RESULT:     -11.3      0.000      0.000
REMARK  Name = 447018
REMARK  6 active torsions:
REMARK  status: ('A' for Active; 'I' for Inactive)
REMARK    1  A    between atoms: N_2  and  C_20
REMARK    2  A    between atoms: C_3  and  C_5
REMARK    3  A    between atoms: C_6  and  C_14
REMARK    4  A    between atoms: C_8  and  N_11
REMARK    5  A    between atoms: C_14  and  N_16
REMARK    6  A    between atoms: C_20  and  C_22
REMARK                            x       y       z     vdW  Elec       q    Type
REMARK                         _______ _______ _______ _____ _____    ______ ____
ROOT
ATOM      1  O   UNL     1      33.685 -16.111 -25.375  0.00  0.00    -0.270 OA
ATOM      2  N   UNL     1      34.789 -17.050 -23.550  0.00  0.00    -0.269 N 
ATOM      3  C   UNL     1      33.991 -16.098 -24.184  0.00  0.00    +0.249 C 
ATOM      4  C   UNL     1      35.329 -18.165 -24.309  0.00  0.00    +0.116 C 
ENDROOT
BRANCH   3   5
ATOM      5  C   UNL     1      33.446 -14.991 -23.384  0.00  0.00    +0.053 C 
ATOM      6  C   UNL     1      32.978 -12.650 -23.127  0.00  0.00    +0.011 C 
ATOM      7  C   UNL     1      33.495 -13.700 -23.886  0.00  0.00    +0.003 C 
ATOM      8  C   UNL     1      32.419 -12.904 -21.875  0.00  0.00    +0.039 C 
ATOM      9  C   UNL     1      32.892 -15.259 -22.141  0.00  0.00    +0.006 C 
ATOM     10  C   UNL     1      32.376 -14.209 -21.382  0.00  0.00    +0.014 C 
BRANCH   8  11
ATOM     11  N   UNL     1      31.891 -11.854 -21.092  0.00  0.00    -0.357 N 
ATOM     12  H   UNL     1      30.962 -11.900 -20.770  0.00  0.00    +0.142 HD
ATOM     13  H   UNL     1      32.452 -11.076 -20.868  0.00  0.00    +0.142 HD
ENDBRANCH   8  11
BRANCH   6  14
ATOM     14  C   UNL     1      33.037 -11.263 -23.679  0.00  0.00    +0.121 C 
BRANCH  14  16
ATOM     15  O   UNL     1      35.296  -9.516 -24.023  0.00  0.00    -0.275 OA
ATOM     16  N   UNL     1      33.899 -11.172 -24.858  0.00  0.00    -0.274 N 
ATOM     17  C   UNL     1      33.552 -12.070 -25.951  0.00  0.00    +0.115 C 
ATOM     18  C   UNL     1      34.974 -10.289 -24.929  0.00  0.00    +0.226 C 
ATOM     19  C   UNL     1      35.779 -10.301 -26.205  0.00  0.00    +0.095 C 
ENDBRANCH  14  16
ENDBRANCH   6  14
ENDBRANCH   3   5
BRANCH   2  20
ATOM     20  C   UNL     1      35.150 -17.024 -22.126  0.00  0.00    +0.135 C 
BRANCH  20  22
ATOM     21  N   UNL     1      35.790 -19.172 -21.033  0.00  0.00    -0.287 N 
ATOM     22  C   UNL     1      34.825 -18.285 -21.427  0.00  0.00    +0.049 C 
ATOM     23  C   UNL     1      35.212 -20.256 -20.409  0.00  0.00    +0.051 C 
ATOM     24  C   UNL     1      33.833 -20.044 -20.411  0.00  0.00    +0.015 C 
ATOM     25  C   UNL     1      33.603 -18.796 -21.056  0.00  0.00    +0.013 C 
ATOM     26  C   UNL     1      37.213 -18.997 -21.237  0.00  0.00    +0.117 C 
ATOM     27  C   UNL     1      35.801 -21.396 -19.850  0.00  0.00    +0.015 C 
ATOM     28  C   UNL     1      32.996 -21.015 -19.827  0.00  0.00    +0.001 C 
ATOM     29  C   UNL     1      34.952 -22.347 -19.277  0.00  0.00    +0.001 C 
ATOM     30  C   UNL     1      33.571 -22.161 -19.263  0.00  0.00    +0.000 C 
ENDBRANCH  20  22
ENDBRANCH   2  20
TORSDOF 6
ENDMDL
MODEL 2
REMARK VINA RESULT:     -11.2      2.280      4.638
REMARK  Name = 447018
REMARK  6 active torsions:
REMARK  status: ('A' for Active; 'I' for Inactive)
REMARK    1  A    between atoms: N_2  and  C_20
REMARK    2  A    between atoms: C_3  and  C_5
REMARK    3  A    between atoms: C_6  and  C_14
REMARK    4  A    between atoms: C_8  and  N_11
REMARK    5  A    between atoms: C_14  and  N_16
REMARK    6  A    between atoms: C_20  and  C_22
REMARK                            x       y       z     vdW  Elec       q    Type
REMARK                         _______ _______ _______ _____ _____    ______ ____
ROOT
ATOM      1  O   UNL     1      33.442 -12.360 -26.887  0.00  0.00    -0.270 OA
ATOM      2  N   UNL     1      33.573 -13.666 -24.961  0.00  0.00    -0.269 N 
ATOM      3  C   UNL     1      33.581 -12.465 -25.669  0.00  0.00    +0.249 C 
ATOM      4  C   UNL     1      33.392 -14.923 -25.668  0.00  0.00    +0.116 C 
ENDROOT
BRANCH   3   5
ATOM      5  C   UNL     1      33.749 -11.209 -24.922  0.00  0.00    +0.053 C 
ATOM      6  C   UNL     1      32.867  -9.547 -23.430  0.00  0.00    +0.011 C 
ATOM      7  C   UNL     1      32.707 -10.738 -24.137  0.00  0.00    +0.003 C 
ATOM      8  C   UNL     1      34.066  -8.840 -23.516  0.00  0.00    +0.039 C 
ATOM      9  C   UNL     1      34.947 -10.517 -25.017  0.00  0.00    +0.006 C 
ATOM     10  C   UNL     1      35.106  -9.325 -24.309  0.00  0.00    +0.014 C 
BRANCH   8  11
ATOM     11  N   UNL     1      34.246  -7.632 -22.806  0.00  0.00    -0.357 N 
ATOM     12  H   UNL     1      35.155  -7.310 -22.608  0.00  0.00    +0.142 HD
ATOM     13  H   UNL     1      33.463  -7.113 -22.511  0.00  0.00    +0.142 HD
ENDBRANCH   8  11
BRANCH   6  14
ATOM     14  C   UNL     1      31.737  -9.052 -22.587  0.00  0.00    +0.121 C 
BRANCH  14  16
ATOM     15  O   UNL     1      32.721  -8.368 -19.973  0.00  0.00    -0.275 OA
ATOM     16  N   UNL     1      31.575  -9.834 -21.362  0.00  0.00    -0.274 N 
ATOM     17  C   UNL     1      30.836 -11.080 -21.513  0.00  0.00    +0.115 C 
ATOM     18  C   UNL     1      32.091  -9.416 -20.137  0.00  0.00    +0.226 C 
ATOM     19  C   UNL     1      31.850 -10.322 -18.954  0.00  0.00    +0.095 C 
ENDBRANCH  14  16
ENDBRANCH   6  14
ENDBRANCH   3   5
BRANCH   2  20
ATOM     20  C   UNL     1      33.742 -13.781 -23.506  0.00  0.00    +0.135 C 
BRANCH  20  22
ATOM     21  N   UNL     1      33.545 -15.783 -22.032  0.00  0.00    -0.287 N 
ATOM     22  C   UNL     1      34.145 -15.136 -23.079  0.00  0.00    +0.049 C 
ATOM     23  C   UNL     1      34.114 -17.024 -21.850  0.00  0.00    +0.051 C 
ATOM     24  C   UNL     1      35.109 -17.165 -22.819  0.00  0.00    +0.015 C 
ATOM     25  C   UNL     1      35.117 -15.966 -23.587  0.00  0.00    +0.013 C 
ATOM     26  C   UNL     1      32.466 -15.242 -21.232  0.00  0.00    +0.117 C 
ATOM     27  C   UNL     1      33.826 -18.021 -20.912  0.00  0.00    +0.015 C 
ATOM     28  C   UNL     1      35.856 -18.359 -22.856  0.00  0.00    +0.001 C 
ATOM     29  C   UNL     1      34.579 -19.197 -20.967  0.00  0.00    +0.001 C 
ATOM     30  C   UNL     1      35.578 -19.366 -21.923  0.00  0.00    +0.000 C 
ENDBRANCH  20  22
ENDBRANCH   2  20
TORSDOF 6
ENDMDL
MODEL 3
REMARK VINA RESULT:     -11.2      4.605      8.079
REMARK  Name = 447018
REMARK  6 active torsions:
REMARK  status: ('A' for Active; 'I' for Inactive)
REMARK    1  A    between atoms: N_2  and  C_20
REMARK    2  A    between atoms: C_3  and  C_5
REMARK    3  A    between atoms: C_6  and  C_14
REMARK    4  A    between atoms: C_8  and  N_11
REMARK    5  A    between atoms: C_14  and  N_16
REMARK    6  A    between atoms: C_20  and  C_22
REMARK                            x       y       z     vdW  Elec       q    Type
REMARK                         _______ _______ _______ _____ _____    ______ ____
ROOT
ATOM      1  O   UNL     1      33.054  -7.435 -19.899  0.00  0.00    -0.270 OA
ATOM      2  N   UNL     1      31.944  -9.246 -20.857  0.00  0.00    -0.269 N 
ATOM      3  C   UNL     1      32.657  -8.048 -20.889  0.00  0.00    +0.249 C 
ATOM      4  C   UNL     1      31.615  -9.861 -19.582  0.00  0.00    +0.116 C 
ENDROOT
BRANCH   3   5
ATOM      5  C   UNL     1      32.989  -7.461 -22.196  0.00  0.00    +0.053 C 
ATOM      6  C   UNL     1      32.371  -6.105 -24.079  0.00  0.00    +0.011 C 
ATOM      7  C   UNL     1      32.056  -6.662 -22.840  0.00  0.00    +0.003 C 
ATOM      8  C   UNL     1      33.614  -6.354 -24.660  0.00  0.00    +0.039 C 
ATOM      9  C   UNL     1      34.229  -7.716 -22.761  0.00  0.00    +0.006 C 
ATOM     10  C   UNL     1      34.544  -7.159 -24.000  0.00  0.00    +0.014 C 
BRANCH   8  11
ATOM     11  N   UNL     1      33.951  -5.799 -25.914  0.00  0.00    -0.357 N 
ATOM     12  H   UNL     1      33.394  -5.085 -26.301  0.00  0.00    +0.142 HD
ATOM     13  H   UNL     1      34.741  -6.126 -26.402  0.00  0.00    +0.142 HD
ENDBRANCH   8  11
BRANCH   6  14
ATOM     14  C   UNL     1      31.357  -5.247 -24.762  0.00  0.00    +0.121 C 
BRANCH  14  16
ATOM     15  O   UNL     1      30.349  -3.921 -22.417  0.00  0.00    -0.275 OA
ATOM     16  N   UNL     1      31.511  -3.832 -24.425  0.00  0.00    -0.274 N 
ATOM     17  C   UNL     1      32.255  -3.040 -25.395  0.00  0.00    +0.115 C 
ATOM     18  C   UNL     1      30.983  -3.280 -23.259  0.00  0.00    +0.226 C 
ATOM     19  C   UNL     1      31.218  -1.807 -23.039  0.00  0.00    +0.095 C 
ENDBRANCH  14  16
ENDBRANCH   6  14
ENDBRANCH   3   5
BRANCH   2  20
ATOM     20  C   UNL     1      31.472  -9.970 -22.046  0.00  0.00    +0.135 C 
BRANCH  20  22
ATOM     21  N   UNL     1      32.887 -11.747 -23.076  0.00  0.00    -0.287 N 
ATOM     22  C   UNL     1      31.990 -11.352 -22.120  0.00  0.00    +0.049 C 
ATOM     23  C   UNL     1      33.197 -13.079 -22.914  0.00  0.00    +0.051 C 
ATOM     24  C   UNL     1      32.469 -13.541 -21.816  0.00  0.00    +0.015 C 
ATOM     25  C   UNL     1      31.711 -12.440 -21.325  0.00  0.00    +0.013 C 
ATOM     26  C   UNL     1      33.434 -10.888 -24.106  0.00  0.00    +0.117 C 
ATOM     27  C   UNL     1      34.058 -13.901 -23.650  0.00  0.00    +0.015 C 
ATOM     28  C   UNL     1      32.604 -14.889 -21.431  0.00  0.00    +0.001 C 
ATOM     29  C   UNL     1      34.177 -15.235 -23.250  0.00  0.00    +0.001 C 
ATOM     30  C   UNL     1      33.463 -15.724 -22.157  0.00  0.00    +0.000 C 
ENDBRANCH  20  22
ENDBRANCH   2  20
TORSDOF 6
ENDMDL
MODEL 4
REMARK VINA RESULT:     -11.1      1.630      1.981
REMARK  Name = 447018
REMARK  6 active torsions:
REMARK  status: ('A' for Active; 'I' for Inactive)
REMARK    1  A    between atoms: N_2  and  C_20
REMARK    2  A    between atoms: C_3  and  C_5
REMARK    3  A    between atoms: C_6  and  C_14
REMARK    4  A    between atoms: C_8  and  N_11
REMARK    5  A    between atoms: C_14  and  N_16
REMARK    6  A    between atoms: C_20  and  C_22
REMARK                            x       y       z     vdW  Elec       q    Type
REMARK                         _______ _______ _______ _____ _____    ______ ____
ROOT
ATOM      1  O   UNL     1      33.032 -15.161 -24.935  0.00  0.00    -0.270 OA
ATOM      2  N   UNL     1      34.476 -16.271 -23.481  0.00  0.00    -0.269 N 
ATOM      3  C   UNL     1      33.526 -15.308 -23.818  0.00  0.00    +0.249 C 
ATOM      4  C   UNL     1      34.957 -17.199 -24.490  0.00  0.00    +0.116 C 
ENDROOT
BRANCH   3   5
ATOM      5  C   UNL     1      33.046 -14.395 -22.769  0.00  0.00    +0.053 C 
ATOM      6  C   UNL     1      31.998 -12.330 -22.135  0.00  0.00    +0.011 C 
ATOM      7  C   UNL     1      32.452 -13.195 -23.130  0.00  0.00    +0.003 C 
ATOM      8  C   UNL     1      32.142 -12.675 -20.791  0.00  0.00    +0.039 C 
ATOM      9  C   UNL     1      33.195 -14.751 -21.437  0.00  0.00    +0.006 C 
ATOM     10  C   UNL     1      32.741 -13.886 -20.442  0.00  0.00    +0.014 C 
BRANCH   8  11
ATOM     11  N   UNL     1      31.688 -11.811 -19.770  0.00  0.00    -0.357 N 
ATOM     12  H   UNL     1      32.329 -11.239 -19.290  0.00  0.00    +0.142 HD
ATOM     13  H   UNL     1      30.731 -11.781 -19.540  0.00  0.00    +0.142 HD
ENDBRANCH   8  11
BRANCH   6  14
ATOM     14  C   UNL     1      31.361 -11.039 -22.538  0.00  0.00    +0.121 C 
BRANCH  14  16
ATOM     15  O   UNL     1      31.802  -8.876 -20.694  0.00  0.00    -0.275 OA
ATOM     16  N   UNL     1      32.337  -9.959 -22.678  0.00  0.00    -0.274 N 
ATOM     17  C   UNL     1      33.152 -10.011 -23.883  0.00  0.00    +0.115 C 
ATOM     18  C   UNL     1      32.475  -8.951 -21.726  0.00  0.00    +0.226 C 
ATOM     19  C   UNL     1      33.522  -7.899 -21.999  0.00  0.00    +0.095 C 
ENDBRANCH  14  16
ENDBRANCH   6  14
ENDBRANCH   3   5
BRANCH   2  20
ATOM     20  C   UNL     1      35.060 -16.438 -22.143  0.00  0.00    +0.135 C 
BRANCH  20  22
ATOM     21  N   UNL     1      35.702 -18.704 -21.323  0.00  0.00    -0.287 N 
ATOM     22  C   UNL     1      34.746 -17.748 -21.537  0.00  0.00    +0.049 C 
ATOM     23  C   UNL     1      35.137 -19.822 -20.751  0.00  0.00    +0.051 C 
ATOM     24  C   UNL     1      33.775 -19.561 -20.597  0.00  0.00    +0.015 C 
ATOM     25  C   UNL     1      33.542 -18.248 -21.097  0.00  0.00    +0.013 C 
ATOM     26  C   UNL     1      37.106 -18.560 -21.649  0.00  0.00    +0.117 C 
ATOM     27  C   UNL     1      35.724 -21.031 -20.361  0.00  0.00    +0.015 C 
ATOM     28  C   UNL     1      32.953 -20.554 -20.028  0.00  0.00    +0.001 C 
ATOM     29  C   UNL     1      34.890 -22.002 -19.799  0.00  0.00    +0.001 C 
ATOM     30  C   UNL     1      33.526 -21.769 -19.633  0.00  0.00    +0.000 C 
ENDBRANCH  20  22
ENDBRANCH   2  20
TORSDOF 6
ENDMDL
MODEL 5
REMARK VINA RESULT:     -10.3      2.171      8.851
REMARK  Name = 447018
REMARK  6 active torsions:
REMARK  status: ('A' for Active; 'I' for Inactive)
REMARK    1  A    between atoms: N_2  and  C_20
REMARK    2  A    between atoms: C_3  and  C_5
REMARK    3  A    between atoms: C_6  and  C_14
REMARK    4  A    between atoms: C_8  and  N_11
REMARK    5  A    between atoms: C_14  and  N_16
REMARK    6  A    between atoms: C_20  and  C_22
REMARK                            x       y       z     vdW  Elec       q    Type
REMARK                         _______ _______ _______ _____ _____    ______ ____
ROOT
ATOM      1  O   UNL     1      34.119 -16.059 -26.218  0.00  0.00    -0.270 OA
ATOM      2  N   UNL     1      33.036 -14.311 -25.121  0.00  0.00    -0.269 N 
ATOM      3  C   UNL     1      33.792 -15.481 -25.182  0.00  0.00    +0.249 C 
ATOM      4  C   UNL     1      32.569 -13.684 -26.346  0.00  0.00    +0.116 C 
ENDROOT
BRANCH   3   5
ATOM      5  C   UNL     1      34.264 -16.081 -23.925  0.00  0.00    +0.053 C 
ATOM      6  C   UNL     1      34.826 -18.028 -22.637  0.00  0.00    +0.011 C 
ATOM      7  C   UNL     1      34.379 -17.459 -23.829  0.00  0.00    +0.003 C 
ATOM      8  C   UNL     1      35.153 -17.211 -21.554  0.00  0.00    +0.039 C 
ATOM      9  C   UNL     1      34.586 -15.257 -22.857  0.00  0.00    +0.006 C 
ATOM     10  C   UNL     1      35.033 -15.826 -21.665  0.00  0.00    +0.014 C 
BRANCH   8  11
ATOM     11  N   UNL     1      35.607 -17.769 -20.339  0.00  0.00    -0.357 N 
ATOM     12  H   UNL     1      36.378 -18.382 -20.337  0.00  0.00    +0.142 HD
ATOM     13  H   UNL     1      35.153 -17.546 -19.494  0.00  0.00    +0.142 HD
ENDBRANCH   8  11
BRANCH   6  14
ATOM     14  C   UNL     1      34.945 -19.515 -22.547  0.00  0.00    +0.121 C 
BRANCH  14  16
ATOM     15  O   UNL     1      35.969 -21.095 -20.373  0.00  0.00    -0.275 OA
ATOM     16  N   UNL     1      34.177 -20.066 -21.431  0.00  0.00    -0.274 N 
ATOM     17  C   UNL     1      32.751 -19.767 -21.451  0.00  0.00    +0.115 C 
ATOM     18  C   UNL     1      34.767 -20.824 -20.421  0.00  0.00    +0.226 C 
ATOM     19  C   UNL     1      33.854 -21.329 -19.331  0.00  0.00    +0.095 C 
ENDBRANCH  14  16
ENDBRANCH   6  14
ENDBRANCH   3   5
BRANCH   2  20
ATOM     20  C   UNL     1      32.650 -13.629 -23.878  0.00  0.00    +0.135 C 
BRANCH  20  22
ATOM     21  N   UNL     1      32.543 -11.299 -22.996  0.00  0.00    -0.287 N 
ATOM     22  C   UNL     1      33.114 -12.227 -23.824  0.00  0.00    +0.049 C 
ATOM     23  C   UNL     1      33.165 -10.079 -23.148  0.00  0.00    +0.051 C 
ATOM     24  C   UNL     1      34.166 -10.246 -24.106  0.00  0.00    +0.015 C 
ATOM     25  C   UNL     1      34.123 -11.606 -24.524  0.00  0.00    +0.013 C 
ATOM     26  C   UNL     1      31.444 -11.560 -22.089  0.00  0.00    +0.117 C 
ATOM     27  C   UNL     1      32.920  -8.855 -22.515  0.00  0.00    +0.015 C 
ATOM     28  C   UNL     1      34.964  -9.138 -24.453  0.00  0.00    +0.001 C 
ATOM     29  C   UNL     1      33.723  -7.770 -22.876  0.00  0.00    +0.001 C 
ATOM     30  C   UNL     1      34.731  -7.906 -23.829  0.00  0.00    +0.000 C 
ENDBRANCH  20  22
ENDBRANCH   2  20
TORSDOF 6
ENDMDL
MODEL 6
REMARK VINA RESULT:     -10.2      3.845      6.481
REMARK  Name = 447018
REMARK  6 active torsions:
REMARK  status: ('A' for Active; 'I' for Inactive)
REMARK    1  A    between atoms: N_2  and  C_20
REMARK    2  A    between atoms: C_3  and  C_5
REMARK    3  A    between atoms: C_6  and  C_14
REMARK    4  A    between atoms: C_8  and  N_11
REMARK    5  A    between atoms: C_14  and  N_16
REMARK    6  A    between atoms: C_20  and  C_22
REMARK                            x       y       z     vdW  Elec       q    Type
REMARK                         _______ _______ _______ _____ _____    ______ ____
ROOT
ATOM      1  O   UNL     1      31.172 -10.502 -21.201  0.00  0.00    -0.270 OA
ATOM      2  N   UNL     1      32.382 -11.995 -22.519  0.00  0.00    -0.269 N 
ATOM      3  C   UNL     1      31.939 -10.730 -22.134  0.00  0.00    +0.249 C 
ATOM      4  C   UNL     1      31.932 -13.172 -21.795  0.00  0.00    +0.116 C 
ENDROOT
BRANCH   3   5
ATOM      5  C   UNL     1      32.427  -9.558 -22.877  0.00  0.00    +0.053 C 
ATOM      6  C   UNL     1      31.986  -7.486 -24.007  0.00  0.00    +0.011 C 
ATOM      7  C   UNL     1      31.523  -8.597 -23.303  0.00  0.00    +0.003 C 
ATOM      8  C   UNL     1      33.347  -7.348 -24.276  0.00  0.00    +0.039 C 
ATOM      9  C   UNL     1      33.783  -9.433 -23.137  0.00  0.00    +0.006 C 
ATOM     10  C   UNL     1      34.246  -8.322 -23.841  0.00  0.00    +0.014 C 
BRANCH   8  11
ATOM     11  N   UNL     1      33.835  -6.230 -24.988  0.00  0.00    -0.357 N 
ATOM     12  H   UNL     1      33.250  -5.761 -25.627  0.00  0.00    +0.142 HD
ATOM     13  H   UNL     1      34.758  -5.919 -24.845  0.00  0.00    +0.142 HD
ENDBRANCH   8  11
BRANCH   6  14
ATOM     14  C   UNL     1      31.001  -6.458 -24.462  0.00  0.00    +0.121 C 
BRANCH  14  16
ATOM     15  O   UNL     1      31.773  -3.823 -25.319  0.00  0.00    -0.275 OA
ATOM     16  N   UNL     1      31.042  -5.250 -23.639  0.00  0.00    -0.274 N 
ATOM     17  C   UNL     1      30.647  -5.431 -22.249  0.00  0.00    +0.115 C 
ATOM     18  C   UNL     1      31.432  -4.013 -24.148  0.00  0.00    +0.226 C 
ATOM     19  C   UNL     1      31.428  -2.851 -23.187  0.00  0.00    +0.095 C 
ENDBRANCH  14  16
ENDBRANCH   6  14
ENDBRANCH   3   5
BRANCH   2  20
ATOM     20  C   UNL     1      33.299 -12.256 -23.637  0.00  0.00    +0.135 C 
BRANCH  20  22
ATOM     21  N   UNL     1      33.485 -14.470 -24.770  0.00  0.00    -0.287 N 
ATOM     22  C   UNL     1      33.748 -13.662 -23.697  0.00  0.00    +0.049 C 
ATOM     23  C   UNL     1      34.015 -15.724 -24.562  0.00  0.00    +0.051 C 
ATOM     24  C   UNL     1      34.635 -15.706 -23.312  0.00  0.00    +0.015 C 
ATOM     25  C   UNL     1      34.459 -14.399 -22.777  0.00  0.00    +0.013 C 
ATOM     26  C   UNL     1      32.758 -14.064 -25.956  0.00  0.00    +0.117 C 
ATOM     27  C   UNL     1      33.993 -16.861 -25.378  0.00  0.00    +0.015 C 
ATOM     28  C   UNL     1      35.264 -16.879 -22.849  0.00  0.00    +0.001 C 
ATOM     29  C   UNL     1      34.623 -18.013 -24.899  0.00  0.00    +0.001 C 
ATOM     30  C   UNL     1      35.250 -18.024 -23.655  0.00  0.00    +0.000 C 
ENDBRANCH  20  22
ENDBRANCH   2  20
TORSDOF 6
ENDMDL
MODEL 7
REMARK VINA RESULT:     -10.1      2.454      9.080
REMARK  Name = 447018
REMARK  6 active torsions:
REMARK  status: ('A' for Active; 'I' for Inactive)
REMARK    1  A    between atoms: N_2  and  C_20
REMARK    2  A    between atoms: C_3  and  C_5
REMARK    3  A    between atoms: C_6  and  C_14
REMARK    4  A    between atoms: C_8  and  N_11
REMARK    5  A    between atoms: C_14  and  N_16
REMARK    6  A    between atoms: C_20  and  C_22
REMARK                            x       y       z     vdW  Elec       q    Type
REMARK                         _______ _______ _______ _____ _____    ______ ____
ROOT
ATOM      1  O   UNL     1      33.080 -14.664 -19.907  0.00  0.00    -0.270 OA
ATOM      2  N   UNL     1      32.243 -13.072 -21.389  0.00  0.00    -0.269 N 
ATOM      3  C   UNL     1      32.930 -14.237 -21.051  0.00  0.00    +0.249 C 
ATOM      4  C   UNL     1      31.637 -12.259 -20.348  0.00  0.00    +0.116 C 
ENDROOT
BRANCH   3   5
ATOM      5  C   UNL     1      33.517 -15.046 -22.129  0.00  0.00    +0.053 C 
ATOM      6  C   UNL     1      34.972 -16.821 -22.837  0.00  0.00    +0.011 C 
ATOM      7  C   UNL     1      34.415 -16.054 -21.814  0.00  0.00    +0.003 C 
ATOM      8  C   UNL     1      34.623 -16.571 -24.164  0.00  0.00    +0.039 C 
ATOM      9  C   UNL     1      33.161 -14.787 -23.444  0.00  0.00    +0.006 C 
ATOM     10  C   UNL     1      33.718 -15.554 -24.468  0.00  0.00    +0.014 C 
BRANCH   8  11
ATOM     11  N   UNL     1      35.177 -17.338 -25.214  0.00  0.00    -0.357 N 
ATOM     12  H   UNL     1      35.152 -18.321 -25.170  0.00  0.00    +0.142 HD
ATOM     13  H   UNL     1      35.587 -16.888 -25.988  0.00  0.00    +0.142 HD
ENDBRANCH   8  11
BRANCH   6  14
ATOM     14  C   UNL     1      35.939 -17.904 -22.482  0.00  0.00    +0.121 C 
BRANCH  14  16
ATOM     15  O   UNL     1      36.962 -19.356 -20.220  0.00  0.00    -0.275 OA
ATOM     16  N   UNL     1      35.291 -19.023 -21.799  0.00  0.00    -0.274 N 
ATOM     17  C   UNL     1      33.999 -19.419 -22.342  0.00  0.00    +0.115 C 
ATOM     18  C   UNL     1      35.870 -19.665 -20.705  0.00  0.00    +0.226 C 
ATOM     19  C   UNL     1      35.091 -20.805 -20.097  0.00  0.00    +0.095 C 
ENDBRANCH  14  16
ENDBRANCH   6  14
ENDBRANCH   3   5
BRANCH   2  20
ATOM     20  C   UNL     1      32.072 -12.569 -22.759  0.00  0.00    +0.135 C 
BRANCH  20  22
ATOM     21  N   UNL     1      33.472 -10.736 -23.708  0.00  0.00    -0.287 N 
ATOM     22  C   UNL     1      32.445 -11.147 -22.901  0.00  0.00    +0.049 C 
ATOM     23  C   UNL     1      33.602  -9.366 -23.652  0.00  0.00    +0.051 C 
ATOM     24  C   UNL     1      32.620  -8.896 -22.778  0.00  0.00    +0.015 C 
ATOM     25  C   UNL     1      31.897 -10.030 -22.311  0.00  0.00    +0.013 C 
ATOM     26  C   UNL     1      34.300 -11.615 -24.508  0.00  0.00    +0.117 C 
ATOM     27  C   UNL     1      34.504  -8.517 -24.302  0.00  0.00    +0.015 C 
ATOM     28  C   UNL     1      32.532  -7.510 -22.538  0.00  0.00    +0.001 C 
ATOM     29  C   UNL     1      34.399  -7.147 -24.049  0.00  0.00    +0.001 C 
ATOM     30  C   UNL     1      33.429  -6.649 -23.182  0.00  0.00    +0.000 C 
ENDBRANCH  20  22
ENDBRANCH   2  20
TORSDOF 6
ENDMDL
MODEL 8
REMARK VINA RESULT:     -10.1      2.530      9.166
REMARK  Name = 447018
REMARK  6 active torsions:
REMARK  status: ('A' for Active; 'I' for Inactive)
REMARK    1  A    between atoms: N_2  and  C_20
REMARK    2  A    between atoms: C_3  and  C_5
REMARK    3  A    between atoms: C_6  and  C_14
REMARK    4  A    between atoms: C_8  and  N_11
REMARK    5  A    between atoms: C_14  and  N_16
REMARK    6  A    between atoms: C_20  and  C_22
REMARK                            x       y       z     vdW  Elec       q    Type
REMARK                         _______ _______ _______ _____ _____    ______ ____
ROOT
ATOM      1  O   UNL     1      32.711 -14.619 -25.668  0.00  0.00    -0.270 OA
ATOM      2  N   UNL     1      33.665 -12.607 -24.979  0.00  0.00    -0.269 N 
ATOM      3  C   UNL     1      33.312 -13.948 -24.830  0.00  0.00    +0.249 C 
ATOM      4  C   UNL     1      33.319 -11.897 -26.199  0.00  0.00    +0.116 C 
ENDROOT
BRANCH   3   5
ATOM      5  C   UNL     1      33.692 -14.643 -23.591  0.00  0.00    +0.053 C 
ATOM      6  C   UNL     1      34.977 -16.333 -22.469  0.00  0.00    +0.011 C 
ATOM      7  C   UNL     1      34.618 -15.674 -23.644  0.00  0.00    +0.003 C 
ATOM      8  C   UNL     1      34.407 -15.953 -21.254  0.00  0.00    +0.039 C 
ATOM      9  C   UNL     1      33.118 -14.254 -22.390  0.00  0.00    +0.006 C 
ATOM     10  C   UNL     1      33.477 -14.913 -21.215  0.00  0.00    +0.014 C 
BRANCH   8  11
ATOM     11  N   UNL     1      34.759 -16.609 -20.053  0.00  0.00    -0.357 N 
ATOM     12  H   UNL     1      34.254 -17.401 -19.760  0.00  0.00    +0.142 HD
ATOM     13  H   UNL     1      35.509 -16.273 -19.511  0.00  0.00    +0.142 HD
ENDBRANCH   8  11
BRANCH   6  14
ATOM     14  C   UNL     1      35.976 -17.442 -22.540  0.00  0.00    +0.121 C 
BRANCH  14  16
ATOM     15  O   UNL     1      36.627 -19.019 -20.225  0.00  0.00    -0.275 OA
ATOM     16  N   UNL     1      35.396 -18.734 -22.173  0.00  0.00    -0.274 N 
ATOM     17  C   UNL     1      34.391 -19.248 -23.093  0.00  0.00    +0.115 C 
ATOM     18  C   UNL     1      35.780 -19.424 -21.025  0.00  0.00    +0.226 C 
ATOM     19  C   UNL     1      35.099 -20.747 -20.770  0.00  0.00    +0.095 C 
ENDBRANCH  14  16
ENDBRANCH   6  14
ENDBRANCH   3   5
BRANCH   2  20
ATOM     20  C   UNL     1      34.382 -11.814 -23.971  0.00  0.00    +0.135 C 
BRANCH  20  22
ATOM     21  N   UNL     1      32.719 -10.097 -23.259  0.00  0.00    -0.287 N 
ATOM     22  C   UNL     1      33.895 -10.422 -23.881  0.00  0.00    +0.049 C 
ATOM     23  C   UNL     1      32.508  -8.738 -23.323  0.00  0.00    +0.051 C 
ATOM     24  C   UNL     1      33.591  -8.186 -24.009  0.00  0.00    +0.015 C 
ATOM     25  C   UNL     1      34.459  -9.260 -24.356  0.00  0.00    +0.013 C 
ATOM     26  C   UNL     1      31.827 -11.045 -22.624  0.00  0.00    +0.117 C 
ATOM     27  C   UNL     1      31.452  -7.964 -22.830  0.00  0.00    +0.015 C 
ATOM     28  C   UNL     1      33.625  -6.792 -24.216  0.00  0.00    +0.001 C 
ATOM     29  C   UNL     1      31.506  -6.584 -23.046  0.00  0.00    +0.001 C 
ATOM     30  C   UNL     1      32.575  -6.005 -23.728  0.00  0.00    +0.000 C 
ENDBRANCH  20  22
ENDBRANCH   2  20
TORSDOF 6
ENDMDL
MODEL 9
REMARK VINA RESULT:      -9.7      7.296     12.433
REMARK  Name = 447018
REMARK  6 active torsions:
REMARK  status: ('A' for Active; 'I' for Inactive)
REMARK    1  A    between atoms: N_2  and  C_20
REMARK    2  A    between atoms: C_3  and  C_5
REMARK    3  A    between atoms: C_6  and  C_14
REMARK    4  A    between atoms: C_8  and  N_11
REMARK    5  A    between atoms: C_14  and  N_16
REMARK    6  A    between atoms: C_20  and  C_22
REMARK                            x       y       z     vdW  Elec       q    Type
REMARK                         _______ _______ _______ _____ _____    ______ ____
ROOT
ATOM      1  O   UNL     1      32.192 -23.646 -13.810  0.00  0.00    -0.270 OA
ATOM      2  N   UNL     1      33.203 -23.526 -15.907  0.00  0.00    -0.269 N 
ATOM      3  C   UNL     1      33.198 -23.647 -14.518  0.00  0.00    +0.249 C 
ATOM      4  C   UNL     1      31.949 -23.384 -16.626  0.00  0.00    +0.116 C 
ENDROOT
BRANCH   3   5
ATOM      5  C   UNL     1      34.484 -23.808 -13.820  0.00  0.00    +0.053 C 
ATOM      6  C   UNL     1      36.874 -24.017 -13.896  0.00  0.00    +0.011 C 
ATOM      7  C   UNL     1      35.656 -23.865 -14.558  0.00  0.00    +0.003 C 
ATOM      8  C   UNL     1      36.906 -24.112 -12.505  0.00  0.00    +0.039 C 
ATOM      9  C   UNL     1      34.500 -23.900 -12.437  0.00  0.00    +0.006 C 
ATOM     10  C   UNL     1      35.718 -24.053 -11.775  0.00  0.00    +0.014 C 
BRANCH   8  11
ATOM     11  N   UNL     1      38.130 -24.267 -11.818  0.00  0.00    -0.357 N 
ATOM     12  H   UNL     1      38.398 -23.609 -11.137  0.00  0.00    +0.142 HD
ATOM     13  H   UNL     1      38.715 -25.032 -12.021  0.00  0.00    +0.142 HD
ENDBRANCH   8  11
BRANCH   6  14
ATOM     14  C   UNL     1      38.131 -24.077 -14.703  0.00  0.00    +0.121 C 
BRANCH  14  16
ATOM     15  O   UNL     1      40.950 -24.483 -14.300  0.00  0.00    -0.275 OA
ATOM     16  N   UNL     1      38.816 -25.362 -14.567  0.00  0.00    -0.274 N 
ATOM     17  C   UNL     1      37.958 -26.536 -14.650  0.00  0.00    +0.115 C 
ATOM     18  C   UNL     1      40.193 -25.456 -14.374  0.00  0.00    +0.226 C 
ATOM     19  C   UNL     1      40.768 -26.845 -14.250  0.00  0.00    +0.095 C 
ENDBRANCH  14  16
ENDBRANCH   6  14
ENDBRANCH   3   5
BRANCH   2  20
ATOM     20  C   UNL     1      34.412 -23.528 -16.742  0.00  0.00    +0.135 C 
BRANCH  20  22
ATOM     21  N   UNL     1      35.426 -21.910 -18.347  0.00  0.00    -0.287 N 
ATOM     22  C   UNL     1      34.330 -22.581 -17.874  0.00  0.00    +0.049 C 
ATOM     23  C   UNL     1      35.066 -21.097 -19.399  0.00  0.00    +0.051 C 
ATOM     24  C   UNL     1      33.695 -21.263 -19.597  0.00  0.00    +0.015 C 
ATOM     25  C   UNL     1      33.243 -22.202 -18.627  0.00  0.00    +0.013 C 
ATOM     26  C   UNL     1      36.769 -22.038 -17.820  0.00  0.00    +0.117 C 
ATOM     27  C   UNL     1      35.844 -20.237 -20.182  0.00  0.00    +0.015 C 
ATOM     28  C   UNL     1      33.065 -20.535 -20.626  0.00  0.00    +0.001 C 
ATOM     29  C   UNL     1      35.199 -19.525 -21.197  0.00  0.00    +0.001 C 
ATOM     30  C   UNL     1      33.831 -19.671 -21.418  0.00  0.00    +0.000 C 
ENDBRANCH  20  22
ENDBRANCH   2  20
TORSDOF 6
ENDMDL
