MODEL 1
REMARK VINA RESULT:      -6.5      0.000      0.000
REMARK  Name = 450173
REMARK  4 active torsions:
REMARK  status: ('A' for Active; 'I' for Inactive)
REMARK    1  A    between atoms: N_3  and  C_9
REMARK    2  A    between atoms: C_9  and  C_10
REMARK    3  A    between atoms: C_10  and  C_12
REMARK    4  A    between atoms: C_10  and  O_13
REMARK                            x       y       z     vdW  Elec       q    Type
REMARK                         _______ _______ _______ _____ _____    ______ ____
ROOT
ATOM      1  O   UNL     1      40.924 -26.740 -13.954  0.00  0.00    -0.123 OA
ATOM      2  O   UNL     1      40.605 -24.590 -14.261  0.00  0.00    -0.123 OA
ATOM      3  N   UNL     1      37.792 -25.131 -14.152  0.00  0.00    -0.248 N 
ATOM      4  N   UNL     1      38.319 -27.115 -14.952  0.00  0.00    -0.207 NA
ATOM      5  N   UNL     1      40.153 -25.770 -14.208  0.00  0.00    +0.091 N 
ATOM      6  C   UNL     1      38.791 -26.004 -14.433  0.00  0.00    +0.284 C 
ATOM      7  C   UNL     1      36.611 -25.695 -14.503  0.00  0.00    +0.089 C 
ATOM      8  C   UNL     1      36.960 -26.929 -14.999  0.00  0.00    +0.118 C 
ENDROOT
BRANCH   3   9
ATOM      9  C   UNL     1      37.945 -23.797 -13.572  0.00  0.00    +0.131 C 
BRANCH   9  10
ATOM     10  C   UNL     1      38.035 -23.833 -12.046  0.00  0.00    +0.166 C 
BRANCH  10  12
ATOM     11  F   UNL     1      35.832 -23.089 -12.319  0.00  0.00    -0.232 F 
ATOM     12  C   UNL     1      36.848 -23.122 -11.413  0.00  0.00    +0.224 C 
ENDBRANCH  10  12
BRANCH  10  13
ATOM     13  O   UNL     1      39.225 -23.155 -11.645  0.00  0.00    -0.380 OA
ATOM     14  H   UNL     1      39.514 -23.492 -10.783  0.00  0.00    +0.211 HD
ENDBRANCH  10  13
ENDBRANCH   9  10
ENDBRANCH   3   9
TORSDOF 4
ENDMDL
MODEL 2
REMARK VINA RESULT:      -6.4     13.579     14.124
REMARK  Name = 450173
REMARK  4 active torsions:
REMARK  status: ('A' for Active; 'I' for Inactive)
REMARK    1  A    between atoms: N_3  and  C_9
REMARK    2  A    between atoms: C_9  and  C_10
REMARK    3  A    between atoms: C_10  and  C_12
REMARK    4  A    between atoms: C_10  and  O_13
REMARK                            x       y       z     vdW  Elec       q    Type
REMARK                         _______ _______ _______ _____ _____    ______ ____
ROOT
ATOM      1  O   UNL     1      33.637 -15.249 -26.677  0.00  0.00    -0.123 OA
ATOM      2  O   UNL     1      33.019 -14.535 -24.695  0.00  0.00    -0.123 OA
ATOM      3  N   UNL     1      34.634 -16.629 -23.589  0.00  0.00    -0.248 N 
ATOM      4  N   UNL     1      34.185 -17.722 -25.448  0.00  0.00    -0.207 NA
ATOM      5  N   UNL     1      33.572 -15.408 -25.424  0.00  0.00    +0.091 N 
ATOM      6  C   UNL     1      34.116 -16.559 -24.840  0.00  0.00    +0.284 C 
ATOM      7  C   UNL     1      35.063 -17.895 -23.365  0.00  0.00    +0.089 C 
ATOM      8  C   UNL     1      34.774 -18.559 -24.534  0.00  0.00    +0.118 C 
ENDROOT
BRANCH   3   9
ATOM      9  C   UNL     1      34.719 -15.532 -22.624  0.00  0.00    +0.131 C 
BRANCH   9  10
ATOM     10  C   UNL     1      34.064 -15.882 -21.287  0.00  0.00    +0.166 C 
BRANCH  10  12
ATOM     11  F   UNL     1      32.538 -14.815 -19.867  0.00  0.00    -0.232 F 
ATOM     12  C   UNL     1      32.701 -15.219 -21.158  0.00  0.00    +0.224 C 
ENDBRANCH  10  12
BRANCH  10  13
ATOM     13  O   UNL     1      34.896 -15.398 -20.233  0.00  0.00    -0.380 OA
ATOM     14  H   UNL     1      34.596 -14.515 -19.964  0.00  0.00    +0.211 HD
ENDBRANCH  10  13
ENDBRANCH   9  10
ENDBRANCH   3   9
TORSDOF 4
ENDMDL
MODEL 3
REMARK VINA RESULT:      -6.3      3.112      4.072
REMARK  Name = 450173
REMARK  4 active torsions:
REMARK  status: ('A' for Active; 'I' for Inactive)
REMARK    1  A    between atoms: N_3  and  C_9
REMARK    2  A    between atoms: C_9  and  C_10
REMARK    3  A    between atoms: C_10  and  C_12
REMARK    4  A    between atoms: C_10  and  O_13
REMARK                            x       y       z     vdW  Elec       q    Type
REMARK                         _______ _______ _______ _____ _____    ______ ____
ROOT
ATOM      1  O   UNL     1      36.155 -24.181  -9.981  0.00  0.00    -0.123 OA
ATOM      2  O   UNL     1      37.244 -22.679 -11.154  0.00  0.00    -0.123 OA
ATOM      3  N   UNL     1      37.031 -24.466 -13.384  0.00  0.00    -0.248 N 
ATOM      4  N   UNL     1      37.024 -26.072 -11.876  0.00  0.00    -0.207 NA
ATOM      5  N   UNL     1      36.773 -23.846 -11.032  0.00  0.00    +0.091 N 
ATOM      6  C   UNL     1      36.938 -24.775 -12.067  0.00  0.00    +0.284 C 
ATOM      7  C   UNL     1      37.185 -25.613 -14.090  0.00  0.00    +0.089 C 
ATOM      8  C   UNL     1      37.179 -26.601 -13.132  0.00  0.00    +0.118 C 
ENDROOT
BRANCH   3   9
ATOM      9  C   UNL     1      36.981 -23.125 -13.966  0.00  0.00    +0.131 C 
BRANCH   9  10
ATOM     10  C   UNL     1      36.120 -23.071 -15.228  0.00  0.00    +0.166 C 
BRANCH  10  12
ATOM     11  F   UNL     1      38.130 -22.509 -16.289  0.00  0.00    -0.232 F 
ATOM     12  C   UNL     1      36.794 -22.245 -16.314  0.00  0.00    +0.224 C 
ENDBRANCH  10  12
BRANCH  10  13
ATOM     13  O   UNL     1      34.877 -22.448 -14.904  0.00  0.00    -0.380 OA
ATOM     14  H   UNL     1      34.239 -22.610 -15.616  0.00  0.00    +0.211 HD
ENDBRANCH  10  13
ENDBRANCH   9  10
ENDBRANCH   3   9
TORSDOF 4
ENDMDL
MODEL 4
REMARK VINA RESULT:      -6.2      2.920      4.321
REMARK  Name = 450173
REMARK  4 active torsions:
REMARK  status: ('A' for Active; 'I' for Inactive)
REMARK    1  A    between atoms: N_3  and  C_9
REMARK    2  A    between atoms: C_9  and  C_10
REMARK    3  A    between atoms: C_10  and  C_12
REMARK    4  A    between atoms: C_10  and  O_13
REMARK                            x       y       z     vdW  Elec       q    Type
REMARK                         _______ _______ _______ _____ _____    ______ ____
ROOT
ATOM      1  O   UNL     1      35.535 -24.241 -10.025  0.00  0.00    -0.123 OA
ATOM      2  O   UNL     1      37.317 -24.810 -11.174  0.00  0.00    -0.123 OA
ATOM      3  N   UNL     1      35.950 -23.859 -13.506  0.00  0.00    -0.248 N 
ATOM      4  N   UNL     1      34.105 -24.424 -12.443  0.00  0.00    -0.207 NA
ATOM      5  N   UNL     1      36.109 -24.439 -11.135  0.00  0.00    +0.091 N 
ATOM      6  C   UNL     1      35.402 -24.246 -12.328  0.00  0.00    +0.284 C 
ATOM      7  C   UNL     1      34.968 -23.779 -14.437  0.00  0.00    +0.089 C 
ATOM      8  C   UNL     1      33.828 -24.134 -13.755  0.00  0.00    +0.118 C 
ENDROOT
BRANCH   3   9
ATOM      9  C   UNL     1      37.364 -23.577 -13.753  0.00  0.00    +0.131 C 
BRANCH   9  10
ATOM     10  C   UNL     1      37.956 -24.477 -14.838  0.00  0.00    +0.166 C 
BRANCH  10  12
ATOM     11  F   UNL     1      39.679 -25.175 -13.415  0.00  0.00    -0.232 F 
ATOM     12  C   UNL     1      38.696 -25.656 -14.225  0.00  0.00    +0.224 C 
ENDBRANCH  10  12
BRANCH  10  13
ATOM     13  O   UNL     1      38.891 -23.714 -15.601  0.00  0.00    -0.380 OA
ATOM     14  H   UNL     1      38.772 -23.907 -16.544  0.00  0.00    +0.211 HD
ENDBRANCH  10  13
ENDBRANCH   9  10
ENDBRANCH   3   9
TORSDOF 4
ENDMDL
MODEL 5
REMARK VINA RESULT:      -6.2      2.608      3.078
REMARK  Name = 450173
REMARK  4 active torsions:
REMARK  status: ('A' for Active; 'I' for Inactive)
REMARK    1  A    between atoms: N_3  and  C_9
REMARK    2  A    between atoms: C_9  and  C_10
REMARK    3  A    between atoms: C_10  and  C_12
REMARK    4  A    between atoms: C_10  and  O_13
REMARK                            x       y       z     vdW  Elec       q    Type
REMARK                         _______ _______ _______ _____ _____    ______ ____
ROOT
ATOM      1  O   UNL     1      36.824 -27.268 -15.888  0.00  0.00    -0.123 OA
ATOM      2  O   UNL     1      37.940 -26.509 -14.157  0.00  0.00    -0.123 OA
ATOM      3  N   UNL     1      35.734 -24.743 -13.682  0.00  0.00    -0.248 N 
ATOM      4  N   UNL     1      35.419 -24.829 -15.861  0.00  0.00    -0.207 NA
ATOM      5  N   UNL     1      36.974 -26.415 -14.967  0.00  0.00    +0.091 N 
ATOM      6  C   UNL     1      36.065 -25.357 -14.845  0.00  0.00    +0.284 C 
ATOM      7  C   UNL     1      34.830 -23.768 -13.947  0.00  0.00    +0.089 C 
ATOM      8  C   UNL     1      34.648 -23.838 -15.308  0.00  0.00    +0.118 C 
ENDROOT
BRANCH   3   9
ATOM      9  C   UNL     1      36.258 -25.061 -12.354  0.00  0.00    +0.131 C 
BRANCH   9  10
ATOM     10  C   UNL     1      36.281 -23.843 -11.430  0.00  0.00    +0.166 C 
BRANCH  10  12
ATOM     11  F   UNL     1      38.598 -23.895 -11.757  0.00  0.00    -0.232 F 
ATOM     12  C   UNL     1      37.553 -23.032 -11.627  0.00  0.00    +0.224 C 
ENDBRANCH  10  12
BRANCH  10  13
ATOM     13  O   UNL     1      36.248 -24.298 -10.077  0.00  0.00    -0.380 OA
ATOM     14  H   UNL     1      35.575 -24.990  -9.986  0.00  0.00    +0.211 HD
ENDBRANCH  10  13
ENDBRANCH   9  10
ENDBRANCH   3   9
TORSDOF 4
ENDMDL
MODEL 6
REMARK VINA RESULT:      -6.1      2.815      3.645
REMARK  Name = 450173
REMARK  4 active torsions:
REMARK  status: ('A' for Active; 'I' for Inactive)
REMARK    1  A    between atoms: N_3  and  C_9
REMARK    2  A    between atoms: C_9  and  C_10
REMARK    3  A    between atoms: C_10  and  C_12
REMARK    4  A    between atoms: C_10  and  O_13
REMARK                            x       y       z     vdW  Elec       q    Type
REMARK                         _______ _______ _______ _____ _____    ______ ____
ROOT
ATOM      1  O   UNL     1      38.107 -27.269 -14.349  0.00  0.00    -0.123 OA
ATOM      2  O   UNL     1      36.693 -26.334 -15.743  0.00  0.00    -0.123 OA
ATOM      3  N   UNL     1      36.327 -24.279 -13.779  0.00  0.00    -0.248 N 
ATOM      4  N   UNL     1      36.797 -25.846 -12.304  0.00  0.00    -0.207 NA
ATOM      5  N   UNL     1      37.211 -26.410 -14.593  0.00  0.00    +0.091 N 
ATOM      6  C   UNL     1      36.791 -25.538 -13.581  0.00  0.00    +0.284 C 
ATOM      7  C   UNL     1      36.014 -23.736 -12.578  0.00  0.00    +0.089 C 
ATOM      8  C   UNL     1      36.314 -24.727 -11.672  0.00  0.00    +0.118 C 
ENDROOT
BRANCH   3   9
ATOM      9  C   UNL     1      36.176 -23.604 -15.069  0.00  0.00    +0.131 C 
BRANCH   9  10
ATOM     10  C   UNL     1      37.384 -22.733 -15.414  0.00  0.00    +0.166 C 
BRANCH  10  12
ATOM     11  F   UNL     1      36.195 -22.400 -17.403  0.00  0.00    -0.232 F 
ATOM     12  C   UNL     1      37.062 -21.780 -16.555  0.00  0.00    +0.224 C 
ENDBRANCH  10  12
BRANCH  10  13
ATOM     13  O   UNL     1      38.452 -23.584 -15.834  0.00  0.00    -0.380 OA
ATOM     14  H   UNL     1      38.542 -23.537 -16.798  0.00  0.00    +0.211 HD
ENDBRANCH  10  13
ENDBRANCH   9  10
ENDBRANCH   3   9
TORSDOF 4
ENDMDL
MODEL 7
REMARK VINA RESULT:      -6.0     14.323     14.893
REMARK  Name = 450173
REMARK  4 active torsions:
REMARK  status: ('A' for Active; 'I' for Inactive)
REMARK    1  A    between atoms: N_3  and  C_9
REMARK    2  A    between atoms: C_9  and  C_10
REMARK    3  A    between atoms: C_10  and  C_12
REMARK    4  A    between atoms: C_10  and  O_13
REMARK                            x       y       z     vdW  Elec       q    Type
REMARK                         _______ _______ _______ _____ _____    ______ ____
ROOT
ATOM      1  O   UNL     1      33.972 -18.124 -25.450  0.00  0.00    -0.123 OA
ATOM      2  O   UNL     1      35.285 -17.111 -24.012  0.00  0.00    -0.123 OA
ATOM      3  N   UNL     1      33.713 -14.754 -24.444  0.00  0.00    -0.248 N 
ATOM      4  N   UNL     1      33.359 -15.569 -26.460  0.00  0.00    -0.207 NA
ATOM      5  N   UNL     1      34.381 -17.064 -24.895  0.00  0.00    +0.091 N 
ATOM      6  C   UNL     1      33.830 -15.830 -25.262  0.00  0.00    +0.284 C 
ATOM      7  C   UNL     1      33.138 -13.742 -25.138  0.00  0.00    +0.089 C 
ATOM      8  C   UNL     1      32.926 -14.269 -26.390  0.00  0.00    +0.118 C 
ENDROOT
BRANCH   3   9
ATOM      9  C   UNL     1      34.135 -14.678 -23.046  0.00  0.00    +0.131 C 
BRANCH   9  10
ATOM     10  C   UNL     1      33.066 -15.202 -22.086  0.00  0.00    +0.166 C 
BRANCH  10  12
ATOM     11  F   UNL     1      32.594 -14.818 -19.825  0.00  0.00    -0.232 F 
ATOM     12  C   UNL     1      32.743 -14.172 -21.015  0.00  0.00    +0.224 C 
ENDBRANCH  10  12
BRANCH  10  13
ATOM     13  O   UNL     1      33.568 -16.372 -21.441  0.00  0.00    -0.380 OA
ATOM     14  H   UNL     1      34.147 -16.854 -22.051  0.00  0.00    +0.211 HD
ENDBRANCH  10  13
ENDBRANCH   9  10
ENDBRANCH   3   9
TORSDOF 4
ENDMDL
MODEL 8
REMARK VINA RESULT:      -6.0      9.585     10.281
REMARK  Name = 450173
REMARK  4 active torsions:
REMARK  status: ('A' for Active; 'I' for Inactive)
REMARK    1  A    between atoms: N_3  and  C_9
REMARK    2  A    between atoms: C_9  and  C_10
REMARK    3  A    between atoms: C_10  and  C_12
REMARK    4  A    between atoms: C_10  and  O_13
REMARK                            x       y       z     vdW  Elec       q    Type
REMARK                         _______ _______ _______ _____ _____    ______ ____
ROOT
ATOM      1  O   UNL     1      32.761 -22.121 -19.808  0.00  0.00    -0.123 OA
ATOM      2  O   UNL     1      32.457 -20.019 -20.363  0.00  0.00    -0.123 OA
ATOM      3  N   UNL     1      35.287 -19.863 -20.787  0.00  0.00    -0.248 N 
ATOM      4  N   UNL     1      35.430 -21.427 -19.242  0.00  0.00    -0.207 NA
ATOM      5  N   UNL     1      33.230 -20.975 -20.069  0.00  0.00    +0.091 N 
ATOM      6  C   UNL     1      34.614 -20.765 -20.030  0.00  0.00    +0.284 C 
ATOM      7  C   UNL     1      36.605 -19.936 -20.481  0.00  0.00    +0.089 C 
ATOM      8  C   UNL     1      36.673 -20.915 -19.517  0.00  0.00    +0.118 C 
ENDROOT
BRANCH   3   9
ATOM      9  C   UNL     1      34.705 -18.950 -21.770  0.00  0.00    +0.131 C 
BRANCH   9  10
ATOM     10  C   UNL     1      35.510 -17.658 -21.912  0.00  0.00    +0.166 C 
BRANCH  10  12
ATOM     11  F   UNL     1      35.016 -16.153 -20.188  0.00  0.00    -0.232 F 
ATOM     12  C   UNL     1      34.690 -16.453 -21.476  0.00  0.00    +0.224 C 
ENDBRANCH  10  12
BRANCH  10  13
ATOM     13  O   UNL     1      35.855 -17.486 -23.287  0.00  0.00    -0.380 OA
ATOM     14  H   UNL     1      36.357 -16.663 -23.394  0.00  0.00    +0.211 HD
ENDBRANCH  10  13
ENDBRANCH   9  10
ENDBRANCH   3   9
TORSDOF 4
ENDMDL
MODEL 9
REMARK VINA RESULT:      -6.0      2.843      3.434
REMARK  Name = 450173
REMARK  4 active torsions:
REMARK  status: ('A' for Active; 'I' for Inactive)
REMARK    1  A    between atoms: N_3  and  C_9
REMARK    2  A    between atoms: C_9  and  C_10
REMARK    3  A    between atoms: C_10  and  C_12
REMARK    4  A    between atoms: C_10  and  O_13
REMARK                            x       y       z     vdW  Elec       q    Type
REMARK                         _______ _______ _______ _____ _____    ______ ____
ROOT
ATOM      1  O   UNL     1      34.678 -24.037 -16.638  0.00  0.00    -0.123 OA
ATOM      2  O   UNL     1      34.694 -23.185 -14.615  0.00  0.00    -0.123 OA
ATOM      3  N   UNL     1      36.950 -24.867 -14.072  0.00  0.00    -0.248 N 
ATOM      4  N   UNL     1      36.071 -26.233 -15.561  0.00  0.00    -0.207 NA
ATOM      5  N   UNL     1      35.097 -24.050 -15.445  0.00  0.00    +0.091 N 
ATOM      6  C   UNL     1      36.014 -25.028 -15.040  0.00  0.00    +0.284 C 
ATOM      7  C   UNL     1      37.653 -26.020 -13.952  0.00  0.00    +0.089 C 
ATOM      8  C   UNL     1      37.090 -26.857 -14.887  0.00  0.00    +0.118 C 
ENDROOT
BRANCH   3   9
ATOM      9  C   UNL     1      37.175 -23.661 -13.275  0.00  0.00    +0.131 C 
BRANCH   9  10
ATOM     10  C   UNL     1      37.064 -23.927 -11.774  0.00  0.00    +0.166 C 
BRANCH  10  12
ATOM     11  F   UNL     1      35.552 -24.313 -10.029  0.00  0.00    -0.232 F 
ATOM     12  C   UNL     1      35.640 -24.296 -11.388  0.00  0.00    +0.224 C 
ENDBRANCH  10  12
BRANCH  10  13
ATOM     13  O   UNL     1      37.420 -22.735 -11.074  0.00  0.00    -0.380 OA
ATOM     14  H   UNL     1      38.275 -22.413 -11.398  0.00  0.00    +0.211 HD
ENDBRANCH  10  13
ENDBRANCH   9  10
ENDBRANCH   3   9
TORSDOF 4
ENDMDL
