MODEL 1
REMARK VINA RESULT:      -6.4      0.000      0.000
REMARK  Name = 447414
REMARK  1 active torsions:
REMARK  status: ('A' for Active; 'I' for Inactive)
REMARK    1  A    between atoms: C_6  and  O_12
REMARK                            x       y       z     vdW  Elec       q    Type
REMARK                         _______ _______ _______ _____ _____    ______ ____
ROOT
ATOM      1  O   UNL     1      37.198 -26.447 -11.722  0.00  0.00    -0.296 OA
ATOM      2  C   UNL     1      37.875 -24.659 -14.649  0.00  0.00    +0.009 C 
ATOM      3  C   UNL     1      37.136 -24.552 -13.287  0.00  0.00    +0.054 C 
ATOM      4  C   UNL     1      36.906 -25.769 -15.162  0.00  0.00    +0.035 C 
ATOM      5  C   UNL     1      35.661 -24.291 -13.687  0.00  0.00    +0.036 C 
ATOM      6  C   UNL     1      35.495 -25.151 -14.962  0.00  0.00    +0.111 C 
ATOM      7  C   UNL     1      37.044 -26.895 -14.107  0.00  0.00    +0.067 C 
ATOM      8  C   UNL     1      37.143 -26.026 -12.867  0.00  0.00    +0.150 C 
ATOM      9  C   UNL     1      37.878 -23.367 -15.488  0.00  0.00    +0.001 C 
ATOM     10  C   UNL     1      39.349 -25.108 -14.548  0.00  0.00    +0.001 C 
ATOM     11  C   UNL     1      37.695 -23.600 -12.257  0.00  0.00    +0.007 C 
ENDROOT
BRANCH   6  12
ATOM     12  O   UNL     1      35.106 -24.351 -16.066  0.00  0.00    -0.384 OA
ATOM     13  H   UNL     1      35.530 -23.481 -15.999  0.00  0.00    +0.210 HD
ENDBRANCH   6  12
TORSDOF 1
ENDMDL
MODEL 2
REMARK VINA RESULT:      -6.3      1.828      2.767
REMARK  Name = 447414
REMARK  1 active torsions:
REMARK  status: ('A' for Active; 'I' for Inactive)
REMARK    1  A    between atoms: C_6  and  O_12
REMARK                            x       y       z     vdW  Elec       q    Type
REMARK                         _______ _______ _______ _____ _____    ______ ____
ROOT
ATOM      1  O   UNL     1      39.685 -24.701 -13.564  0.00  0.00    -0.296 OA
ATOM      2  C   UNL     1      36.293 -25.164 -14.273  0.00  0.00    +0.009 C 
ATOM      3  C   UNL     1      37.397 -24.074 -14.211  0.00  0.00    +0.054 C 
ATOM      4  C   UNL     1      36.337 -25.390 -12.730  0.00  0.00    +0.035 C 
ATOM      5  C   UNL     1      36.853 -23.057 -13.175  0.00  0.00    +0.036 C 
ATOM      6  C   UNL     1      36.148 -23.966 -12.140  0.00  0.00    +0.111 C 
ATOM      7  C   UNL     1      37.810 -25.785 -12.457  0.00  0.00    +0.067 C 
ATOM      8  C   UNL     1      38.478 -24.838 -13.437  0.00  0.00    +0.150 C 
ATOM      9  C   UNL     1      34.935 -24.681 -14.815  0.00  0.00    +0.001 C 
ATOM     10  C   UNL     1      36.666 -26.412 -15.103  0.00  0.00    +0.001 C 
ATOM     11  C   UNL     1      37.863 -23.470 -15.514  0.00  0.00    +0.007 C 
ENDROOT
BRANCH   6  12
ATOM     12  O   UNL     1      34.778 -23.622 -12.016  0.00  0.00    -0.384 OA
ATOM     13  H   UNL     1      34.377 -23.570 -12.897  0.00  0.00    +0.210 HD
ENDBRANCH   6  12
TORSDOF 1
ENDMDL
MODEL 3
REMARK VINA RESULT:      -6.2      1.573      3.254
REMARK  Name = 447414
REMARK  1 active torsions:
REMARK  status: ('A' for Active; 'I' for Inactive)
REMARK    1  A    between atoms: C_6  and  O_12
REMARK                            x       y       z     vdW  Elec       q    Type
REMARK                         _______ _______ _______ _____ _____    ______ ____
ROOT
ATOM      1  O   UNL     1      35.710 -25.817 -15.724  0.00  0.00    -0.296 OA
ATOM      2  C   UNL     1      37.519 -24.737 -12.935  0.00  0.00    +0.009 C 
ATOM      3  C   UNL     1      37.141 -24.332 -14.385  0.00  0.00    +0.054 C 
ATOM      4  C   UNL     1      38.370 -25.949 -13.425  0.00  0.00    +0.035 C 
ATOM      5  C   UNL     1      38.510 -24.192 -15.099  0.00  0.00    +0.036 C 
ATOM      6  C   UNL     1      39.347 -25.324 -14.458  0.00  0.00    +0.111 C 
ATOM      7  C   UNL     1      37.362 -26.802 -14.236  0.00  0.00    +0.067 C 
ATOM      8  C   UNL     1      36.599 -25.671 -14.899  0.00  0.00    +0.150 C 
ATOM      9  C   UNL     1      38.308 -23.671 -12.150  0.00  0.00    +0.001 C 
ATOM     10  C   UNL     1      36.322 -25.127 -12.041  0.00  0.00    +0.001 C 
ATOM     11  C   UNL     1      36.205 -23.161 -14.567  0.00  0.00    +0.007 C 
ENDROOT
BRANCH   6  12
ATOM     12  O   UNL     1      40.511 -24.804 -13.837  0.00  0.00    -0.384 OA
ATOM     13  H   UNL     1      40.736 -23.950 -14.237  0.00  0.00    +0.210 HD
ENDBRANCH   6  12
TORSDOF 1
ENDMDL
MODEL 4
REMARK VINA RESULT:      -6.1      1.836      3.055
REMARK  Name = 447414
REMARK  1 active torsions:
REMARK  status: ('A' for Active; 'I' for Inactive)
REMARK    1  A    between atoms: C_6  and  O_12
REMARK                            x       y       z     vdW  Elec       q    Type
REMARK                         _______ _______ _______ _____ _____    ______ ____
ROOT
ATOM      1  O   UNL     1      36.976 -26.867 -11.980  0.00  0.00    -0.296 OA
ATOM      2  C   UNL     1      36.777 -23.976 -13.937  0.00  0.00    +0.009 C 
ATOM      3  C   UNL     1      37.795 -24.960 -13.299  0.00  0.00    +0.054 C 
ATOM      4  C   UNL     1      36.304 -23.459 -12.543  0.00  0.00    +0.035 C 
ATOM      5  C   UNL     1      38.654 -24.056 -12.378  0.00  0.00    +0.036 C 
ATOM      6  C   UNL     1      37.622 -23.041 -11.835  0.00  0.00    +0.111 C 
ATOM      7  C   UNL     1      35.808 -24.739 -11.824  0.00  0.00    +0.067 C 
ATOM      8  C   UNL     1      36.872 -25.699 -12.324  0.00  0.00    +0.150 C 
ATOM      9  C   UNL     1      37.399 -22.899 -14.846  0.00  0.00    +0.001 C 
ATOM     10  C   UNL     1      35.664 -24.650 -14.769  0.00  0.00    +0.001 C 
ATOM     11  C   UNL     1      38.581 -25.856 -14.225  0.00  0.00    +0.007 C 
ENDROOT
BRANCH   6  12
ATOM     12  O   UNL     1      37.998 -21.713 -12.160  0.00  0.00    -0.384 OA
ATOM     13  H   UNL     1      38.860 -21.721 -12.605  0.00  0.00    +0.210 HD
ENDBRANCH   6  12
TORSDOF 1
ENDMDL
MODEL 5
REMARK VINA RESULT:      -6.0     18.493     19.837
REMARK  Name = 447414
REMARK  1 active torsions:
REMARK  status: ('A' for Active; 'I' for Inactive)
REMARK    1  A    between atoms: C_6  and  O_12
REMARK                            x       y       z     vdW  Elec       q    Type
REMARK                         _______ _______ _______ _____ _____    ______ ____
ROOT
ATOM      1  O   UNL     1      33.790  -9.933 -24.228  0.00  0.00    -0.296 OA
ATOM      2  C   UNL     1      31.956  -7.228 -22.986  0.00  0.00    +0.009 C 
ATOM      3  C   UNL     1      33.409  -7.731 -23.201  0.00  0.00    +0.054 C 
ATOM      4  C   UNL     1      31.659  -8.336 -21.929  0.00  0.00    +0.035 C 
ATOM      5  C   UNL     1      34.011  -7.742 -21.773  0.00  0.00    +0.036 C 
ATOM      6  C   UNL     1      32.813  -8.186 -20.900  0.00  0.00    +0.111 C 
ATOM      7  C   UNL     1      31.923  -9.656 -22.695  0.00  0.00    +0.067 C 
ATOM      8  C   UNL     1      33.135  -9.211 -23.492  0.00  0.00    +0.150 C 
ATOM      9  C   UNL     1      31.841  -5.785 -22.458  0.00  0.00    +0.001 C 
ATOM     10  C   UNL     1      31.058  -7.297 -24.240  0.00  0.00    +0.001 C 
ATOM     11  C   UNL     1      34.249  -7.030 -24.241  0.00  0.00    +0.007 C 
ENDROOT
BRANCH   6  12
ATOM     12  O   UNL     1      32.519  -7.214 -19.912  0.00  0.00    -0.384 OA
ATOM     13  H   UNL     1      32.107  -6.442 -20.331  0.00  0.00    +0.210 HD
ENDBRANCH   6  12
TORSDOF 1
ENDMDL
MODEL 6
REMARK VINA RESULT:      -6.0      1.724      3.055
REMARK  Name = 447414
REMARK  1 active torsions:
REMARK  status: ('A' for Active; 'I' for Inactive)
REMARK    1  A    between atoms: C_6  and  O_12
REMARK                            x       y       z     vdW  Elec       q    Type
REMARK                         _______ _______ _______ _____ _____    ______ ____
ROOT
ATOM      1  O   UNL     1      39.012 -23.969 -15.354  0.00  0.00    -0.296 OA
ATOM      2  C   UNL     1      36.543 -23.945 -12.879  0.00  0.00    +0.009 C 
ATOM      3  C   UNL     1      37.384 -24.903 -13.766  0.00  0.00    +0.054 C 
ATOM      4  C   UNL     1      35.775 -23.373 -14.111  0.00  0.00    +0.035 C 
ATOM      5  C   UNL     1      36.318 -25.699 -14.563  0.00  0.00    +0.036 C 
ATOM      6  C   UNL     1      35.224 -24.638 -14.826  0.00  0.00    +0.111 C 
ATOM      7  C   UNL     1      36.899 -22.813 -15.018  0.00  0.00    +0.067 C 
ATOM      8  C   UNL     1      37.931 -23.902 -14.790  0.00  0.00    +0.150 C 
ATOM      9  C   UNL     1      35.653 -24.644 -11.833  0.00  0.00    +0.001 C 
ATOM     10  C   UNL     1      37.367 -22.893 -12.107  0.00  0.00    +0.001 C 
ATOM     11  C   UNL     1      38.435 -25.749 -13.087  0.00  0.00    +0.007 C 
ENDROOT
BRANCH   6  12
ATOM     12  O   UNL     1      33.980 -25.050 -14.286  0.00  0.00    -0.384 OA
ATOM     13  H   UNL     1      33.353 -24.311 -14.317  0.00  0.00    +0.210 HD
ENDBRANCH   6  12
TORSDOF 1
ENDMDL
MODEL 7
REMARK VINA RESULT:      -6.0      1.710      2.472
REMARK  Name = 447414
REMARK  1 active torsions:
REMARK  status: ('A' for Active; 'I' for Inactive)
REMARK    1  A    between atoms: C_6  and  O_12
REMARK                            x       y       z     vdW  Elec       q    Type
REMARK                         _______ _______ _______ _____ _____    ______ ____
ROOT
ATOM      1  O   UNL     1      34.289 -24.002 -12.831  0.00  0.00    -0.296 OA
ATOM      2  C   UNL     1      37.550 -25.108 -13.441  0.00  0.00    +0.009 C 
ATOM      3  C   UNL     1      36.740 -23.866 -12.978  0.00  0.00    +0.054 C 
ATOM      4  C   UNL     1      36.954 -25.041 -14.881  0.00  0.00    +0.035 C 
ATOM      5  C   UNL     1      37.112 -22.775 -14.014  0.00  0.00    +0.036 C 
ATOM      6  C   UNL     1      37.231 -23.580 -15.330  0.00  0.00    +0.111 C 
ATOM      7  C   UNL     1      35.425 -25.145 -14.652  0.00  0.00    +0.067 C 
ATOM      8  C   UNL     1      35.331 -24.299 -13.397  0.00  0.00    +0.150 C 
ATOM      9  C   UNL     1      39.080 -24.947 -13.368  0.00  0.00    +0.001 C 
ATOM     10  C   UNL     1      37.219 -26.412 -12.682  0.00  0.00    +0.001 C 
ATOM     11  C   UNL     1      36.867 -23.443 -11.534  0.00  0.00    +0.007 C 
ENDROOT
BRANCH   6  12
ATOM     12  O   UNL     1      38.523 -23.437 -15.896  0.00  0.00    -0.384 OA
ATOM     13  H   UNL     1      38.805 -22.511 -15.829  0.00  0.00    +0.210 HD
ENDBRANCH   6  12
TORSDOF 1
ENDMDL
MODEL 8
REMARK VINA RESULT:      -6.0      1.333      2.621
REMARK  Name = 447414
REMARK  1 active torsions:
REMARK  status: ('A' for Active; 'I' for Inactive)
REMARK    1  A    between atoms: C_6  and  O_12
REMARK                            x       y       z     vdW  Elec       q    Type
REMARK                         _______ _______ _______ _____ _____    ______ ____
ROOT
ATOM      1  O   UNL     1      38.651 -23.154 -11.792  0.00  0.00    -0.296 OA
ATOM      2  C   UNL     1      37.029 -25.600 -13.692  0.00  0.00    +0.009 C 
ATOM      3  C   UNL     1      38.179 -24.559 -13.755  0.00  0.00    +0.054 C 
ATOM      4  C   UNL     1      35.939 -24.487 -13.594  0.00  0.00    +0.035 C 
ATOM      5  C   UNL     1      37.780 -23.637 -14.935  0.00  0.00    +0.036 C 
ATOM      6  C   UNL     1      36.240 -23.565 -14.808  0.00  0.00    +0.111 C 
ATOM      7  C   UNL     1      36.340 -23.689 -12.328  0.00  0.00    +0.067 C 
ATOM      8  C   UNL     1      37.846 -23.723 -12.513  0.00  0.00    +0.150 C 
ATOM      9  C   UNL     1      36.911 -26.510 -14.929  0.00  0.00    +0.001 C 
ATOM     10  C   UNL     1      37.078 -26.542 -12.470  0.00  0.00    +0.001 C 
ATOM     11  C   UNL     1      39.596 -25.079 -13.803  0.00  0.00    +0.007 C 
ENDROOT
BRANCH   6  12
ATOM     12  O   UNL     1      35.612 -24.027 -15.991  0.00  0.00    -0.384 OA
ATOM     13  H   UNL     1      34.697 -23.706 -16.019  0.00  0.00    +0.210 HD
ENDBRANCH   6  12
TORSDOF 1
ENDMDL
MODEL 9
REMARK VINA RESULT:      -5.8      1.583      2.358
REMARK  Name = 447414
REMARK  1 active torsions:
REMARK  status: ('A' for Active; 'I' for Inactive)
REMARK    1  A    between atoms: C_6  and  O_12
REMARK                            x       y       z     vdW  Elec       q    Type
REMARK                         _______ _______ _______ _____ _____    ______ ____
ROOT
ATOM      1  O   UNL     1      39.095 -23.833 -12.053  0.00  0.00    -0.296 OA
ATOM      2  C   UNL     1      36.852 -24.322 -14.690  0.00  0.00    +0.009 C 
ATOM      3  C   UNL     1      36.960 -24.386 -13.142  0.00  0.00    +0.054 C 
ATOM      4  C   UNL     1      37.837 -25.518 -14.874  0.00  0.00    +0.035 C 
ATOM      5  C   UNL     1      36.602 -25.857 -12.808  0.00  0.00    +0.036 C 
ATOM      6  C   UNL     1      37.230 -26.638 -13.985  0.00  0.00    +0.111 C 
ATOM      7  C   UNL     1      39.128 -25.044 -14.161  0.00  0.00    +0.067 C 
ATOM      8  C   UNL     1      38.484 -24.338 -12.983  0.00  0.00    +0.150 C 
ATOM      9  C   UNL     1      35.437 -24.560 -15.251  0.00  0.00    +0.001 C 
ATOM     10  C   UNL     1      37.344 -22.999 -15.316  0.00  0.00    +0.001 C 
ATOM     11  C   UNL     1      36.210 -23.349 -12.341  0.00  0.00    +0.007 C 
ENDROOT
BRANCH   6  12
ATOM     12  O   UNL     1      36.246 -27.388 -14.677  0.00  0.00    -0.384 OA
ATOM     13  H   UNL     1      35.662 -26.784 -15.162  0.00  0.00    +0.210 HD
ENDBRANCH   6  12
TORSDOF 1
ENDMDL
