MODEL 1
REMARK VINA RESULT:     -11.1      0.000      0.000
REMARK  Name = 34040
REMARK  5 active torsions:
REMARK  status: ('A' for Active; 'I' for Inactive)
REMARK    1  A    between atoms: C_3  and  O_20
REMARK    2  A    between atoms: C_6  and  C_22
REMARK    3  A    between atoms: C_22  and  O_23
REMARK    4  A    between atoms: O_23  and  C_25
REMARK    5  A    between atoms: C_25  and  C_28
REMARK                            x       y       z     vdW  Elec       q    Type
REMARK                         _______ _______ _______ _____ _____    ______ ____
ROOT
ATOM      1  N   UNL     1      32.548 -15.037 -21.593  0.00  0.00    +0.389 N 
ATOM      2  N   UNL     1      32.173  -9.075 -22.344  0.00  0.00    -0.284 N 
ATOM      3  C   UNL     1      33.340 -13.463 -23.405  0.00  0.00    +0.095 C 
ATOM      4  C   UNL     1      32.857 -13.615 -21.893  0.00  0.00    -0.024 C 
ATOM      5  C   UNL     1      34.532 -14.395 -23.675  0.00  0.00    +0.031 C 
ATOM      6  C   UNL     1      34.218 -15.838 -23.262  0.00  0.00    +0.026 C 
ATOM      7  C   UNL     1      31.654 -12.653 -21.548  0.00  0.00    +0.010 C 
ATOM      8  C   UNL     1      33.634 -12.005 -23.723  0.00  0.00    +0.001 C 
ATOM      9  C   UNL     1      33.730 -15.890 -21.810  0.00  0.00    -0.073 C 
ATOM     10  C   UNL     1      32.906 -11.043 -23.009  0.00  0.00    +0.009 C 
ATOM     11  C   UNL     1      31.962 -11.260 -21.985  0.00  0.00    -0.008 C 
ATOM     12  C   UNL     1      33.039  -9.684 -23.226  0.00  0.00    +0.051 C 
ATOM     13  C   UNL     1      32.061 -15.239 -20.224  0.00  0.00    -0.100 C 
ATOM     14  C   UNL     1      34.508 -11.513 -24.701  0.00  0.00    -0.002 C 
ATOM     15  C   UNL     1      31.514 -10.023 -21.587  0.00  0.00    +0.061 C 
ATOM     16  C   UNL     1      33.918  -9.186 -24.187  0.00  0.00    +0.015 C 
ATOM     17  C   UNL     1      34.649 -10.133 -24.921  0.00  0.00    +0.001 C 
ATOM     18  C   UNL     1      31.974  -7.647 -22.216  0.00  0.00    +0.117 C 
ATOM     19  H   UNL     1      31.801 -15.302 -22.235  0.00  0.00    -0.080 HD
ENDROOT
BRANCH   3  20
ATOM     20  O   UNL     1      32.250 -13.856 -24.252  0.00  0.00    -0.354 OA
ATOM     21  C   UNL     1      32.715 -14.245 -25.533  0.00  0.00    +0.174 C 
ENDBRANCH   3  20
BRANCH   6  22
ATOM     22  C   UNL     1      35.446 -16.728 -23.450  0.00  0.00    +0.207 C 
BRANCH  22  23
ATOM     23  O   UNL     1      35.437 -17.721 -22.443  0.00  0.00    -0.445 OA
BRANCH  23  25
ATOM     24  O   UNL     1      34.807 -19.353 -23.940  0.00  0.00    -0.245 OA
ATOM     25  C   UNL     1      34.931 -18.938 -22.798  0.00  0.00    +0.343 C 
BRANCH  25  28
ATOM     26 BR   UNL     1      36.369 -21.734 -18.493  0.00  0.00    -0.047 Br
ATOM     27  N   UNL     1      32.785 -20.621 -20.247  0.00  0.00    -0.242 NA
ATOM     28  C   UNL     1      34.538 -19.721 -21.600  0.00  0.00    +0.095 C 
ATOM     29  C   UNL     1      35.504 -20.249 -20.778  0.00  0.00    +0.016 C 
ATOM     30  C   UNL     1      33.212 -19.917 -21.319  0.00  0.00    +0.105 C 
ATOM     31  C   UNL     1      35.104 -20.979 -19.665  0.00  0.00    +0.054 C 
ATOM     32  C   UNL     1      33.745 -21.136 -19.445  0.00  0.00    +0.106 C 
ENDBRANCH  25  28
ENDBRANCH  23  25
ENDBRANCH  22  23
ENDBRANCH   6  22
TORSDOF 5
ENDMDL
MODEL 2
REMARK VINA RESULT:     -10.3      4.396      9.873
REMARK  Name = 34040
REMARK  5 active torsions:
REMARK  status: ('A' for Active; 'I' for Inactive)
REMARK    1  A    between atoms: C_3  and  O_20
REMARK    2  A    between atoms: C_6  and  C_22
REMARK    3  A    between atoms: C_22  and  O_23
REMARK    4  A    between atoms: O_23  and  C_25
REMARK    5  A    between atoms: C_25  and  C_28
REMARK                            x       y       z     vdW  Elec       q    Type
REMARK                         _______ _______ _______ _____ _____    ______ ____
ROOT
ATOM      1  N   UNL     1      33.412 -12.805 -25.981  0.00  0.00    +0.389 N 
ATOM      2  N   UNL     1      34.679 -18.075 -23.359  0.00  0.00    -0.284 N 
ATOM      3  C   UNL     1      33.548 -13.556 -23.571  0.00  0.00    +0.095 C 
ATOM      4  C   UNL     1      33.955 -13.857 -25.083  0.00  0.00    -0.024 C 
ATOM      5  C   UNL     1      34.010 -12.145 -23.171  0.00  0.00    +0.031 C 
ATOM      6  C   UNL     1      33.519 -11.093 -24.171  0.00  0.00    +0.026 C 
ATOM      7  C   UNL     1      33.536 -15.310 -25.539  0.00  0.00    +0.010 C 
ATOM      8  C   UNL     1      34.081 -14.645 -22.653  0.00  0.00    +0.001 C 
ATOM      9  C   UNL     1      33.922 -11.475 -25.600  0.00  0.00    -0.073 C 
ATOM     10  C   UNL     1      34.229 -15.923 -23.207  0.00  0.00    +0.009 C 
ATOM     11  C   UNL     1      33.992 -16.319 -24.539  0.00  0.00    -0.008 C 
ATOM     12  C   UNL     1      34.660 -17.016 -22.478  0.00  0.00    +0.051 C 
ATOM     13  C   UNL     1      33.721 -13.045 -27.394  0.00  0.00    -0.100 C 
ATOM     14  C   UNL     1      34.380 -14.529 -21.288  0.00  0.00    -0.002 C 
ATOM     15  C   UNL     1      34.274 -17.662 -24.612  0.00  0.00    +0.061 C 
ATOM     16  C   UNL     1      34.974 -16.905 -21.124  0.00  0.00    +0.015 C 
ATOM     17  C   UNL     1      34.822 -15.635 -20.546  0.00  0.00    +0.001 C 
ATOM     18  C   UNL     1      35.066 -19.430 -23.032  0.00  0.00    +0.117 C 
ATOM     19  H   UNL     1      32.399 -12.838 -25.869  0.00  0.00    -0.080 HD
ENDROOT
BRANCH   3  20
ATOM     20  O   UNL     1      32.116 -13.611 -23.485  0.00  0.00    -0.354 OA
ATOM     21  C   UNL     1      31.644 -12.868 -22.375  0.00  0.00    +0.174 C 
ENDBRANCH   3  20
BRANCH   6  22
ATOM     22  C   UNL     1      34.066  -9.713 -23.808  0.00  0.00    +0.207 C 
BRANCH  22  23
ATOM     23  O   UNL     1      33.054  -8.754 -24.045  0.00  0.00    -0.445 OA
BRANCH  23  25
ATOM     24  O   UNL     1      32.568  -8.510 -21.808  0.00  0.00    -0.245 OA
ATOM     25  C   UNL     1      32.588  -8.082 -22.952  0.00  0.00    +0.343 C 
BRANCH  25  28
ATOM     26 BR   UNL     1      32.606  -3.995 -26.375  0.00  0.00    -0.047 Br
ATOM     27  N   UNL     1      30.713  -4.857 -22.792  0.00  0.00    -0.242 NA
ATOM     28  C   UNL     1      32.093  -6.734 -23.326  0.00  0.00    +0.095 C 
ATOM     29  C   UNL     1      32.531  -6.139 -24.484  0.00  0.00    +0.016 C 
ATOM     30  C   UNL     1      31.202  -6.086 -22.513  0.00  0.00    +0.105 C 
ATOM     31  C   UNL     1      32.051  -4.875 -24.806  0.00  0.00    +0.054 C 
ATOM     32  C   UNL     1      31.152  -4.281 -23.935  0.00  0.00    +0.106 C 
ENDBRANCH  25  28
ENDBRANCH  23  25
ENDBRANCH  22  23
ENDBRANCH   6  22
TORSDOF 5
ENDMDL
MODEL 3
REMARK VINA RESULT:     -10.3      3.303      8.635
REMARK  Name = 34040
REMARK  5 active torsions:
REMARK  status: ('A' for Active; 'I' for Inactive)
REMARK    1  A    between atoms: C_3  and  O_20
REMARK    2  A    between atoms: C_6  and  C_22
REMARK    3  A    between atoms: C_22  and  O_23
REMARK    4  A    between atoms: O_23  and  C_25
REMARK    5  A    between atoms: C_25  and  C_28
REMARK                            x       y       z     vdW  Elec       q    Type
REMARK                         _______ _______ _______ _____ _____    ______ ____
ROOT
ATOM      1  N   UNL     1      33.448 -12.964 -26.136  0.00  0.00    +0.389 N 
ATOM      2  N   UNL     1      34.688 -18.208 -23.451  0.00  0.00    -0.284 N 
ATOM      3  C   UNL     1      33.595 -13.682 -23.717  0.00  0.00    +0.095 C 
ATOM      4  C   UNL     1      33.988 -14.008 -25.228  0.00  0.00    -0.024 C 
ATOM      5  C   UNL     1      34.072 -12.270 -23.341  0.00  0.00    +0.031 C 
ATOM      6  C   UNL     1      33.583 -11.228 -24.352  0.00  0.00    +0.026 C 
ATOM      7  C   UNL     1      33.552 -15.463 -25.661  0.00  0.00    +0.010 C 
ATOM      8  C   UNL     1      34.126 -14.763 -22.788  0.00  0.00    +0.001 C 
ATOM      9  C   UNL     1      33.971 -11.634 -25.778  0.00  0.00    -0.073 C 
ATOM     10  C   UNL     1      34.258 -16.050 -23.326  0.00  0.00    +0.009 C 
ATOM     11  C   UNL     1      34.007 -16.462 -24.650  0.00  0.00    -0.008 C 
ATOM     12  C   UNL     1      34.685 -17.137 -22.584  0.00  0.00    +0.051 C 
ATOM     13  C   UNL     1      33.743 -13.226 -27.549  0.00  0.00    -0.100 C 
ATOM     14  C   UNL     1      34.436 -14.630 -21.428  0.00  0.00    -0.002 C 
ATOM     15  C   UNL     1      34.277 -17.809 -24.706  0.00  0.00    +0.061 C 
ATOM     16  C   UNL     1      35.011 -17.010 -21.234  0.00  0.00    +0.015 C 
ATOM     17  C   UNL     1      34.875 -15.730 -20.673  0.00  0.00    +0.001 C 
ATOM     18  C   UNL     1      35.066 -19.562 -23.108  0.00  0.00    +0.117 C 
ATOM     19  H   UNL     1      32.435 -12.986 -26.017  0.00  0.00    -0.080 HD
ENDROOT
BRANCH   3  20
ATOM     20  O   UNL     1      32.164 -13.724 -23.620  0.00  0.00    -0.354 OA
ATOM     21  C   UNL     1      31.713 -13.045 -22.461  0.00  0.00    +0.174 C 
ENDBRANCH   3  20
BRANCH   6  22
ATOM     22  C   UNL     1      34.146  -9.848 -24.012  0.00  0.00    +0.207 C 
BRANCH  22  23
ATOM     23  O   UNL     1      33.076  -8.922 -23.991  0.00  0.00    -0.445 OA
BRANCH  23  25
ATOM     24  O   UNL     1      33.768  -6.746 -23.691  0.00  0.00    -0.245 OA
ATOM     25  C   UNL     1      33.277  -7.782 -23.268  0.00  0.00    +0.343 C 
BRANCH  25  28
ATOM     26 BR   UNL     1      31.243 -10.931 -19.477  0.00  0.00    -0.047 Br
ATOM     27  N   UNL     1      32.468  -6.980 -19.712  0.00  0.00    -0.242 NA
ATOM     28  C   UNL     1      32.818  -7.953 -21.866  0.00  0.00    +0.095 C 
ATOM     29  C   UNL     1      32.339  -9.169 -21.445  0.00  0.00    +0.016 C 
ATOM     30  C   UNL     1      32.872  -6.894 -20.998  0.00  0.00    +0.105 C 
ATOM     31  C   UNL     1      31.914  -9.296 -20.127  0.00  0.00    +0.054 C 
ATOM     32  C   UNL     1      31.998  -8.183 -19.307  0.00  0.00    +0.106 C 
ENDBRANCH  25  28
ENDBRANCH  23  25
ENDBRANCH  22  23
ENDBRANCH   6  22
TORSDOF 5
ENDMDL
MODEL 4
REMARK VINA RESULT:      -9.6      3.468      6.418
REMARK  Name = 34040
REMARK  5 active torsions:
REMARK  status: ('A' for Active; 'I' for Inactive)
REMARK    1  A    between atoms: C_3  and  O_20
REMARK    2  A    between atoms: C_6  and  C_22
REMARK    3  A    between atoms: C_22  and  O_23
REMARK    4  A    between atoms: O_23  and  C_25
REMARK    5  A    between atoms: C_25  and  C_28
REMARK                            x       y       z     vdW  Elec       q    Type
REMARK                         _______ _______ _______ _____ _____    ______ ____
ROOT
ATOM      1  N   UNL     1      34.418  -9.821 -24.141  0.00  0.00    +0.389 N 
ATOM      2  N   UNL     1      33.556  -4.300 -26.382  0.00  0.00    -0.284 N 
ATOM      3  C   UNL     1      32.890  -7.910 -23.506  0.00  0.00    +0.095 C 
ATOM      4  C   UNL     1      33.802  -8.565 -24.639  0.00  0.00    -0.024 C 
ATOM      5  C   UNL     1      31.845  -8.926 -23.017  0.00  0.00    +0.031 C 
ATOM      6  C   UNL     1      32.501 -10.248 -22.604  0.00  0.00    +0.026 C 
ATOM      7  C   UNL     1      34.874  -7.553 -25.205  0.00  0.00    +0.010 C 
ATOM      8  C   UNL     1      32.277  -6.611 -24.005  0.00  0.00    +0.001 C 
ATOM      9  C   UNL     1      33.384 -10.789 -23.735  0.00  0.00    -0.073 C 
ATOM     10  C   UNL     1      33.006  -5.896 -24.966  0.00  0.00    +0.009 C 
ATOM     11  C   UNL     1      34.225  -6.261 -25.572  0.00  0.00    -0.008 C 
ATOM     12  C   UNL     1      32.591  -4.679 -25.474  0.00  0.00    +0.051 C 
ATOM     13  C   UNL     1      35.301 -10.455 -25.126  0.00  0.00    -0.100 C 
ATOM     14  C   UNL     1      31.091  -6.010 -23.562  0.00  0.00    -0.002 C 
ATOM     15  C   UNL     1      34.553  -5.253 -26.447  0.00  0.00    +0.061 C 
ATOM     16  C   UNL     1      31.404  -4.083 -25.050  0.00  0.00    +0.015 C 
ATOM     17  C   UNL     1      30.664  -4.777 -24.080  0.00  0.00    +0.001 C 
ATOM     18  C   UNL     1      33.541  -3.081 -27.161  0.00  0.00    +0.117 C 
ATOM     19  H   UNL     1      34.984  -9.554 -23.336  0.00  0.00    -0.080 HD
ENDROOT
BRANCH   3  20
ATOM     20  O   UNL     1      33.744  -7.565 -22.405  0.00  0.00    -0.354 OA
ATOM     21  C   UNL     1      32.996  -7.399 -21.214  0.00  0.00    +0.174 C 
ENDBRANCH   3  20
BRANCH   6  22
ATOM     22  C   UNL     1      31.438 -11.273 -22.212  0.00  0.00    +0.207 C 
BRANCH  22  23
ATOM     23  O   UNL     1      31.980 -12.568 -22.385  0.00  0.00    -0.445 OA
BRANCH  23  25
ATOM     24  O   UNL     1      32.094 -12.902 -20.110  0.00  0.00    -0.245 OA
ATOM     25  C   UNL     1      32.398 -13.206 -21.253  0.00  0.00    +0.343 C 
BRANCH  25  28
ATOM     26 BR   UNL     1      34.362 -16.569 -24.895  0.00  0.00    -0.047 Br
ATOM     27  N   UNL     1      34.874 -15.969 -20.827  0.00  0.00    -0.242 NA
ATOM     28  C   UNL     1      33.293 -14.344 -21.583  0.00  0.00    +0.095 C 
ATOM     29  C   UNL     1      33.366 -14.808 -22.874  0.00  0.00    +0.016 C 
ATOM     30  C   UNL     1      34.042 -14.929 -20.597  0.00  0.00    +0.105 C 
ATOM     31  C   UNL     1      34.211 -15.877 -23.150  0.00  0.00    +0.054 C 
ATOM     32  C   UNL     1      34.937 -16.417 -22.102  0.00  0.00    +0.106 C 
ENDBRANCH  25  28
ENDBRANCH  23  25
ENDBRANCH  22  23
ENDBRANCH   6  22
TORSDOF 5
ENDMDL
MODEL 5
REMARK VINA RESULT:      -9.2      8.254     12.210
REMARK  Name = 34040
REMARK  5 active torsions:
REMARK  status: ('A' for Active; 'I' for Inactive)
REMARK    1  A    between atoms: C_3  and  O_20
REMARK    2  A    between atoms: C_6  and  C_22
REMARK    3  A    between atoms: C_22  and  O_23
REMARK    4  A    between atoms: O_23  and  C_25
REMARK    5  A    between atoms: C_25  and  C_28
REMARK                            x       y       z     vdW  Elec       q    Type
REMARK                         _______ _______ _______ _____ _____    ______ ____
ROOT
ATOM      1  N   UNL     1      31.992 -24.002 -15.448  0.00  0.00    +0.389 N 
ATOM      2  N   UNL     1      34.953 -21.205 -19.882  0.00  0.00    -0.284 N 
ATOM      3  C   UNL     1      34.432 -23.470 -15.839  0.00  0.00    +0.095 C 
ATOM      4  C   UNL     1      32.920 -23.132 -16.216  0.00  0.00    -0.024 C 
ATOM      5  C   UNL     1      34.636 -23.352 -14.320  0.00  0.00    +0.031 C 
ATOM      6  C   UNL     1      33.601 -24.181 -13.552  0.00  0.00    +0.026 C 
ATOM      7  C   UNL     1      32.659 -23.203 -17.772  0.00  0.00    +0.010 C 
ATOM      8  C   UNL     1      35.385 -22.598 -16.642  0.00  0.00    +0.001 C 
ATOM      9  C   UNL     1      32.180 -23.819 -13.998  0.00  0.00    -0.073 C 
ATOM     10  C   UNL     1      34.945 -22.176 -17.904  0.00  0.00    +0.009 C 
ATOM     11  C   UNL     1      33.694 -22.418 -18.507  0.00  0.00    -0.008 C 
ATOM     12  C   UNL     1      35.723 -21.418 -18.759  0.00  0.00    +0.051 C 
ATOM     13  C   UNL     1      30.583 -23.766 -15.778  0.00  0.00    -0.100 C 
ATOM     14  C   UNL     1      36.688 -22.222 -16.289  0.00  0.00    -0.002 C 
ATOM     15  C   UNL     1      33.721 -21.809 -19.739  0.00  0.00    +0.061 C 
ATOM     16  C   UNL     1      37.015 -21.027 -18.409  0.00  0.00    +0.015 C 
ATOM     17  C   UNL     1      37.479 -21.448 -17.153  0.00  0.00    +0.001 C 
ATOM     18  C   UNL     1      35.364 -20.457 -21.050  0.00  0.00    +0.117 C 
ATOM     19  H   UNL     1      32.222 -24.959 -15.714  0.00  0.00    -0.080 HD
ENDROOT
BRANCH   3  20
ATOM     20  O   UNL     1      34.687 -24.827 -16.232  0.00  0.00    -0.354 OA
ATOM     21  C   UNL     1      35.714 -25.401 -15.443  0.00  0.00    +0.174 C 
ENDBRANCH   3  20
BRANCH   6  22
ATOM     22  C   UNL     1      33.762 -23.976 -12.046  0.00  0.00    +0.207 C 
BRANCH  22  23
ATOM     23  O   UNL     1      34.588 -25.007 -11.540  0.00  0.00    -0.445 OA
BRANCH  23  25
ATOM     24  O   UNL     1      35.471 -24.614  -9.450  0.00  0.00    -0.245 OA
ATOM     25  C   UNL     1      35.566 -24.625 -10.668  0.00  0.00    +0.343 C 
BRANCH  25  28
ATOM     26 BR   UNL     1      39.598 -25.893 -13.919  0.00  0.00    -0.047 Br
ATOM     27  N   UNL     1      38.362 -22.485 -11.912  0.00  0.00    -0.242 NA
ATOM     28  C   UNL     1      36.794 -24.213 -11.393  0.00  0.00    +0.095 C 
ATOM     29  C   UNL     1      37.470 -25.121 -12.171  0.00  0.00    +0.016 C 
ATOM     30  C   UNL     1      37.251 -22.926 -11.281  0.00  0.00    +0.105 C 
ATOM     31  C   UNL     1      38.618 -24.705 -12.835  0.00  0.00    +0.054 C 
ATOM     32  C   UNL     1      39.019 -23.388 -12.675  0.00  0.00    +0.106 C 
ENDBRANCH  25  28
ENDBRANCH  23  25
ENDBRANCH  22  23
ENDBRANCH   6  22
TORSDOF 5
ENDMDL
MODEL 6
REMARK VINA RESULT:      -9.1      4.870     11.155
REMARK  Name = 34040
REMARK  5 active torsions:
REMARK  status: ('A' for Active; 'I' for Inactive)
REMARK    1  A    between atoms: C_3  and  O_20
REMARK    2  A    between atoms: C_6  and  C_22
REMARK    3  A    between atoms: C_22  and  O_23
REMARK    4  A    between atoms: O_23  and  C_25
REMARK    5  A    between atoms: C_25  and  C_28
REMARK                            x       y       z     vdW  Elec       q    Type
REMARK                         _______ _______ _______ _____ _____    ______ ____
ROOT
ATOM      1  N   UNL     1      36.532 -22.839 -16.891  0.00  0.00    +0.389 N 
ATOM      2  N   UNL     1      31.589 -24.180 -13.725  0.00  0.00    -0.284 N 
ATOM      3  C   UNL     1      34.071 -22.909 -17.463  0.00  0.00    +0.095 C 
ATOM      4  C   UNL     1      35.167 -22.828 -16.307  0.00  0.00    -0.024 C 
ATOM      5  C   UNL     1      34.288 -21.772 -18.476  0.00  0.00    +0.031 C 
ATOM      6  C   UNL     1      35.734 -21.748 -18.985  0.00  0.00    +0.026 C 
ATOM      7  C   UNL     1      34.971 -23.953 -15.216  0.00  0.00    +0.010 C 
ATOM      8  C   UNL     1      32.672 -22.922 -16.867  0.00  0.00    +0.001 C 
ATOM      9  C   UNL     1      36.720 -21.705 -17.812  0.00  0.00    -0.073 C 
ATOM     10  C   UNL     1      32.535 -23.479 -15.588  0.00  0.00    +0.009 C 
ATOM     11  C   UNL     1      33.552 -23.986 -14.754  0.00  0.00    -0.008 C 
ATOM     12  C   UNL     1      31.317 -23.597 -14.944  0.00  0.00    +0.051 C 
ATOM     13  C   UNL     1      37.589 -22.805 -15.874  0.00  0.00    -0.100 C 
ATOM     14  C   UNL     1      31.487 -22.499 -17.482  0.00  0.00    -0.002 C 
ATOM     15  C   UNL     1      32.943 -24.422 -13.602  0.00  0.00    +0.061 C 
ATOM     16  C   UNL     1      30.135 -23.164 -15.543  0.00  0.00    +0.015 C 
ATOM     17  C   UNL     1      30.249 -22.613 -16.829  0.00  0.00    +0.001 C 
ATOM     18  C   UNL     1      30.608 -24.500 -12.712  0.00  0.00    +0.117 C 
ATOM     19  H   UNL     1      36.612 -23.721 -17.398  0.00  0.00    -0.080 HD
ENDROOT
BRANCH   3  20
ATOM     20  O   UNL     1      34.241 -24.163 -18.139  0.00  0.00    -0.354 OA
ATOM     21  C   UNL     1      33.938 -24.045 -19.517  0.00  0.00    +0.174 C 
ENDBRANCH   3  20
BRANCH   6  22
ATOM     22  C   UNL     1      35.952 -20.556 -19.917  0.00  0.00    +0.207 C 
BRANCH  22  23
ATOM     23  O   UNL     1      35.160 -20.742 -21.074  0.00  0.00    -0.445 OA
BRANCH  23  25
ATOM     24  O   UNL     1      32.941 -20.199 -20.788  0.00  0.00    -0.245 OA
ATOM     25  C   UNL     1      34.064 -19.938 -21.193  0.00  0.00    +0.343 C 
BRANCH  25  28
ATOM     26 BR   UNL     1      34.286 -14.611 -21.158  0.00  0.00    -0.047 Br
ATOM     27  N   UNL     1      35.244 -17.604 -23.859  0.00  0.00    -0.242 NA
ATOM     28  C   UNL     1      34.404 -18.674 -21.893  0.00  0.00    +0.095 C 
ATOM     29  C   UNL     1      34.205 -17.468 -21.267  0.00  0.00    +0.016 C 
ATOM     30  C   UNL     1      34.915 -18.716 -23.164  0.00  0.00    +0.105 C 
ATOM     31  C   UNL     1      34.532 -16.302 -21.950  0.00  0.00    +0.054 C 
ATOM     32  C   UNL     1      35.043 -16.422 -23.232  0.00  0.00    +0.106 C 
ENDBRANCH  25  28
ENDBRANCH  23  25
ENDBRANCH  22  23
ENDBRANCH   6  22
TORSDOF 5
ENDMDL
MODEL 7
REMARK VINA RESULT:      -8.9      2.653      4.645
REMARK  Name = 34040
REMARK  5 active torsions:
REMARK  status: ('A' for Active; 'I' for Inactive)
REMARK    1  A    between atoms: C_3  and  O_20
REMARK    2  A    between atoms: C_6  and  C_22
REMARK    3  A    between atoms: C_22  and  O_23
REMARK    4  A    between atoms: O_23  and  C_25
REMARK    5  A    between atoms: C_25  and  C_28
REMARK                            x       y       z     vdW  Elec       q    Type
REMARK                         _______ _______ _______ _____ _____    ______ ____
ROOT
ATOM      1  N   UNL     1      34.803 -18.057 -23.519  0.00  0.00    +0.389 N 
ATOM      2  N   UNL     1      33.091 -12.286 -23.650  0.00  0.00    -0.284 N 
ATOM      3  C   UNL     1      33.931 -16.466 -21.760  0.00  0.00    +0.095 C 
ATOM      4  C   UNL     1      34.066 -16.784 -23.317  0.00  0.00    -0.024 C 
ATOM      5  C   UNL     1      33.273 -17.650 -21.034  0.00  0.00    +0.031 C 
ATOM      6  C   UNL     1      33.996 -18.966 -21.343  0.00  0.00    +0.026 C 
ATOM      7  C   UNL     1      34.706 -15.585 -24.121  0.00  0.00    +0.010 C 
ATOM      8  C   UNL     1      33.198 -15.150 -21.550  0.00  0.00    +0.001 C 
ATOM      9  C   UNL     1      34.112 -19.177 -22.856  0.00  0.00    -0.073 C 
ATOM     10  C   UNL     1      33.325 -14.187 -22.560  0.00  0.00    +0.009 C 
ATOM     11  C   UNL     1      34.012 -14.307 -23.785  0.00  0.00    -0.008 C 
ATOM     12  C   UNL     1      32.750 -12.932 -22.482  0.00  0.00    +0.051 C 
ATOM     13  C   UNL     1      34.994 -18.388 -24.935  0.00  0.00    -0.100 C 
ATOM     14  C   UNL     1      32.460 -14.764 -20.423  0.00  0.00    -0.002 C 
ATOM     15  C   UNL     1      33.859 -13.112 -24.447  0.00  0.00    +0.061 C 
ATOM     16  C   UNL     1      32.001 -12.546 -21.371  0.00  0.00    +0.015 C 
ATOM     17  C   UNL     1      31.871 -13.492 -20.342  0.00  0.00    +0.001 C 
ATOM     18  C   UNL     1      32.708 -10.937 -24.005  0.00  0.00    +0.117 C 
ATOM     19  H   UNL     1      35.723 -17.916 -23.102  0.00  0.00    -0.080 HD
ENDROOT
BRANCH   3  20
ATOM     20  O   UNL     1      35.255 -16.286 -21.236  0.00  0.00    -0.354 OA
ATOM     21  C   UNL     1      35.218 -15.683 -19.954  0.00  0.00    +0.174 C 
ENDBRANCH   3  20
BRANCH   6  22
ATOM     22  C   UNL     1      33.270 -20.141 -20.688  0.00  0.00    +0.207 C 
BRANCH  22  23
ATOM     23  O   UNL     1      34.235 -20.983 -20.086  0.00  0.00    -0.445 OA
BRANCH  23  25
ATOM     24  O   UNL     1      32.661 -22.409 -19.197  0.00  0.00    -0.245 OA
ATOM     25  C   UNL     1      33.766 -21.888 -19.179  0.00  0.00    +0.343 C 
BRANCH  25  28
ATOM     26 BR   UNL     1      35.004 -24.076 -14.477  0.00  0.00    -0.047 Br
ATOM     27  N   UNL     1      37.046 -21.961 -17.396  0.00  0.00    -0.242 NA
ATOM     28  C   UNL     1      34.784 -22.174 -18.137  0.00  0.00    +0.095 C 
ATOM     29  C   UNL     1      34.433 -22.875 -17.008  0.00  0.00    +0.016 C 
ATOM     30  C   UNL     1      36.071 -21.737 -18.305  0.00  0.00    +0.105 C 
ATOM     31  C   UNL     1      35.409 -23.125 -16.050  0.00  0.00    +0.054 C 
ATOM     32  C   UNL     1      36.689 -22.651 -16.289  0.00  0.00    +0.106 C 
ENDBRANCH  25  28
ENDBRANCH  23  25
ENDBRANCH  22  23
ENDBRANCH   6  22
TORSDOF 5
ENDMDL
MODEL 8
REMARK VINA RESULT:      -8.7      1.725      3.251
REMARK  Name = 34040
REMARK  5 active torsions:
REMARK  status: ('A' for Active; 'I' for Inactive)
REMARK    1  A    between atoms: C_3  and  O_20
REMARK    2  A    between atoms: C_6  and  C_22
REMARK    3  A    between atoms: C_22  and  O_23
REMARK    4  A    between atoms: O_23  and  C_25
REMARK    5  A    between atoms: C_25  and  C_28
REMARK                            x       y       z     vdW  Elec       q    Type
REMARK                         _______ _______ _______ _____ _____    ______ ____
ROOT
ATOM      1  N   UNL     1      34.444 -16.164 -23.764  0.00  0.00    +0.389 N 
ATOM      2  N   UNL     1      32.455 -10.488 -23.485  0.00  0.00    -0.284 N 
ATOM      3  C   UNL     1      33.558 -14.726 -21.883  0.00  0.00    +0.095 C 
ATOM      4  C   UNL     1      33.653 -14.943 -23.460  0.00  0.00    -0.024 C 
ATOM      5  C   UNL     1      32.982 -15.983 -21.211  0.00  0.00    +0.031 C 
ATOM      6  C   UNL     1      33.757 -17.240 -21.623  0.00  0.00    +0.026 C 
ATOM      7  C   UNL     1      34.207 -13.668 -24.209  0.00  0.00    +0.010 C 
ATOM      8  C   UNL     1      32.770 -13.463 -21.569  0.00  0.00    +0.001 C 
ATOM      9  C   UNL     1      33.830 -17.354 -23.150  0.00  0.00    -0.073 C 
ATOM     10  C   UNL     1      32.816 -12.436 -22.522  0.00  0.00    +0.009 C 
ATOM     11  C   UNL     1      33.466 -12.448 -23.773  0.00  0.00    -0.008 C 
ATOM     12  C   UNL     1      32.185 -11.218 -22.348  0.00  0.00    +0.051 C 
ATOM     13  C   UNL     1      34.601 -16.399 -25.203  0.00  0.00    -0.100 C 
ATOM     14  C   UNL     1      32.054 -13.183 -20.398  0.00  0.00    -0.002 C 
ATOM     15  C   UNL     1      33.232 -11.225 -24.355  0.00  0.00    +0.061 C 
ATOM     16  C   UNL     1      31.457 -10.938 -21.193  0.00  0.00    +0.015 C 
ATOM     17  C   UNL     1      31.408 -11.949 -20.220  0.00  0.00    +0.001 C 
ATOM     18  C   UNL     1      31.995  -9.140 -23.744  0.00  0.00    +0.117 C 
ATOM     19  H   UNL     1      35.370 -16.002 -23.368  0.00  0.00    -0.080 HD
ENDROOT
BRANCH   3  20
ATOM     20  O   UNL     1      34.890 -14.512 -21.391  0.00  0.00    -0.354 OA
ATOM     21  C   UNL     1      35.015 -14.956 -20.052  0.00  0.00    +0.174 C 
ENDBRANCH   3  20
BRANCH   6  22
ATOM     22  C   UNL     1      33.111 -18.487 -21.019  0.00  0.00    +0.207 C 
BRANCH  22  23
ATOM     23  O   UNL     1      33.754 -19.627 -21.555  0.00  0.00    -0.445 OA
BRANCH  23  25
ATOM     24  O   UNL     1      36.037 -19.613 -21.255  0.00  0.00    -0.245 OA
ATOM     25  C   UNL     1      34.920 -20.004 -20.953  0.00  0.00    +0.343 C 
BRANCH  25  28
ATOM     26 BR   UNL     1      36.663 -22.550 -16.605  0.00  0.00    -0.047 Br
ATOM     27  N   UNL     1      33.154 -22.499 -18.807  0.00  0.00    -0.242 NA
ATOM     28  C   UNL     1      34.664 -20.972 -19.857  0.00  0.00    +0.095 C 
ATOM     29  C   UNL     1      35.642 -21.230 -18.927  0.00  0.00    +0.016 C 
ATOM     30  C   UNL     1      33.452 -21.606 -19.777  0.00  0.00    +0.105 C 
ATOM     31  C   UNL     1      35.373 -22.143 -17.914  0.00  0.00    +0.054 C 
ATOM     32  C   UNL     1      34.125 -22.745 -17.898  0.00  0.00    +0.106 C 
ENDBRANCH  25  28
ENDBRANCH  23  25
ENDBRANCH  22  23
ENDBRANCH   6  22
TORSDOF 5
ENDMDL
MODEL 9
REMARK VINA RESULT:      -8.4      5.078     10.470
REMARK  Name = 34040
REMARK  5 active torsions:
REMARK  status: ('A' for Active; 'I' for Inactive)
REMARK    1  A    between atoms: C_3  and  O_20
REMARK    2  A    between atoms: C_6  and  C_22
REMARK    3  A    between atoms: C_22  and  O_23
REMARK    4  A    between atoms: O_23  and  C_25
REMARK    5  A    between atoms: C_25  and  C_28
REMARK                            x       y       z     vdW  Elec       q    Type
REMARK                         _______ _______ _______ _____ _____    ______ ____
ROOT
ATOM      1  N   UNL     1      32.233 -11.029 -21.347  0.00  0.00    +0.389 N 
ATOM      2  N   UNL     1      33.770 -15.793 -24.692  0.00  0.00    -0.284 N 
ATOM      3  C   UNL     1      33.050 -11.289 -23.725  0.00  0.00    +0.095 C 
ATOM      4  C   UNL     1      32.385 -11.999 -22.462  0.00  0.00    -0.024 C 
ATOM      5  C   UNL     1      32.229 -10.053 -24.128  0.00  0.00    +0.031 C 
ATOM      6  C   UNL     1      32.003  -9.119 -22.933  0.00  0.00    +0.026 C 
ATOM      7  C   UNL     1      33.168 -13.299 -22.024  0.00  0.00    +0.010 C 
ATOM      8  C   UNL     1      33.229 -12.286 -24.860  0.00  0.00    +0.001 C 
ATOM      9  C   UNL     1      31.395  -9.887 -21.754  0.00  0.00    -0.073 C 
ATOM     10  C   UNL     1      33.418 -13.627 -24.499  0.00  0.00    +0.009 C 
ATOM     11  C   UNL     1      33.409 -14.181 -23.203  0.00  0.00    -0.008 C 
ATOM     12  C   UNL     1      33.637 -14.632 -25.422  0.00  0.00    +0.051 C 
ATOM     13  C   UNL     1      31.660 -11.632 -20.139  0.00  0.00    -0.100 C 
ATOM     14  C   UNL     1      33.295 -12.004 -26.231  0.00  0.00    -0.002 C 
ATOM     15  C   UNL     1      33.634 -15.530 -23.344  0.00  0.00    +0.061 C 
ATOM     16  C   UNL     1      33.688 -14.362 -26.789  0.00  0.00    +0.015 C 
ATOM     17  C   UNL     1      33.514 -13.023 -27.172  0.00  0.00    +0.001 C 
ATOM     18  C   UNL     1      34.015 -17.108 -25.246  0.00  0.00    +0.117 C 
ATOM     19  H   UNL     1      33.176 -10.710 -21.124  0.00  0.00    -0.080 HD
ENDROOT
BRANCH   3  20
ATOM     20  O   UNL     1      34.365 -10.861 -23.343  0.00  0.00    -0.354 OA
ATOM     21  C   UNL     1      34.897  -9.946 -24.285  0.00  0.00    +0.174 C 
ENDBRANCH   3  20
BRANCH   6  22
ATOM     22  C   UNL     1      31.108  -7.947 -23.333  0.00  0.00    +0.207 C 
BRANCH  22  23
ATOM     23  O   UNL     1      31.808  -6.744 -23.082  0.00  0.00    -0.445 OA
BRANCH  23  25
ATOM     24  O   UNL     1      30.124  -5.439 -22.210  0.00  0.00    -0.245 OA
ATOM     25  C   UNL     1      31.051  -5.612 -22.985  0.00  0.00    +0.343 C 
BRANCH  25  28
ATOM     26 BR   UNL     1      33.253  -4.442 -27.698  0.00  0.00    -0.047 Br
ATOM     27  N   UNL     1      31.739  -2.273 -24.509  0.00  0.00    -0.242 NA
ATOM     28  C   UNL     1      31.499  -4.587 -23.961  0.00  0.00    +0.095 C 
ATOM     29  C   UNL     1      32.061  -4.973 -25.153  0.00  0.00    +0.016 C 
ATOM     30  C   UNL     1      31.351  -3.257 -23.668  0.00  0.00    +0.105 C 
ATOM     31  C   UNL     1      32.473  -3.990 -26.045  0.00  0.00    +0.054 C 
ATOM     32  C   UNL     1      32.291  -2.666 -25.680  0.00  0.00    +0.106 C 
ENDBRANCH  25  28
ENDBRANCH  23  25
ENDBRANCH  22  23
ENDBRANCH   6  22
TORSDOF 5
ENDMDL
