MODEL 1
REMARK VINA RESULT:     -11.3      0.000      0.000
REMARK  Name = 52920501
REMARK  9 active torsions:
REMARK  status: ('A' for Active; 'I' for Inactive)
REMARK    1  A    between atoms: N_1  and  C_12
REMARK    2  A    between atoms: C_5  and  O_27
REMARK    3  A    between atoms: C_9  and  C_15
REMARK    4  A    between atoms: C_15  and  S_16
REMARK    5  A    between atoms: S_16  and  N_19
REMARK    6  A    between atoms: N_19  and  C_21
REMARK    7  A    between atoms: C_21  and  C_22
REMARK    8  A    between atoms: C_22  and  N_23
REMARK    9  A    between atoms: O_27  and  C_35
REMARK                            x       y       z     vdW  Elec       q    Type
REMARK                         _______ _______ _______ _____ _____    ______ ____
ROOT
ATOM      1  N   UNL     1      33.050 -14.636 -23.855  0.00  0.00    -0.247 N 
ATOM      2  N   UNL     1      34.335 -16.324 -22.853  0.00  0.00    -0.300 NA
ATOM      3  N   UNL     1      33.973 -16.293 -25.236  0.00  0.00    -0.170 NA
ATOM      4  C   UNL     1      33.824 -15.809 -23.987  0.00  0.00    +0.152 C 
ATOM      5  C   UNL     1      35.068 -17.445 -23.017  0.00  0.00    +0.295 C 
ATOM      6  C   UNL     1      35.296 -18.040 -24.241  0.00  0.00    +0.094 C 
ATOM      7  C   UNL     1      34.718 -17.415 -25.326  0.00  0.00    +0.118 C 
ATOM      8  H   UNL     1      32.698 -14.294 -24.708  0.00  0.00    +0.165 HD
ENDROOT
BRANCH   1  12
ATOM      9  C   UNL     1      31.636 -11.887 -21.816  0.00  0.00    +0.004 C 
ATOM     10  C   UNL     1      31.998 -12.657 -22.921  0.00  0.00    +0.013 C 
ATOM     11  C   UNL     1      31.961 -12.318 -20.530  0.00  0.00    -0.002 C 
ATOM     12  C   UNL     1      32.684 -13.858 -22.740  0.00  0.00    +0.057 C 
ATOM     13  C   UNL     1      32.648 -13.519 -20.348  0.00  0.00    +0.001 C 
ATOM     14  C   UNL     1      33.009 -14.288 -21.454  0.00  0.00    +0.015 C 
BRANCH   9  15
ATOM     15  C   UNL     1      30.901 -10.604 -22.010  0.00  0.00    +0.195 C 
BRANCH  15  16
ATOM     16  S   UNL     1      32.088  -9.300 -22.043  0.00  0.00    +0.045 S 
ATOM     17  O   UNL     1      32.443  -8.964 -20.674  0.00  0.00    -0.157 OA
ATOM     18  O   UNL     1      33.124  -9.661 -22.999  0.00  0.00    -0.157 OA
BRANCH  16  19
ATOM     19  N   UNL     1      31.161  -8.031 -22.719  0.00  0.00    -0.185 NA
ATOM     20  H   UNL     1      30.567  -7.665 -21.975  0.00  0.00    +0.148 HD
BRANCH  19  21
ATOM     21  C   UNL     1      31.858  -6.879 -23.319  0.00  0.00    +0.068 C 
BRANCH  21  22
ATOM     22  C   UNL     1      31.390  -5.600 -22.641  0.00  0.00    -0.058 C 
BRANCH  22  23
ATOM     23  N   UNL     1      30.949  -4.631 -23.638  0.00  0.00    +0.385 N 
ATOM     24  C   UNL     1      31.099  -3.265 -23.131  0.00  0.00    -0.101 C 
ATOM     25  C   UNL     1      31.700  -4.794 -24.884  0.00  0.00    -0.101 C 
ATOM     26  H   UNL     1      29.962  -4.799 -23.830  0.00  0.00    -0.080 HD
ENDBRANCH  22  23
ENDBRANCH  21  22
ENDBRANCH  19  21
ENDBRANCH  16  19
ENDBRANCH  15  16
ENDBRANCH   9  15
ENDBRANCH   1  12
BRANCH   5  27
ATOM     27  O   UNL     1      35.616 -18.012 -21.879  0.00  0.00    -0.427 OA
BRANCH  27  35
ATOM     28  N   UNL     1      32.822 -21.837 -19.118  0.00  0.00    -0.316 N 
ATOM     29  C   UNL     1      34.728 -20.896 -19.795  0.00  0.00    +0.017 C 
ATOM     30  C   UNL     1      33.336 -20.802 -19.866  0.00  0.00    +0.048 C 
ATOM     31  C   UNL     1      33.836 -22.581 -18.579  0.00  0.00    +0.026 C 
ATOM     32  C   UNL     1      35.029 -22.023 -18.980  0.00  0.00    +0.012 C 
ATOM     33  C   UNL     1      35.508 -19.945 -20.482  0.00  0.00    +0.039 C 
ATOM     34  C   UNL     1      32.683 -19.800 -20.592  0.00  0.00    +0.018 C 
ATOM     35  C   UNL     1      34.868 -18.937 -21.212  0.00  0.00    +0.148 C 
ATOM     36  C   UNL     1      33.477 -18.867 -21.265  0.00  0.00    +0.039 C 
ATOM     37  C   UNL     1      33.560 -23.755 -17.731  0.00  0.00    +0.047 C 
ATOM     38  H   UNL     1      31.862 -22.017 -18.989  0.00  0.00    +0.152 HD
ENDBRANCH  27  35
ENDBRANCH   5  27
TORSDOF 9
ENDMDL
MODEL 2
REMARK VINA RESULT:     -11.3      4.922      9.281
REMARK  Name = 52920501
REMARK  9 active torsions:
REMARK  status: ('A' for Active; 'I' for Inactive)
REMARK    1  A    between atoms: N_1  and  C_12
REMARK    2  A    between atoms: C_5  and  O_27
REMARK    3  A    between atoms: C_9  and  C_15
REMARK    4  A    between atoms: C_15  and  S_16
REMARK    5  A    between atoms: S_16  and  N_19
REMARK    6  A    between atoms: N_19  and  C_21
REMARK    7  A    between atoms: C_21  and  C_22
REMARK    8  A    between atoms: C_22  and  N_23
REMARK    9  A    between atoms: O_27  and  C_35
REMARK                            x       y       z     vdW  Elec       q    Type
REMARK                         _______ _______ _______ _____ _____    ______ ____
ROOT
ATOM      1  N   UNL     1      32.499 -22.478 -18.444  0.00  0.00    -0.247 N 
ATOM      2  N   UNL     1      33.224 -22.835 -16.241  0.00  0.00    -0.300 NA
ATOM      3  N   UNL     1      31.019 -23.509 -16.944  0.00  0.00    -0.170 NA
ATOM      4  C   UNL     1      32.235 -22.965 -17.146  0.00  0.00    +0.152 C 
ATOM      5  C   UNL     1      32.936 -23.309 -15.011  0.00  0.00    +0.295 C 
ATOM      6  C   UNL     1      31.730 -23.889 -14.676  0.00  0.00    +0.094 C 
ATOM      7  C   UNL     1      30.799 -23.963 -15.692  0.00  0.00    +0.118 C 
ATOM      8  H   UNL     1      31.750 -22.594 -19.072  0.00  0.00    +0.165 HD
ENDROOT
BRANCH   1  12
ATOM      9  C   UNL     1      34.583 -20.287 -20.582  0.00  0.00    +0.004 C 
ATOM     10  C   UNL     1      33.465 -20.898 -20.014  0.00  0.00    +0.013 C 
ATOM     11  C   UNL     1      35.863 -20.639 -20.153  0.00  0.00    -0.002 C 
ATOM     12  C   UNL     1      33.627 -21.861 -19.018  0.00  0.00    +0.057 C 
ATOM     13  C   UNL     1      36.025 -21.601 -19.156  0.00  0.00    +0.001 C 
ATOM     14  C   UNL     1      34.907 -22.212 -18.589  0.00  0.00    +0.015 C 
BRANCH   9  15
ATOM     15  C   UNL     1      34.409 -19.258 -21.647  0.00  0.00    +0.195 C 
BRANCH  15  16
ATOM     16  S   UNL     1      35.719 -18.086 -21.487  0.00  0.00    +0.045 S 
ATOM     17  O   UNL     1      35.382 -17.162 -20.417  0.00  0.00    -0.157 OA
ATOM     18  O   UNL     1      36.974 -18.820 -21.451  0.00  0.00    -0.157 OA
BRANCH  16  19
ATOM     19  N   UNL     1      35.619 -17.277 -22.991  0.00  0.00    -0.185 NA
ATOM     20  H   UNL     1      35.170 -17.918 -23.646  0.00  0.00    +0.148 HD
BRANCH  19  21
ATOM     21  C   UNL     1      34.889 -15.999 -23.067  0.00  0.00    +0.068 C 
BRANCH  21  22
ATOM     22  C   UNL     1      34.137 -15.929 -24.389  0.00  0.00    -0.058 C 
BRANCH  22  23
ATOM     23  N   UNL     1      33.266 -14.760 -24.413  0.00  0.00    +0.385 N 
ATOM     24  C   UNL     1      33.888 -13.639 -23.706  0.00  0.00    -0.101 C 
ATOM     25  C   UNL     1      32.951 -14.379 -25.791  0.00  0.00    -0.101 C 
ATOM     26  H   UNL     1      32.397 -15.002 -23.936  0.00  0.00    -0.080 HD
ENDBRANCH  22  23
ENDBRANCH  21  22
ENDBRANCH  19  21
ENDBRANCH  16  19
ENDBRANCH  15  16
ENDBRANCH   9  15
ENDBRANCH   1  12
BRANCH   5  27
ATOM     27  O   UNL     1      33.922 -23.199 -14.046  0.00  0.00    -0.427 OA
BRANCH  27  35
ATOM     28  N   UNL     1      39.082 -24.459 -15.407  0.00  0.00    -0.316 N 
ATOM     29  C   UNL     1      37.195 -24.837 -14.278  0.00  0.00    +0.017 C 
ATOM     30  C   UNL     1      37.808 -23.982 -15.197  0.00  0.00    +0.048 C 
ATOM     31  C   UNL     1      39.296 -25.583 -14.657  0.00  0.00    +0.026 C 
ATOM     32  C   UNL     1      38.145 -25.843 -13.946  0.00  0.00    +0.012 C 
ATOM     33  C   UNL     1      35.869 -24.572 -13.884  0.00  0.00    +0.039 C 
ATOM     34  C   UNL     1      37.158 -22.870 -15.743  0.00  0.00    +0.018 C 
ATOM     35  C   UNL     1      35.206 -23.463 -14.422  0.00  0.00    +0.148 C 
ATOM     36  C   UNL     1      35.842 -22.626 -15.337  0.00  0.00    +0.039 C 
ATOM     37  C   UNL     1      40.585 -26.297 -14.695  0.00  0.00    +0.047 C 
ATOM     38  H   UNL     1      39.744 -24.051 -16.012  0.00  0.00    +0.152 HD
ENDBRANCH  27  35
ENDBRANCH   5  27
TORSDOF 9
ENDMDL
MODEL 3
REMARK VINA RESULT:     -11.2      5.604     12.794
REMARK  Name = 52920501
REMARK  9 active torsions:
REMARK  status: ('A' for Active; 'I' for Inactive)
REMARK    1  A    between atoms: N_1  and  C_12
REMARK    2  A    between atoms: C_5  and  O_27
REMARK    3  A    between atoms: C_9  and  C_15
REMARK    4  A    between atoms: C_15  and  S_16
REMARK    5  A    between atoms: S_16  and  N_19
REMARK    6  A    between atoms: N_19  and  C_21
REMARK    7  A    between atoms: C_21  and  C_22
REMARK    8  A    between atoms: C_22  and  N_23
REMARK    9  A    between atoms: O_27  and  C_35
REMARK                            x       y       z     vdW  Elec       q    Type
REMARK                         _______ _______ _______ _____ _____    ______ ____
ROOT
ATOM      1  N   UNL     1      34.180 -22.655 -17.834  0.00  0.00    -0.247 N 
ATOM      2  N   UNL     1      35.006 -20.933 -19.198  0.00  0.00    -0.300 NA
ATOM      3  N   UNL     1      32.816 -21.867 -19.574  0.00  0.00    -0.170 NA
ATOM      4  C   UNL     1      33.992 -21.774 -18.922  0.00  0.00    +0.152 C 
ATOM      5  C   UNL     1      34.792 -20.108 -20.244  0.00  0.00    +0.295 C 
ATOM      6  C   UNL     1      33.633 -20.102 -20.992  0.00  0.00    +0.094 C 
ATOM      7  C   UNL     1      32.670 -21.012 -20.607  0.00  0.00    +0.118 C 
ATOM      8  H   UNL     1      33.414 -23.251 -17.669  0.00  0.00    +0.165 HD
ENDROOT
BRANCH   1  12
ATOM      9  C   UNL     1      36.187 -23.946 -15.004  0.00  0.00    +0.004 C 
ATOM     10  C   UNL     1      35.127 -23.757 -15.890  0.00  0.00    +0.013 C 
ATOM     11  C   UNL     1      37.369 -23.223 -15.166  0.00  0.00    -0.002 C 
ATOM     12  C   UNL     1      35.249 -22.846 -16.939  0.00  0.00    +0.057 C 
ATOM     13  C   UNL     1      37.491 -22.311 -16.215  0.00  0.00    +0.001 C 
ATOM     14  C   UNL     1      36.431 -22.123 -17.101  0.00  0.00    +0.015 C 
BRANCH   9  15
ATOM     15  C   UNL     1      36.057 -24.921 -13.883  0.00  0.00    +0.195 C 
BRANCH  15  16
ATOM     16  S   UNL     1      35.496 -24.041 -12.461  0.00  0.00    +0.045 S 
ATOM     17  O   UNL     1      35.309 -24.990 -11.376  0.00  0.00    -0.157 OA
ATOM     18  O   UNL     1      36.361 -22.885 -12.280  0.00  0.00    -0.157 OA
BRANCH  16  19
ATOM     19  N   UNL     1      33.972 -23.484 -13.001  0.00  0.00    -0.185 NA
ATOM     20  H   UNL     1      34.144 -22.849 -13.780  0.00  0.00    +0.148 HD
BRANCH  19  21
ATOM     21  C   UNL     1      32.974 -24.468 -13.459  0.00  0.00    +0.068 C 
BRANCH  21  22
ATOM     22  C   UNL     1      31.727 -23.735 -13.932  0.00  0.00    -0.058 C 
BRANCH  22  23
ATOM     23  N   UNL     1      31.268 -24.285 -15.201  0.00  0.00    +0.385 N 
ATOM     24  C   UNL     1      30.065 -25.097 -15.007  0.00  0.00    -0.101 C 
ATOM     25  C   UNL     1      31.006 -23.213 -16.164  0.00  0.00    -0.101 C 
ATOM     26  H   UNL     1      32.006 -24.882 -15.574  0.00  0.00    -0.080 HD
ENDBRANCH  22  23
ENDBRANCH  21  22
ENDBRANCH  19  21
ENDBRANCH  16  19
ENDBRANCH  15  16
ENDBRANCH   9  15
ENDBRANCH   1  12
BRANCH   5  27
ATOM     27  O   UNL     1      35.807 -19.223 -20.566  0.00  0.00    -0.427 OA
BRANCH  27  35
ATOM     28  N   UNL     1      34.572 -15.061 -23.915  0.00  0.00    -0.316 N 
ATOM     29  C   UNL     1      34.726 -15.977 -21.887  0.00  0.00    +0.017 C 
ATOM     30  C   UNL     1      34.936 -16.209 -23.248  0.00  0.00    +0.048 C 
ATOM     31  C   UNL     1      34.140 -14.114 -23.027  0.00  0.00    +0.026 C 
ATOM     32  C   UNL     1      34.223 -14.652 -21.762  0.00  0.00    +0.012 C 
ATOM     33  C   UNL     1      35.022 -17.005 -20.970  0.00  0.00    +0.039 C 
ATOM     34  C   UNL     1      35.430 -17.422 -23.740  0.00  0.00    +0.018 C 
ATOM     35  C   UNL     1      35.517 -18.224 -21.447  0.00  0.00    +0.148 C 
ATOM     36  C   UNL     1      35.717 -18.427 -22.811  0.00  0.00    +0.039 C 
ATOM     37  C   UNL     1      33.688 -12.787 -23.480  0.00  0.00    +0.047 C 
ATOM     38  H   UNL     1      34.616 -14.939 -24.892  0.00  0.00    +0.152 HD
ENDBRANCH  27  35
ENDBRANCH   5  27
TORSDOF 9
ENDMDL
MODEL 4
REMARK VINA RESULT:     -11.0      3.455      7.062
REMARK  Name = 52920501
REMARK  9 active torsions:
REMARK  status: ('A' for Active; 'I' for Inactive)
REMARK    1  A    between atoms: N_1  and  C_12
REMARK    2  A    between atoms: C_5  and  O_27
REMARK    3  A    between atoms: C_9  and  C_15
REMARK    4  A    between atoms: C_15  and  S_16
REMARK    5  A    between atoms: S_16  and  N_19
REMARK    6  A    between atoms: N_19  and  C_21
REMARK    7  A    between atoms: C_21  and  C_22
REMARK    8  A    between atoms: C_22  and  N_23
REMARK    9  A    between atoms: O_27  and  C_35
REMARK                            x       y       z     vdW  Elec       q    Type
REMARK                         _______ _______ _______ _____ _____    ______ ____
ROOT
ATOM      1  N   UNL     1      32.729  -7.698 -21.123  0.00  0.00    -0.247 N 
ATOM      2  N   UNL     1      31.998  -9.876 -21.603  0.00  0.00    -0.300 NA
ATOM      3  N   UNL     1      32.164  -9.099 -19.327  0.00  0.00    -0.170 NA
ATOM      4  C   UNL     1      32.274  -8.953 -20.662  0.00  0.00    +0.152 C 
ATOM      5  C   UNL     1      31.567 -11.062 -21.126  0.00  0.00    +0.295 C 
ATOM      6  C   UNL     1      31.411 -11.339 -19.784  0.00  0.00    +0.094 C 
ATOM      7  C   UNL     1      31.728 -10.309 -18.922  0.00  0.00    +0.118 C 
ATOM      8  H   UNL     1      32.918  -7.055 -20.402  0.00  0.00    +0.165 HD
ENDROOT
BRANCH   1  12
ATOM      9  C   UNL     1      32.197  -5.965 -24.352  0.00  0.00    +0.004 C 
ATOM     10  C   UNL     1      31.964  -6.472 -23.073  0.00  0.00    +0.013 C 
ATOM     11  C   UNL     1      33.430  -6.174 -24.971  0.00  0.00    -0.002 C 
ATOM     12  C   UNL     1      32.963  -7.187 -22.413  0.00  0.00    +0.057 C 
ATOM     13  C   UNL     1      34.430  -6.889 -24.311  0.00  0.00    +0.001 C 
ATOM     14  C   UNL     1      34.196  -7.396 -23.032  0.00  0.00    +0.015 C 
BRANCH   9  15
ATOM     15  C   UNL     1      31.129  -5.200 -25.057  0.00  0.00    +0.195 C 
BRANCH  15  16
ATOM     16  S   UNL     1      31.278  -3.505 -24.590  0.00  0.00    +0.045 S 
ATOM     17  O   UNL     1      29.996  -2.853 -24.805  0.00  0.00    -0.157 OA
ATOM     18  O   UNL     1      31.913  -3.455 -23.282  0.00  0.00    -0.157 OA
BRANCH  16  19
ATOM     19  N   UNL     1      32.404  -2.944 -25.749  0.00  0.00    -0.185 NA
ATOM     20  H   UNL     1      33.326  -3.258 -25.446  0.00  0.00    +0.148 HD
BRANCH  19  21
ATOM     21  C   UNL     1      32.248  -3.357 -27.155  0.00  0.00    +0.068 C 
BRANCH  21  22
ATOM     22  C   UNL     1      33.598  -3.793 -27.703  0.00  0.00    -0.058 C 
BRANCH  22  23
ATOM     23  N   UNL     1      33.594  -3.740 -29.160  0.00  0.00    +0.385 N 
ATOM     24  C   UNL     1      34.899  -4.134 -29.695  0.00  0.00    -0.101 C 
ATOM     25  C   UNL     1      32.542  -4.600 -29.705  0.00  0.00    -0.101 C 
ATOM     26  H   UNL     1      33.405  -2.778 -29.442  0.00  0.00    -0.080 HD
ENDBRANCH  22  23
ENDBRANCH  21  22
ENDBRANCH  19  21
ENDBRANCH  16  19
ENDBRANCH  15  16
ENDBRANCH   9  15
ENDBRANCH   1  12
BRANCH   5  27
ATOM     27  O   UNL     1      31.269 -12.044 -22.056  0.00  0.00    -0.427 OA
BRANCH  27  35
ATOM     28  N   UNL     1      35.036 -15.943 -22.874  0.00  0.00    -0.316 N 
ATOM     29  C   UNL     1      33.368 -15.030 -21.705  0.00  0.00    +0.017 C 
ATOM     30  C   UNL     1      34.163 -14.879 -22.844  0.00  0.00    +0.048 C 
ATOM     31  C   UNL     1      34.822 -16.759 -21.797  0.00  0.00    +0.026 C 
ATOM     32  C   UNL     1      33.795 -16.220 -21.054  0.00  0.00    +0.012 C 
ATOM     33  C   UNL     1      32.380 -14.063 -21.434  0.00  0.00    +0.039 C 
ATOM     34  C   UNL     1      34.018 -13.805 -23.729  0.00  0.00    +0.018 C 
ATOM     35  C   UNL     1      32.223 -12.983 -22.311  0.00  0.00    +0.148 C 
ATOM     36  C   UNL     1      33.030 -12.858 -23.440  0.00  0.00    +0.039 C 
ATOM     37  C   UNL     1      35.625 -17.977 -21.586  0.00  0.00    +0.047 C 
ATOM     38  H   UNL     1      35.716 -16.095 -23.569  0.00  0.00    +0.152 HD
ENDBRANCH  27  35
ENDBRANCH   5  27
TORSDOF 9
ENDMDL
MODEL 5
REMARK VINA RESULT:     -10.9      6.076     10.468
REMARK  Name = 52920501
REMARK  9 active torsions:
REMARK  status: ('A' for Active; 'I' for Inactive)
REMARK    1  A    between atoms: N_1  and  C_12
REMARK    2  A    between atoms: C_5  and  O_27
REMARK    3  A    between atoms: C_9  and  C_15
REMARK    4  A    between atoms: C_15  and  S_16
REMARK    5  A    between atoms: S_16  and  N_19
REMARK    6  A    between atoms: N_19  and  C_21
REMARK    7  A    between atoms: C_21  and  C_22
REMARK    8  A    between atoms: C_22  and  N_23
REMARK    9  A    between atoms: O_27  and  C_35
REMARK                            x       y       z     vdW  Elec       q    Type
REMARK                         _______ _______ _______ _____ _____    ______ ____
ROOT
ATOM      1  N   UNL     1      36.045 -23.203 -16.366  0.00  0.00    -0.247 N 
ATOM      2  N   UNL     1      34.496 -23.363 -14.610  0.00  0.00    -0.300 NA
ATOM      3  N   UNL     1      36.787 -24.048 -14.306  0.00  0.00    -0.170 NA
ATOM      4  C   UNL     1      35.761 -23.555 -15.028  0.00  0.00    +0.152 C 
ATOM      5  C   UNL     1      34.261 -23.711 -13.328  0.00  0.00    +0.295 C 
ATOM      6  C   UNL     1      35.224 -24.226 -12.484  0.00  0.00    +0.094 C 
ATOM      7  C   UNL     1      36.481 -24.374 -13.033  0.00  0.00    +0.118 C 
ATOM      8  H   UNL     1      36.981 -23.360 -16.627  0.00  0.00    +0.165 HD
ENDROOT
BRANCH   1  12
ATOM      9  C   UNL     1      35.056 -21.434 -19.464  0.00  0.00    +0.004 C 
ATOM     10  C   UNL     1      35.844 -21.961 -18.442  0.00  0.00    +0.013 C 
ATOM     11  C   UNL     1      33.673 -21.615 -19.443  0.00  0.00    -0.002 C 
ATOM     12  C   UNL     1      35.250 -22.670 -17.398  0.00  0.00    +0.057 C 
ATOM     13  C   UNL     1      33.078 -22.325 -18.399  0.00  0.00    +0.001 C 
ATOM     14  C   UNL     1      33.867 -22.852 -17.376  0.00  0.00    +0.015 C 
BRANCH   9  15
ATOM     15  C   UNL     1      35.692 -20.677 -20.581  0.00  0.00    +0.195 C 
BRANCH  15  16
ATOM     16  S   UNL     1      34.622 -19.340 -21.007  0.00  0.00    +0.045 S 
ATOM     17  O   UNL     1      33.290 -19.640 -20.510  0.00  0.00    -0.157 OA
ATOM     18  O   UNL     1      35.282 -18.100 -20.629  0.00  0.00    -0.157 OA
BRANCH  16  19
ATOM     19  N   UNL     1      34.630 -19.447 -22.715  0.00  0.00    -0.185 NA
ATOM     20  H   UNL     1      33.668 -19.317 -23.027  0.00  0.00    +0.148 HD
BRANCH  19  21
ATOM     21  C   UNL     1      35.464 -18.506 -23.485  0.00  0.00    +0.068 C 
BRANCH  21  22
ATOM     22  C   UNL     1      34.631 -17.896 -24.603  0.00  0.00    -0.058 C 
BRANCH  22  23
ATOM     23  N   UNL     1      34.897 -16.467 -24.709  0.00  0.00    +0.385 N 
ATOM     24  C   UNL     1      33.892 -15.817 -25.552  0.00  0.00    -0.101 C 
ATOM     25  C   UNL     1      34.924 -15.847 -23.383  0.00  0.00    -0.101 C 
ATOM     26  H   UNL     1      35.812 -16.345 -25.143  0.00  0.00    -0.080 HD
ENDBRANCH  22  23
ENDBRANCH  21  22
ENDBRANCH  19  21
ENDBRANCH  16  19
ENDBRANCH  15  16
ENDBRANCH   9  15
ENDBRANCH   1  12
BRANCH   5  27
ATOM     27  O   UNL     1      32.974 -23.531 -12.851  0.00  0.00    -0.427 OA
BRANCH  27  35
ATOM     28  N   UNL     1      28.807 -24.393 -16.309  0.00  0.00    -0.316 N 
ATOM     29  C   UNL     1      30.242 -23.052 -15.251  0.00  0.00    +0.017 C 
ATOM     30  C   UNL     1      29.853 -24.383 -15.415  0.00  0.00    +0.048 C 
ATOM     31  C   UNL     1      28.521 -23.118 -16.716  0.00  0.00    +0.026 C 
ATOM     32  C   UNL     1      29.393 -22.265 -16.077  0.00  0.00    +0.012 C 
ATOM     33  C   UNL     1      31.307 -22.759 -14.376  0.00  0.00    +0.039 C 
ATOM     34  C   UNL     1      30.479 -25.440 -14.744  0.00  0.00    +0.018 C 
ATOM     35  C   UNL     1      31.942 -23.806 -13.699  0.00  0.00    +0.148 C 
ATOM     36  C   UNL     1      31.533 -25.125 -13.882  0.00  0.00    +0.039 C 
ATOM     37  C   UNL     1      27.437 -22.844 -17.677  0.00  0.00    +0.047 C 
ATOM     38  H   UNL     1      28.332 -25.200 -16.613  0.00  0.00    +0.152 HD
ENDBRANCH  27  35
ENDBRANCH   5  27
TORSDOF 9
ENDMDL
MODEL 6
REMARK VINA RESULT:     -10.6      3.376     11.825
REMARK  Name = 52920501
REMARK  9 active torsions:
REMARK  status: ('A' for Active; 'I' for Inactive)
REMARK    1  A    between atoms: N_1  and  C_12
REMARK    2  A    between atoms: C_5  and  O_27
REMARK    3  A    between atoms: C_9  and  C_15
REMARK    4  A    between atoms: C_15  and  S_16
REMARK    5  A    between atoms: S_16  and  N_19
REMARK    6  A    between atoms: N_19  and  C_21
REMARK    7  A    between atoms: C_21  and  C_22
REMARK    8  A    between atoms: C_22  and  N_23
REMARK    9  A    between atoms: O_27  and  C_35
REMARK                            x       y       z     vdW  Elec       q    Type
REMARK                         _______ _______ _______ _____ _____    ______ ____
ROOT
ATOM      1  N   UNL     1      35.047 -18.455 -23.749  0.00  0.00    -0.247 N 
ATOM      2  N   UNL     1      33.998 -16.435 -23.176  0.00  0.00    -0.300 NA
ATOM      3  N   UNL     1      34.416 -17.002 -25.481  0.00  0.00    -0.170 NA
ATOM      4  C   UNL     1      34.458 -17.237 -24.155  0.00  0.00    +0.152 C 
ATOM      5  C   UNL     1      33.443 -15.281 -23.600  0.00  0.00    +0.295 C 
ATOM      6  C   UNL     1      33.339 -14.921 -24.928  0.00  0.00    +0.094 C 
ATOM      7  C   UNL     1      33.848 -15.830 -25.833  0.00  0.00    +0.118 C 
ATOM      8  H   UNL     1      35.368 -19.009 -24.497  0.00  0.00    +0.165 HD
ENDROOT
BRANCH   1  12
ATOM      9  C   UNL     1      34.435 -20.253 -20.571  0.00  0.00    +0.004 C 
ATOM     10  C   UNL     1      34.220 -19.681 -21.825  0.00  0.00    +0.013 C 
ATOM     11  C   UNL     1      35.695 -20.174 -19.976  0.00  0.00    -0.002 C 
ATOM     12  C   UNL     1      35.263 -19.032 -22.484  0.00  0.00    +0.057 C 
ATOM     13  C   UNL     1      36.739 -19.524 -20.635  0.00  0.00    +0.001 C 
ATOM     14  C   UNL     1      36.522 -18.953 -21.889  0.00  0.00    +0.015 C 
BRANCH   9  15
ATOM     15  C   UNL     1      33.320 -20.949 -19.867  0.00  0.00    +0.195 C 
BRANCH  15  16
ATOM     16  S   UNL     1      33.992 -22.358 -19.047  0.00  0.00    +0.045 S 
ATOM     17  O   UNL     1      34.194 -23.411 -20.029  0.00  0.00    -0.157 OA
ATOM     18  O   UNL     1      35.100 -21.908 -18.219  0.00  0.00    -0.157 OA
BRANCH  16  19
ATOM     19  N   UNL     1      32.696 -22.784 -18.014  0.00  0.00    -0.185 NA
ATOM     20  H   UNL     1      32.055 -23.359 -18.561  0.00  0.00    +0.148 HD
BRANCH  19  21
ATOM     21  C   UNL     1      32.986 -23.523 -16.772  0.00  0.00    +0.068 C 
BRANCH  21  22
ATOM     22  C   UNL     1      31.943 -23.170 -15.722  0.00  0.00    -0.058 C 
BRANCH  22  23
ATOM     23  N   UNL     1      30.720 -23.930 -15.949  0.00  0.00    +0.385 N 
ATOM     24  C   UNL     1      30.475 -24.857 -14.842  0.00  0.00    -0.101 C 
ATOM     25  C   UNL     1      29.577 -23.031 -16.119  0.00  0.00    -0.101 C 
ATOM     26  H   UNL     1      30.836 -24.472 -16.806  0.00  0.00    -0.080 HD
ENDBRANCH  22  23
ENDBRANCH  21  22
ENDBRANCH  19  21
ENDBRANCH  16  19
ENDBRANCH  15  16
ENDBRANCH   9  15
ENDBRANCH   1  12
BRANCH   5  27
ATOM     27  O   UNL     1      32.955 -14.422 -22.629  0.00  0.00    -0.427 OA
BRANCH  27  35
ATOM     28  N   UNL     1      32.671  -9.039 -23.626  0.00  0.00    -0.316 N 
ATOM     29  C   UNL     1      31.994 -10.884 -22.571  0.00  0.00    +0.017 C 
ATOM     30  C   UNL     1      32.896 -10.392 -23.517  0.00  0.00    +0.048 C 
ATOM     31  C   UNL     1      31.661  -8.658 -22.785  0.00  0.00    +0.026 C 
ATOM     32  C   UNL     1      31.221  -9.779 -22.118  0.00  0.00    +0.012 C 
ATOM     33  C   UNL     1      32.012 -12.259 -22.267  0.00  0.00    +0.039 C 
ATOM     34  C   UNL     1      33.819 -11.211 -24.176  0.00  0.00    +0.018 C 
ATOM     35  C   UNL     1      32.931 -13.090 -22.918  0.00  0.00    +0.148 C 
ATOM     36  C   UNL     1      33.819 -12.572 -23.858  0.00  0.00    +0.039 C 
ATOM     37  C   UNL     1      31.217  -7.254 -22.706  0.00  0.00    +0.047 C 
ATOM     38  H   UNL     1      33.165  -8.431 -24.223  0.00  0.00    +0.152 HD
ENDBRANCH  27  35
ENDBRANCH   5  27
TORSDOF 9
ENDMDL
MODEL 7
REMARK VINA RESULT:     -10.5      2.789     11.811
REMARK  Name = 52920501
REMARK  9 active torsions:
REMARK  status: ('A' for Active; 'I' for Inactive)
REMARK    1  A    between atoms: N_1  and  C_12
REMARK    2  A    between atoms: C_5  and  O_27
REMARK    3  A    between atoms: C_9  and  C_15
REMARK    4  A    between atoms: C_15  and  S_16
REMARK    5  A    between atoms: S_16  and  N_19
REMARK    6  A    between atoms: N_19  and  C_21
REMARK    7  A    between atoms: C_21  and  C_22
REMARK    8  A    between atoms: C_22  and  N_23
REMARK    9  A    between atoms: O_27  and  C_35
REMARK                            x       y       z     vdW  Elec       q    Type
REMARK                         _______ _______ _______ _____ _____    ______ ____
ROOT
ATOM      1  N   UNL     1      33.397 -15.068 -24.217  0.00  0.00    -0.247 N 
ATOM      2  N   UNL     1      33.992 -12.798 -24.210  0.00  0.00    -0.300 NA
ATOM      3  N   UNL     1      33.170 -13.856 -26.214  0.00  0.00    -0.170 NA
ATOM      4  C   UNL     1      33.526 -13.847 -24.914  0.00  0.00    +0.152 C 
ATOM      5  C   UNL     1      34.103 -11.648 -24.907  0.00  0.00    +0.295 C 
ATOM      6  C   UNL     1      33.772 -11.525 -26.241  0.00  0.00    +0.094 C 
ATOM      7  C   UNL     1      33.307 -12.673 -26.849  0.00  0.00    +0.118 C 
ATOM      8  H   UNL     1      33.053 -15.806 -24.770  0.00  0.00    +0.165 HD
ENDROOT
BRANCH   1  12
ATOM      9  C   UNL     1      34.766 -16.878 -21.292  0.00  0.00    +0.004 C 
ATOM     10  C   UNL     1      34.503 -16.514 -22.612  0.00  0.00    +0.013 C 
ATOM     11  C   UNL     1      34.187 -16.163 -20.243  0.00  0.00    -0.002 C 
ATOM     12  C   UNL     1      33.662 -15.435 -22.885  0.00  0.00    +0.057 C 
ATOM     13  C   UNL     1      33.345 -15.084 -20.515  0.00  0.00    +0.001 C 
ATOM     14  C   UNL     1      33.083 -14.721 -21.836  0.00  0.00    +0.015 C 
BRANCH   9  15
ATOM     15  C   UNL     1      35.666 -18.031 -21.001  0.00  0.00    +0.195 C 
BRANCH  15  16
ATOM     16  S   UNL     1      34.771 -19.514 -21.333  0.00  0.00    +0.045 S 
ATOM     17  O   UNL     1      33.443 -19.390 -20.754  0.00  0.00    -0.157 OA
ATOM     18  O   UNL     1      34.927 -19.825 -22.745  0.00  0.00    -0.157 OA
BRANCH  16  19
ATOM     19  N   UNL     1      35.679 -20.652 -20.434  0.00  0.00    -0.185 NA
ATOM     20  H   UNL     1      36.321 -20.123 -19.844  0.00  0.00    +0.148 HD
BRANCH  19  21
ATOM     21  C   UNL     1      34.969 -21.601 -19.558  0.00  0.00    +0.068 C 
BRANCH  21  22
ATOM     22  C   UNL     1      35.837 -21.912 -18.347  0.00  0.00    -0.058 C 
BRANCH  22  23
ATOM     23  N   UNL     1      35.005 -22.309 -17.217  0.00  0.00    +0.385 N 
ATOM     24  C   UNL     1      33.871 -23.117 -17.671  0.00  0.00    -0.101 C 
ATOM     25  C   UNL     1      35.793 -23.049 -16.231  0.00  0.00    -0.101 C 
ATOM     26  H   UNL     1      34.644 -21.463 -16.776  0.00  0.00    -0.080 HD
ENDBRANCH  22  23
ENDBRANCH  21  22
ENDBRANCH  19  21
ENDBRANCH  16  19
ENDBRANCH  15  16
ENDBRANCH   9  15
ENDBRANCH   1  12
BRANCH   5  27
ATOM     27  O   UNL     1      34.577 -10.540 -24.225  0.00  0.00    -0.427 OA
BRANCH  27  35
ATOM     28  N   UNL     1      31.038  -6.682 -22.597  0.00  0.00    -0.316 N 
ATOM     29  C   UNL     1      32.901  -7.332 -23.640  0.00  0.00    +0.017 C 
ATOM     30  C   UNL     1      31.799  -7.785 -22.910  0.00  0.00    +0.048 C 
ATOM     31  C   UNL     1      31.618  -5.549 -23.101  0.00  0.00    +0.026 C 
ATOM     32  C   UNL     1      32.773  -5.919 -23.752  0.00  0.00    +0.012 C 
ATOM     33  C   UNL     1      33.850  -8.270 -24.089  0.00  0.00    +0.039 C 
ATOM     34  C   UNL     1      31.599  -9.136 -22.607  0.00  0.00    +0.018 C 
ATOM     35  C   UNL     1      33.663  -9.626 -23.794  0.00  0.00    +0.148 C 
ATOM     36  C   UNL     1      32.554 -10.050 -23.064  0.00  0.00    +0.039 C 
ATOM     37  C   UNL     1      31.005  -4.223 -22.907  0.00  0.00    +0.047 C 
ATOM     38  H   UNL     1      30.198  -6.704 -22.084  0.00  0.00    +0.152 HD
ENDBRANCH  27  35
ENDBRANCH   5  27
TORSDOF 9
ENDMDL
MODEL 8
REMARK VINA RESULT:     -10.5      5.244     13.185
REMARK  Name = 52920501
REMARK  9 active torsions:
REMARK  status: ('A' for Active; 'I' for Inactive)
REMARK    1  A    between atoms: N_1  and  C_12
REMARK    2  A    between atoms: C_5  and  O_27
REMARK    3  A    between atoms: C_9  and  C_15
REMARK    4  A    between atoms: C_15  and  S_16
REMARK    5  A    between atoms: S_16  and  N_19
REMARK    6  A    between atoms: N_19  and  C_21
REMARK    7  A    between atoms: C_21  and  C_22
REMARK    8  A    between atoms: C_22  and  N_23
REMARK    9  A    between atoms: O_27  and  C_35
REMARK                            x       y       z     vdW  Elec       q    Type
REMARK                         _______ _______ _______ _____ _____    ______ ____
ROOT
ATOM      1  N   UNL     1      36.512 -21.355 -19.394  0.00  0.00    -0.247 N 
ATOM      2  N   UNL     1      35.224 -19.637 -20.340  0.00  0.00    -0.300 NA
ATOM      3  N   UNL     1      37.533 -19.939 -20.962  0.00  0.00    -0.170 NA
ATOM      4  C   UNL     1      36.418 -20.256 -20.276  0.00  0.00    +0.152 C 
ATOM      5  C   UNL     1      35.171 -18.592 -21.192  0.00  0.00    +0.295 C 
ATOM      6  C   UNL     1      36.240 -18.166 -21.952  0.00  0.00    +0.094 C 
ATOM      7  C   UNL     1      37.408 -18.884 -21.794  0.00  0.00    +0.118 C 
ATOM      8  H   UNL     1      37.402 -21.777 -19.379  0.00  0.00    +0.165 HD
ENDROOT
BRANCH   1  12
ATOM      9  C   UNL     1      35.001 -22.828 -16.352  0.00  0.00    +0.004 C 
ATOM     10  C   UNL     1      35.923 -22.222 -17.205  0.00  0.00    +0.013 C 
ATOM     11  C   UNL     1      33.737 -23.179 -16.827  0.00  0.00    -0.002 C 
ATOM     12  C   UNL     1      35.582 -21.966 -18.532  0.00  0.00    +0.057 C 
ATOM     13  C   UNL     1      33.395 -22.923 -18.156  0.00  0.00    +0.001 C 
ATOM     14  C   UNL     1      34.318 -22.317 -19.008  0.00  0.00    +0.015 C 
BRANCH   9  15
ATOM     15  C   UNL     1      35.365 -23.101 -14.932  0.00  0.00    +0.195 C 
BRANCH  15  16
ATOM     16  S   UNL     1      35.089 -24.815 -14.621  0.00  0.00    +0.045 S 
ATOM     17  O   UNL     1      33.683 -25.006 -14.306  0.00  0.00    -0.157 OA
ATOM     18  O   UNL     1      35.706 -25.571 -15.700  0.00  0.00    -0.157 OA
BRANCH  16  19
ATOM     19  N   UNL     1      36.026 -25.047 -13.208  0.00  0.00    -0.185 NA
ATOM     20  H   UNL     1      35.384 -25.331 -12.468  0.00  0.00    +0.148 HD
BRANCH  19  21
ATOM     21  C   UNL     1      37.122 -26.032 -13.231  0.00  0.00    +0.068 C 
BRANCH  21  22
ATOM     22  C   UNL     1      38.449 -25.303 -13.388  0.00  0.00    -0.058 C 
BRANCH  22  23
ATOM     23  N   UNL     1      38.882 -25.335 -14.780  0.00  0.00    +0.385 N 
ATOM     24  C   UNL     1      38.753 -24.010 -15.390  0.00  0.00    -0.101 C 
ATOM     25  C   UNL     1      40.263 -25.808 -14.880  0.00  0.00    -0.101 C 
ATOM     26  H   UNL     1      38.279 -25.985 -15.285  0.00  0.00    -0.080 HD
ENDBRANCH  22  23
ENDBRANCH  21  22
ENDBRANCH  19  21
ENDBRANCH  16  19
ENDBRANCH  15  16
ENDBRANCH   9  15
ENDBRANCH   1  12
BRANCH   5  27
ATOM     27  O   UNL     1      33.963 -17.923 -21.294  0.00  0.00    -0.427 OA
BRANCH  27  35
ATOM     28  N   UNL     1      34.031 -12.792 -23.224  0.00  0.00    -0.316 N 
ATOM     29  C   UNL     1      33.802 -14.995 -23.495  0.00  0.00    +0.017 C 
ATOM     30  C   UNL     1      34.055 -13.994 -22.554  0.00  0.00    +0.048 C 
ATOM     31  C   UNL     1      33.774 -12.996 -24.553  0.00  0.00    +0.026 C 
ATOM     32  C   UNL     1      33.627 -14.351 -24.752  0.00  0.00    +0.012 C 
ATOM     33  C   UNL     1      33.771 -16.336 -23.067  0.00  0.00    +0.039 C 
ATOM     34  C   UNL     1      34.277 -14.270 -21.201  0.00  0.00    +0.018 C 
ATOM     35  C   UNL     1      33.992 -16.627 -21.716  0.00  0.00    +0.148 C 
ATOM     36  C   UNL     1      34.241 -15.608 -20.799  0.00  0.00    +0.039 C 
ATOM     37  C   UNL     1      33.695 -11.870 -25.501  0.00  0.00    +0.047 C 
ATOM     38  H   UNL     1      34.178 -11.911 -22.808  0.00  0.00    +0.152 HD
ENDBRANCH  27  35
ENDBRANCH   5  27
TORSDOF 9
ENDMDL
MODEL 9
REMARK VINA RESULT:     -10.5      4.877      9.292
REMARK  Name = 52920501
REMARK  9 active torsions:
REMARK  status: ('A' for Active; 'I' for Inactive)
REMARK    1  A    between atoms: N_1  and  C_12
REMARK    2  A    between atoms: C_5  and  O_27
REMARK    3  A    between atoms: C_9  and  C_15
REMARK    4  A    between atoms: C_15  and  S_16
REMARK    5  A    between atoms: S_16  and  N_19
REMARK    6  A    between atoms: N_19  and  C_21
REMARK    7  A    between atoms: C_21  and  C_22
REMARK    8  A    between atoms: C_22  and  N_23
REMARK    9  A    between atoms: O_27  and  C_35
REMARK                            x       y       z     vdW  Elec       q    Type
REMARK                         _______ _______ _______ _____ _____    ______ ____
ROOT
ATOM      1  N   UNL     1      36.728 -21.888 -17.509  0.00  0.00    -0.247 N 
ATOM      2  N   UNL     1      35.586 -23.480 -16.217  0.00  0.00    -0.300 NA
ATOM      3  N   UNL     1      37.834 -22.813 -15.658  0.00  0.00    -0.170 NA
ATOM      4  C   UNL     1      36.715 -22.771 -16.407  0.00  0.00    +0.152 C 
ATOM      5  C   UNL     1      35.609 -24.313 -15.156  0.00  0.00    +0.295 C 
ATOM      6  C   UNL     1      36.691 -24.450 -14.312  0.00  0.00    +0.094 C 
ATOM      7  C   UNL     1      37.787 -23.667 -14.614  0.00  0.00    +0.118 C 
ATOM      8  H   UNL     1      37.571 -21.391 -17.609  0.00  0.00    +0.165 HD
ENDROOT
BRANCH   1  12
ATOM      9  C   UNL     1      35.174 -20.498 -20.569  0.00  0.00    +0.004 C 
ATOM     10  C   UNL     1      36.124 -20.803 -19.595  0.00  0.00    +0.013 C 
ATOM     11  C   UNL     1      33.867 -20.968 -20.439  0.00  0.00    -0.002 C 
ATOM     12  C   UNL     1      35.769 -21.579 -18.492  0.00  0.00    +0.057 C 
ATOM     13  C   UNL     1      33.511 -21.745 -19.336  0.00  0.00    +0.001 C 
ATOM     14  C   UNL     1      34.462 -22.050 -18.362  0.00  0.00    +0.015 C 
BRANCH   9  15
ATOM     15  C   UNL     1      35.555 -19.669 -21.748  0.00  0.00    +0.195 C 
BRANCH  15  16
ATOM     16  S   UNL     1      35.016 -18.017 -21.446  0.00  0.00    +0.045 S 
ATOM     17  O   UNL     1      33.563 -18.009 -21.386  0.00  0.00    -0.157 OA
ATOM     18  O   UNL     1      35.796 -17.487 -20.339  0.00  0.00    -0.157 OA
BRANCH  16  19
ATOM     19  N   UNL     1      35.530 -17.237 -22.880  0.00  0.00    -0.185 NA
ATOM     20  H   UNL     1      35.988 -17.943 -23.456  0.00  0.00    +0.148 HD
BRANCH  19  21
ATOM     21  C   UNL     1      34.527 -16.572 -23.730  0.00  0.00    +0.068 C 
BRANCH  21  22
ATOM     22  C   UNL     1      34.489 -15.088 -23.395  0.00  0.00    -0.058 C 
BRANCH  22  23
ATOM     23  N   UNL     1      33.465 -14.822 -22.392  0.00  0.00    +0.385 N 
ATOM     24  C   UNL     1      34.079 -14.503 -21.101  0.00  0.00    -0.101 C 
ATOM     25  C   UNL     1      32.592 -13.729 -22.822  0.00  0.00    -0.101 C 
ATOM     26  H   UNL     1      32.900 -15.665 -22.283  0.00  0.00    -0.080 HD
ENDBRANCH  22  23
ENDBRANCH  21  22
ENDBRANCH  19  21
ENDBRANCH  16  19
ENDBRANCH  15  16
ENDBRANCH   9  15
ENDBRANCH   1  12
BRANCH   5  27
ATOM     27  O   UNL     1      34.470 -25.064 -14.919  0.00  0.00    -0.427 OA
BRANCH  27  35
ATOM     28  N   UNL     1      29.661 -22.446 -14.635  0.00  0.00    -0.316 N 
ATOM     29  C   UNL     1      31.167 -23.687 -15.717  0.00  0.00    +0.017 C 
ATOM     30  C   UNL     1      30.898 -23.036 -14.511  0.00  0.00    +0.048 C 
ATOM     31  C   UNL     1      29.138 -22.700 -15.874  0.00  0.00    +0.026 C 
ATOM     32  C   UNL     1      30.047 -23.467 -16.568  0.00  0.00    +0.012 C 
ATOM     33  C   UNL     1      32.385 -24.380 -15.859  0.00  0.00    +0.039 C 
ATOM     34  C   UNL     1      31.793 -23.043 -13.435  0.00  0.00    +0.018 C 
ATOM     35  C   UNL     1      33.289 -24.396 -14.790  0.00  0.00    +0.148 C 
ATOM     36  C   UNL     1      32.996 -23.737 -13.598  0.00  0.00    +0.039 C 
ATOM     37  C   UNL     1      27.817 -22.181 -16.269  0.00  0.00    +0.047 C 
ATOM     38  H   UNL     1      29.216 -21.917 -13.933  0.00  0.00    +0.152 HD
ENDBRANCH  27  35
ENDBRANCH   5  27
TORSDOF 9
ENDMDL
