MODEL 1
REMARK VINA RESULT:      -8.4      0.000      0.000
REMARK  Name = 16490
REMARK  5 active torsions:
REMARK  status: ('A' for Active; 'I' for Inactive)
REMARK    1  A    between atoms: C_8  and  O_24
REMARK    2  A    between atoms: C_8  and  C_29
REMARK    3  A    between atoms: C_12  and  O_26
REMARK    4  A    between atoms: C_29  and  C_30
REMARK    5  A    between atoms: C_30  and  O_31
REMARK                            x       y       z     vdW  Elec       q    Type
REMARK                         _______ _______ _______ _____ _____    ______ ____
ROOT
ATOM      1  F   UNL     1      35.691 -25.423 -14.789  0.00  0.00    -0.237 F 
ATOM      2  F   UNL     1      37.724 -22.434 -17.187  0.00  0.00    -0.233 F 
ATOM      3  O   UNL     1      40.503 -25.984 -15.255  0.00  0.00    -0.287 OA
ATOM      4  C   UNL     1      32.648 -23.917 -13.898  0.00  0.00    +0.032 C 
ATOM      5  C   UNL     1      33.499 -23.683 -15.166  0.00  0.00    +0.005 C 
ATOM      6  C   UNL     1      34.927 -23.197 -14.872  0.00  0.00    +0.036 C 
ATOM      7  C   UNL     1      35.666 -24.275 -14.008  0.00  0.00    +0.165 C 
ATOM      8  C   UNL     1      31.310 -24.345 -14.573  0.00  0.00    +0.141 C 
ATOM      9  C   UNL     1      32.595 -22.831 -16.056  0.00  0.00    +0.003 C 
ATOM     10  C   UNL     1      33.356 -24.998 -13.056  0.00  0.00    +0.035 C 
ATOM     11  C   UNL     1      31.161 -23.345 -15.761  0.00  0.00    +0.032 C 
ATOM     12  C   UNL     1      34.839 -24.687 -12.752  0.00  0.00    +0.141 C 
ATOM     13  C   UNL     1      37.183 -23.909 -13.759  0.00  0.00    +0.066 C 
ATOM     14  C   UNL     1      35.679 -22.929 -16.186  0.00  0.00    +0.042 C 
ATOM     15  C   UNL     1      32.442 -22.629 -13.055  0.00  0.00    +0.003 C 
ATOM     16  C   UNL     1      37.142 -22.574 -15.960  0.00  0.00    +0.180 C 
ATOM     17  C   UNL     1      37.821 -23.634 -15.129  0.00  0.00    -0.003 C 
ATOM     18  C   UNL     1      30.491 -23.920 -17.004  0.00  0.00    +0.003 C 
ATOM     19  C   UNL     1      37.389 -22.658 -12.875  0.00  0.00    +0.011 C 
ATOM     20  C   UNL     1      37.885 -25.054 -13.043  0.00  0.00    -0.017 C 
ATOM     21  C   UNL     1      38.882 -24.305 -15.600  0.00  0.00    +0.036 C 
ATOM     22  C   UNL     1      38.942 -25.726 -13.510  0.00  0.00    +0.038 C 
ATOM     23  C   UNL     1      39.523 -25.385 -14.821  0.00  0.00    +0.195 C 
ENDROOT
BRANCH   8  24
ATOM     24  O   UNL     1      31.315 -25.704 -14.994  0.00  0.00    -0.380 OA
ATOM     25  H   UNL     1      30.721 -26.220 -14.426  0.00  0.00    +0.211 HD
ENDBRANCH   8  24
BRANCH  12  26
ATOM     26  O   UNL     1      34.914 -23.693 -11.739  0.00  0.00    -0.382 OA
ATOM     27  H   UNL     1      35.603 -23.050 -11.968  0.00  0.00    +0.210 HD
ENDBRANCH  12  26
BRANCH   8  29
ATOM     28  O   UNL     1      30.259 -24.172 -12.442  0.00  0.00    -0.291 OA
ATOM     29  C   UNL     1      30.124 -24.308 -13.658  0.00  0.00    +0.204 C 
BRANCH  29  30
ATOM     30  C   UNL     1      28.766 -24.446 -14.312  0.00  0.00    +0.204 C 
BRANCH  30  31
ATOM     31  O   UNL     1      28.336 -25.790 -14.291  0.00  0.00    -0.375 OA
ATOM     32  H   UNL     1      28.378 -26.156 -15.188  0.00  0.00    +0.211 HD
ENDBRANCH  30  31
ENDBRANCH  29  30
ENDBRANCH   8  29
TORSDOF 5
ENDMDL
MODEL 2
REMARK VINA RESULT:      -7.1     11.395     13.420
REMARK  Name = 16490
REMARK  5 active torsions:
REMARK  status: ('A' for Active; 'I' for Inactive)
REMARK    1  A    between atoms: C_8  and  O_24
REMARK    2  A    between atoms: C_8  and  C_29
REMARK    3  A    between atoms: C_12  and  O_26
REMARK    4  A    between atoms: C_29  and  C_30
REMARK    5  A    between atoms: C_30  and  O_31
REMARK                            x       y       z     vdW  Elec       q    Type
REMARK                         _______ _______ _______ _____ _____    ______ ____
ROOT
ATOM      1  F   UNL     1      35.421 -14.308 -23.930  0.00  0.00    -0.237 F 
ATOM      2  F   UNL     1      32.780 -14.150 -27.368  0.00  0.00    -0.233 F 
ATOM      3  O   UNL     1      35.001  -9.967 -26.090  0.00  0.00    -0.287 OA
ATOM      4  C   UNL     1      34.450 -17.208 -22.206  0.00  0.00    +0.032 C 
ATOM      5  C   UNL     1      34.369 -16.921 -23.722  0.00  0.00    +0.005 C 
ATOM      6  C   UNL     1      33.519 -15.690 -24.074  0.00  0.00    +0.036 C 
ATOM      7  C   UNL     1      34.145 -14.424 -23.394  0.00  0.00    +0.165 C 
ATOM      8  C   UNL     1      35.325 -18.498 -22.243  0.00  0.00    +0.141 C 
ATOM      9  C   UNL     1      33.999 -18.275 -24.327  0.00  0.00    +0.003 C 
ATOM     10  C   UNL     1      35.091 -15.976 -21.533  0.00  0.00    +0.035 C 
ATOM     11  C   UNL     1      34.725 -19.313 -23.430  0.00  0.00    +0.032 C 
ATOM     12  C   UNL     1      34.391 -14.641 -21.869  0.00  0.00    +0.141 C 
ATOM     13  C   UNL     1      33.400 -13.093 -23.802  0.00  0.00    +0.066 C 
ATOM     14  C   UNL     1      33.441 -15.516 -25.600  0.00  0.00    +0.042 C 
ATOM     15  C   UNL     1      33.068 -17.509 -21.567  0.00  0.00    +0.003 C 
ATOM     16  C   UNL     1      32.724 -14.237 -26.007  0.00  0.00    +0.180 C 
ATOM     17  C   UNL     1      33.355 -13.042 -25.336  0.00  0.00    -0.003 C 
ATOM     18  C   UNL     1      35.736 -20.141 -24.217  0.00  0.00    +0.003 C 
ATOM     19  C   UNL     1      31.950 -12.999 -23.276  0.00  0.00    +0.011 C 
ATOM     20  C   UNL     1      34.136 -11.888 -23.232  0.00  0.00    -0.017 C 
ATOM     21  C   UNL     1      33.872 -12.038 -26.060  0.00  0.00    +0.036 C 
ATOM     22  C   UNL     1      34.653 -10.887 -23.950  0.00  0.00    +0.038 C 
ATOM     23  C   UNL     1      34.543 -10.888 -25.420  0.00  0.00    +0.195 C 
ENDROOT
BRANCH   8  24
ATOM     24  O   UNL     1      36.710 -18.219 -22.410  0.00  0.00    -0.380 OA
ATOM     25  H   UNL     1      37.229 -18.818 -21.849  0.00  0.00    +0.211 HD
ENDBRANCH   8  24
BRANCH  12  26
ATOM     26  O   UNL     1      33.178 -14.547 -21.136  0.00  0.00    -0.382 OA
ATOM     27  H   UNL     1      32.956 -13.613 -20.996  0.00  0.00    +0.210 HD
ENDBRANCH  12  26
BRANCH   8  29
ATOM     28  O   UNL     1      36.236 -19.186 -20.153  0.00  0.00    -0.291 OA
ATOM     29  C   UNL     1      35.316 -19.280 -20.966  0.00  0.00    +0.204 C 
BRANCH  29  30
ATOM     30  C   UNL     1      34.122 -20.181 -20.739  0.00  0.00    +0.204 C 
BRANCH  30  31
ATOM     31  O   UNL     1      34.385 -21.108 -19.707  0.00  0.00    -0.375 OA
ATOM     32  H   UNL     1      33.562 -21.557 -19.458  0.00  0.00    +0.211 HD
ENDBRANCH  30  31
ENDBRANCH  29  30
ENDBRANCH   8  29
TORSDOF 5
ENDMDL
MODEL 3
REMARK VINA RESULT:      -6.5     18.996     20.608
REMARK  Name = 16490
REMARK  5 active torsions:
REMARK  status: ('A' for Active; 'I' for Inactive)
REMARK    1  A    between atoms: C_8  and  O_24
REMARK    2  A    between atoms: C_8  and  C_29
REMARK    3  A    between atoms: C_12  and  O_26
REMARK    4  A    between atoms: C_29  and  C_30
REMARK    5  A    between atoms: C_30  and  O_31
REMARK                            x       y       z     vdW  Elec       q    Type
REMARK                         _______ _______ _______ _____ _____    ______ ____
ROOT
ATOM      1  F   UNL     1      31.232  -8.060 -24.085  0.00  0.00    -0.237 F 
ATOM      2  F   UNL     1      35.287  -9.468 -24.713  0.00  0.00    -0.233 F 
ATOM      3  O   UNL     1      32.077 -12.704 -22.902  0.00  0.00    -0.287 OA
ATOM      4  C   UNL     1      31.517  -4.563 -24.000  0.00  0.00    +0.032 C 
ATOM      5  C   UNL     1      32.395  -5.578 -24.764  0.00  0.00    +0.005 C 
ATOM      6  C   UNL     1      33.076  -6.614 -23.856  0.00  0.00    +0.036 C 
ATOM      7  C   UNL     1      31.975  -7.430 -23.097  0.00  0.00    +0.165 C 
ATOM      8  C   UNL     1      31.047  -3.687 -25.201  0.00  0.00    +0.141 C 
ATOM      9  C   UNL     1      33.261  -4.700 -25.667  0.00  0.00    +0.003 C 
ATOM     10  C   UNL     1      30.413  -5.357 -23.272  0.00  0.00    +0.035 C 
ATOM     11  C   UNL     1      32.340  -3.514 -26.057  0.00  0.00    +0.032 C 
ATOM     12  C   UNL     1      30.947  -6.501 -22.380  0.00  0.00    +0.141 C 
ATOM     13  C   UNL     1      32.587  -8.599 -22.228  0.00  0.00    +0.066 C 
ATOM     14  C   UNL     1      33.977  -7.541 -24.689  0.00  0.00    +0.042 C 
ATOM     15  C   UNL     1      32.318  -3.704 -22.985  0.00  0.00    +0.003 C 
ATOM     16  C   UNL     1      34.574  -8.672 -23.863  0.00  0.00    +0.180 C 
ATOM     17  C   UNL     1      33.486  -9.436 -23.150  0.00  0.00    -0.003 C 
ATOM     18  C   UNL     1      32.108  -3.440 -27.563  0.00  0.00    +0.003 C 
ATOM     19  C   UNL     1      33.442  -8.114 -21.036  0.00  0.00    +0.011 C 
ATOM     20  C   UNL     1      31.470  -9.445 -21.631  0.00  0.00    -0.017 C 
ATOM     21  C   UNL     1      33.314 -10.749 -23.362  0.00  0.00    +0.036 C 
ATOM     22  C   UNL     1      31.295 -10.753 -21.841  0.00  0.00    +0.038 C 
ATOM     23  C   UNL     1      32.218 -11.500 -22.713  0.00  0.00    +0.195 C 
ENDROOT
BRANCH   8  24
ATOM     24  O   UNL     1      29.978  -4.279 -25.930  0.00  0.00    -0.380 OA
ATOM     25  H   UNL     1      29.877  -5.205 -25.660  0.00  0.00    +0.211 HD
ENDBRANCH   8  24
BRANCH  12  26
ATOM     26  O   UNL     1      31.493  -5.954 -21.188  0.00  0.00    -0.382 OA
ATOM     27  H   UNL     1      31.716  -6.672 -20.575  0.00  0.00    +0.210 HD
ENDBRANCH  12  26
BRANCH   8  29
ATOM     28  O   UNL     1      30.806  -1.799 -23.769  0.00  0.00    -0.291 OA
ATOM     29  C   UNL     1      30.458  -2.368 -24.804  0.00  0.00    +0.204 C 
BRANCH  29  30
ATOM     30  C   UNL     1      29.422  -1.786 -25.741  0.00  0.00    +0.204 C 
BRANCH  30  31
ATOM     31  O   UNL     1      28.146  -1.786 -25.136  0.00  0.00    -0.375 OA
ATOM     32  H   UNL     1      28.087  -1.050 -24.507  0.00  0.00    +0.211 HD
ENDBRANCH  30  31
ENDBRANCH  29  30
ENDBRANCH   8  29
TORSDOF 5
ENDMDL
MODEL 4
REMARK VINA RESULT:      -6.5     14.606     16.406
REMARK  Name = 16490
REMARK  5 active torsions:
REMARK  status: ('A' for Active; 'I' for Inactive)
REMARK    1  A    between atoms: C_8  and  O_24
REMARK    2  A    between atoms: C_8  and  C_29
REMARK    3  A    between atoms: C_12  and  O_26
REMARK    4  A    between atoms: C_29  and  C_30
REMARK    5  A    between atoms: C_30  and  O_31
REMARK                            x       y       z     vdW  Elec       q    Type
REMARK                         _______ _______ _______ _____ _____    ______ ____
ROOT
ATOM      1  F   UNL     1      34.738 -12.432 -22.594  0.00  0.00    -0.237 F 
ATOM      2  F   UNL     1      31.673 -14.528 -20.350  0.00  0.00    -0.233 F 
ATOM      3  O   UNL     1      35.432 -17.213 -21.998  0.00  0.00    -0.287 OA
ATOM      4  C   UNL     1      33.190  -9.461 -23.638  0.00  0.00    +0.032 C 
ATOM      5  C   UNL     1      32.904 -10.297 -22.371  0.00  0.00    +0.005 C 
ATOM      6  C   UNL     1      32.487 -11.746 -22.667  0.00  0.00    +0.036 C 
ATOM      7  C   UNL     1      33.643 -12.462 -23.446  0.00  0.00    +0.165 C 
ATOM      8  C   UNL     1      33.528  -8.096 -22.964  0.00  0.00    +0.141 C 
ATOM      9  C   UNL     1      31.966  -9.408 -21.555  0.00  0.00    +0.003 C 
ATOM     10  C   UNL     1      34.346 -10.145 -24.396  0.00  0.00    +0.035 C 
ATOM     11  C   UNL     1      32.449  -7.963 -21.845  0.00  0.00    +0.032 C 
ATOM     12  C   UNL     1      34.106 -11.643 -24.690  0.00  0.00    +0.141 C 
ATOM     13  C   UNL     1      33.345 -13.995 -23.687  0.00  0.00    +0.066 C 
ATOM     14  C   UNL     1      32.162 -12.484 -21.358  0.00  0.00    +0.042 C 
ATOM     15  C   UNL     1      31.953  -9.315 -24.565  0.00  0.00    +0.003 C 
ATOM     16  C   UNL     1      31.871 -13.963 -21.576  0.00  0.00    +0.180 C 
ATOM     17  C   UNL     1      33.006 -14.618 -22.325  0.00  0.00    -0.003 C 
ATOM     18  C   UNL     1      32.920  -7.251 -20.581  0.00  0.00    +0.003 C 
ATOM     19  C   UNL     1      32.162 -14.260 -24.645  0.00  0.00    +0.011 C 
ATOM     20  C   UNL     1      34.558 -14.669 -24.315  0.00  0.00    -0.017 C 
ATOM     21  C   UNL     1      33.681 -15.647 -21.791  0.00  0.00    +0.036 C 
ATOM     22  C   UNL     1      35.233 -15.693 -23.786  0.00  0.00    +0.038 C 
ATOM     23  C   UNL     1      34.830 -16.263 -22.488  0.00  0.00    +0.195 C 
ENDROOT
BRANCH   8  24
ATOM     24  O   UNL     1      34.857  -8.047 -22.458  0.00  0.00    -0.380 OA
ATOM     25  H   UNL     1      34.834  -7.830 -21.513  0.00  0.00    +0.211 HD
ENDBRANCH   8  24
BRANCH  12  26
ATOM     26  O   UNL     1      33.182 -11.771 -25.761  0.00  0.00    -0.382 OA
ATOM     27  H   UNL     1      32.303 -11.485 -25.467  0.00  0.00    +0.210 HD
ENDBRANCH  12  26
BRANCH   8  29
ATOM     28  O   UNL     1      34.448  -6.710 -24.669  0.00  0.00    -0.291 OA
ATOM     29  C   UNL     1      33.509  -6.929 -23.903  0.00  0.00    +0.204 C 
BRANCH  29  30
ATOM     30  C   UNL     1      32.280  -6.048 -23.853  0.00  0.00    +0.204 C 
BRANCH  30  31
ATOM     31  O   UNL     1      32.064  -5.421 -25.100  0.00  0.00    -0.375 OA
ATOM     32  H   UNL     1      32.572  -5.884 -25.786  0.00  0.00    +0.211 HD
ENDBRANCH  30  31
ENDBRANCH  29  30
ENDBRANCH   8  29
TORSDOF 5
ENDMDL
MODEL 5
REMARK VINA RESULT:      -5.8      1.960      7.264
REMARK  Name = 16490
REMARK  5 active torsions:
REMARK  status: ('A' for Active; 'I' for Inactive)
REMARK    1  A    between atoms: C_8  and  O_24
REMARK    2  A    between atoms: C_8  and  C_29
REMARK    3  A    between atoms: C_12  and  O_26
REMARK    4  A    between atoms: C_29  and  C_30
REMARK    5  A    between atoms: C_30  and  O_31
REMARK                            x       y       z     vdW  Elec       q    Type
REMARK                         _______ _______ _______ _____ _____    ______ ____
ROOT
ATOM      1  F   UNL     1      33.059 -25.493 -14.397  0.00  0.00    -0.237 F 
ATOM      2  F   UNL     1      30.997 -22.714 -11.781  0.00  0.00    -0.233 F 
ATOM      3  O   UNL     1      28.201 -25.782 -14.392  0.00  0.00    -0.287 OA
ATOM      4  C   UNL     1      36.248 -24.093 -14.831  0.00  0.00    +0.032 C 
ATOM      5  C   UNL     1      35.305 -23.971 -13.615  0.00  0.00    +0.005 C 
ATOM      6  C   UNL     1      33.938 -23.354 -13.951  0.00  0.00    +0.036 C 
ATOM      7  C   UNL     1      33.216 -24.257 -15.009  0.00  0.00    +0.165 C 
ATOM      8  C   UNL     1      37.496 -24.697 -14.119  0.00  0.00    +0.141 C 
ATOM      9  C   UNL     1      36.175 -23.306 -12.548  0.00  0.00    +0.003 C 
ATOM     10  C   UNL     1      35.556 -25.004 -15.867  0.00  0.00    +0.035 C 
ATOM     11  C   UNL     1      37.597 -23.874 -12.797  0.00  0.00    +0.032 C 
ATOM     12  C   UNL     1      34.126 -24.556 -16.241  0.00  0.00    +0.141 C 
ATOM     13  C   UNL     1      31.751 -23.759 -15.324  0.00  0.00    +0.066 C 
ATOM     14  C   UNL     1      33.090 -23.211 -12.676  0.00  0.00    +0.042 C 
ATOM     15  C   UNL     1      36.600 -22.724 -15.472  0.00  0.00    +0.003 C 
ATOM     16  C   UNL     1      31.675 -22.731 -12.965  0.00  0.00    +0.180 C 
ATOM     17  C   UNL     1      31.013 -23.624 -13.984  0.00  0.00    -0.003 C 
ATOM     18  C   UNL     1      38.123 -24.651 -11.595  0.00  0.00    +0.003 C 
ATOM     19  C   UNL     1      31.694 -22.392 -16.043  0.00  0.00    +0.011 C 
ATOM     20  C   UNL     1      31.050 -24.751 -16.243  0.00  0.00    -0.017 C 
ATOM     21  C   UNL     1      29.877 -24.278 -13.694  0.00  0.00    +0.036 C 
ATOM     22  C   UNL     1      29.919 -25.404 -15.956  0.00  0.00    +0.038 C 
ATOM     23  C   UNL     1      29.246 -25.200 -14.661  0.00  0.00    +0.195 C 
ENDROOT
BRANCH   8  24
ATOM     24  O   UNL     1      37.377 -26.096 -13.889  0.00  0.00    -0.380 OA
ATOM     25  H   UNL     1      36.807 -26.487 -14.569  0.00  0.00    +0.211 HD
ENDBRANCH   8  24
BRANCH  12  26
ATOM     26  O   UNL     1      34.195 -23.434 -17.111  0.00  0.00    -0.382 OA
ATOM     27  H   UNL     1      33.456 -23.466 -17.738  0.00  0.00    +0.210 HD
ENDBRANCH  12  26
BRANCH   8  29
ATOM     28  O   UNL     1      39.012 -23.639 -15.621  0.00  0.00    -0.291 OA
ATOM     29  C   UNL     1      38.758 -24.620 -14.924  0.00  0.00    +0.204 C 
BRANCH  29  30
ATOM     30  C   UNL     1      39.688 -25.810 -14.828  0.00  0.00    +0.204 C 
BRANCH  30  31
ATOM     31  O   UNL     1      40.438 -25.954 -16.015  0.00  0.00    -0.375 OA
ATOM     32  H   UNL     1      41.280 -25.482 -15.924  0.00  0.00    +0.211 HD
ENDBRANCH  30  31
ENDBRANCH  29  30
ENDBRANCH   8  29
TORSDOF 5
ENDMDL
MODEL 6
REMARK VINA RESULT:      -5.8      2.248      7.025
REMARK  Name = 16490
REMARK  5 active torsions:
REMARK  status: ('A' for Active; 'I' for Inactive)
REMARK    1  A    between atoms: C_8  and  O_24
REMARK    2  A    between atoms: C_8  and  C_29
REMARK    3  A    between atoms: C_12  and  O_26
REMARK    4  A    between atoms: C_29  and  C_30
REMARK    5  A    between atoms: C_30  and  O_31
REMARK                            x       y       z     vdW  Elec       q    Type
REMARK                         _______ _______ _______ _____ _____    ______ ____
ROOT
ATOM      1  F   UNL     1      32.449 -22.456 -14.308  0.00  0.00    -0.237 F 
ATOM      2  F   UNL     1      31.247 -21.984 -18.450  0.00  0.00    -0.233 F 
ATOM      3  O   UNL     1      27.733 -21.514 -15.060  0.00  0.00    -0.287 OA
ATOM      4  C   UNL     1      35.502 -24.179 -14.468  0.00  0.00    +0.032 C 
ATOM      5  C   UNL     1      34.896 -23.204 -15.501  0.00  0.00    +0.005 C 
ATOM      6  C   UNL     1      33.523 -23.643 -16.035  0.00  0.00    +0.036 C 
ATOM      7  C   UNL     1      32.516 -23.737 -14.838  0.00  0.00    +0.165 C 
ATOM      8  C   UNL     1      36.854 -23.449 -14.201  0.00  0.00    +0.141 C 
ATOM      9  C   UNL     1      36.036 -22.973 -16.493  0.00  0.00    +0.003 C 
ATOM     10  C   UNL     1      34.529 -24.255 -13.274  0.00  0.00    +0.035 C 
ATOM     11  C   UNL     1      37.321 -23.011 -15.623  0.00  0.00    +0.032 C 
ATOM     12  C   UNL     1      33.076 -24.604 -13.668  0.00  0.00    +0.141 C 
ATOM     13  C   UNL     1      31.047 -24.068 -15.314  0.00  0.00    +0.066 C 
ATOM     14  C   UNL     1      33.025 -22.653 -17.101  0.00  0.00    +0.042 C 
ATOM     15  C   UNL     1      35.758 -25.598 -15.043  0.00  0.00    +0.003 C 
ATOM     16  C   UNL     1      31.610 -22.961 -17.570  0.00  0.00    +0.180 C 
ATOM     17  C   UNL     1      30.670 -23.041 -16.392  0.00  0.00    -0.003 C 
ATOM     18  C   UNL     1      38.085 -21.692 -15.671  0.00  0.00    +0.003 C 
ATOM     19  C   UNL     1      30.887 -25.480 -15.920  0.00  0.00    +0.011 C 
ATOM     20  C   UNL     1      30.089 -24.004 -14.132  0.00  0.00    -0.017 C 
ATOM     21  C   UNL     1      29.608 -22.226 -16.301  0.00  0.00    +0.036 C 
ATOM     22  C   UNL     1      29.031 -23.192 -14.038  0.00  0.00    +0.038 C 
ATOM     23  C   UNL     1      28.710 -22.254 -15.128  0.00  0.00    +0.195 C 
ENDROOT
BRANCH   8  24
ATOM     24  O   UNL     1      36.720 -22.354 -13.303  0.00  0.00    -0.380 OA
ATOM     25  H   UNL     1      36.090 -21.712 -13.667  0.00  0.00    +0.211 HD
ENDBRANCH   8  24
BRANCH  12  26
ATOM     26  O   UNL     1      32.989 -25.990 -13.969  0.00  0.00    -0.382 OA
ATOM     27  H   UNL     1      33.881 -26.359 -14.056  0.00  0.00    +0.210 HD
ENDBRANCH  12  26
BRANCH   8  29
ATOM     28  O   UNL     1      38.644 -25.019 -14.146  0.00  0.00    -0.291 OA
ATOM     29  C   UNL     1      37.880 -24.294 -13.510  0.00  0.00    +0.204 C 
BRANCH  29  30
ATOM     30  C   UNL     1      37.918 -24.202 -12.000  0.00  0.00    +0.204 C 
BRANCH  30  31
ATOM     31  O   UNL     1      38.791 -23.174 -11.584  0.00  0.00    -0.375 OA
ATOM     32  H   UNL     1      38.488 -22.327 -11.948  0.00  0.00    +0.211 HD
ENDBRANCH  30  31
ENDBRANCH  29  30
ENDBRANCH   8  29
TORSDOF 5
ENDMDL
MODEL 7
REMARK VINA RESULT:      -5.5     10.254     12.084
REMARK  Name = 16490
REMARK  5 active torsions:
REMARK  status: ('A' for Active; 'I' for Inactive)
REMARK    1  A    between atoms: C_8  and  O_24
REMARK    2  A    between atoms: C_8  and  C_29
REMARK    3  A    between atoms: C_12  and  O_26
REMARK    4  A    between atoms: C_29  and  C_30
REMARK    5  A    between atoms: C_30  and  O_31
REMARK                            x       y       z     vdW  Elec       q    Type
REMARK                         _______ _______ _______ _____ _____    ______ ____
ROOT
ATOM      1  F   UNL     1      35.447 -17.050 -21.005  0.00  0.00    -0.237 F 
ATOM      2  F   UNL     1      32.235 -19.654 -19.695  0.00  0.00    -0.233 F 
ATOM      3  O   UNL     1      36.813 -21.287 -19.038  0.00  0.00    -0.287 OA
ATOM      4  C   UNL     1      33.922 -14.836 -23.261  0.00  0.00    +0.032 C 
ATOM      5  C   UNL     1      33.294 -15.547 -22.043  0.00  0.00    +0.005 C 
ATOM      6  C   UNL     1      33.370 -17.081 -22.114  0.00  0.00    +0.036 C 
ATOM      7  C   UNL     1      34.875 -17.514 -22.181  0.00  0.00    +0.165 C 
ATOM      8  C   UNL     1      33.628 -13.357 -22.864  0.00  0.00    +0.141 C 
ATOM      9  C   UNL     1      31.926 -14.880 -21.901  0.00  0.00    +0.003 C 
ATOM     10  C   UNL     1      35.411 -15.236 -23.317  0.00  0.00    +0.035 C 
ATOM     11  C   UNL     1      32.166 -13.407 -22.324  0.00  0.00    +0.032 C 
ATOM     12  C   UNL     1      35.652 -16.763 -23.305  0.00  0.00    +0.141 C 
ATOM     13  C   UNL     1      35.050 -19.084 -22.137  0.00  0.00    +0.066 C 
ATOM     14  C   UNL     1      32.668 -17.706 -20.898  0.00  0.00    +0.042 C 
ATOM     15  C   UNL     1      33.222 -15.186 -24.602  0.00  0.00    +0.003 C 
ATOM     16  C   UNL     1      32.828 -19.219 -20.844  0.00  0.00    +0.180 C 
ATOM     17  C   UNL     1      34.287 -19.598 -20.908  0.00  0.00    -0.003 C 
ATOM     18  C   UNL     1      31.866 -12.430 -21.192  0.00  0.00    +0.003 C 
ATOM     19  C   UNL     1      34.498 -19.811 -23.383  0.00  0.00    +0.011 C 
ATOM     20  C   UNL     1      36.528 -19.441 -22.058  0.00  0.00    -0.017 C 
ATOM     21  C   UNL     1      34.860 -20.301 -19.919  0.00  0.00    +0.036 C 
ATOM     22  C   UNL     1      37.103 -20.140 -21.074  0.00  0.00    +0.038 C 
ATOM     23  C   UNL     1      36.300 -20.631 -19.940  0.00  0.00    +0.195 C 
ENDROOT
BRANCH   8  24
ATOM     24  O   UNL     1      34.552 -12.849 -21.910  0.00  0.00    -0.380 OA
ATOM     25  H   UNL     1      35.249 -13.505 -21.754  0.00  0.00    +0.211 HD
ENDBRANCH   8  24
BRANCH  12  26
ATOM     26  O   UNL     1      35.347 -17.298 -24.586  0.00  0.00    -0.382 OA
ATOM     27  H   UNL     1      36.045 -17.054 -25.213  0.00  0.00    +0.210 HD
ENDBRANCH  12  26
BRANCH   8  29
ATOM     28  O   UNL     1      33.831 -12.758 -25.161  0.00  0.00    -0.291 OA
ATOM     29  C   UNL     1      33.776 -12.380 -23.991  0.00  0.00    +0.204 C 
BRANCH  29  30
ATOM     30  C   UNL     1      33.852 -10.919 -23.605  0.00  0.00    +0.204 C 
BRANCH  30  31
ATOM     31  O   UNL     1      35.102 -10.372 -23.968  0.00  0.00    -0.375 OA
ATOM     32  H   UNL     1      35.423 -10.806 -24.774  0.00  0.00    +0.211 HD
ENDBRANCH  30  31
ENDBRANCH  29  30
ENDBRANCH   8  29
TORSDOF 5
ENDMDL
