MODEL 1
REMARK VINA RESULT:      -5.8      0.000      0.000
REMARK  Name = 445237
REMARK  6 active torsions:
REMARK  status: ('A' for Active; 'I' for Inactive)
REMARK    1  A    between atoms: C_2  and  S_7
REMARK    2  A    between atoms: C_3  and  O_11
REMARK    3  A    between atoms: C_4  and  C_15
REMARK    4  A    between atoms: C_5  and  O_13
REMARK    5  A    between atoms: C_6  and  S_9
REMARK    6  A    between atoms: C_15  and  O_16
REMARK                            x       y       z     vdW  Elec       q    Type
REMARK                         _______ _______ _______ _____ _____    ______ ____
ROOT
ATOM      1  O   UNL     1      37.628 -23.614 -13.453  0.00  0.00    -0.342 OA
ATOM      2  C   UNL     1      35.328 -23.304 -14.253  0.00  0.00    +0.103 C 
ATOM      3  C   UNL     1      34.808 -24.106 -13.050  0.00  0.00    +0.153 C 
ATOM      4  C   UNL     1      36.776 -23.694 -14.608  0.00  0.00    +0.157 C 
ATOM      5  C   UNL     1      35.812 -24.042 -11.897  0.00  0.00    +0.175 C 
ATOM      6  C   UNL     1      37.226 -24.422 -12.343  0.00  0.00    +0.188 C 
ENDROOT
BRANCH   2   7
ATOM      7  S   UNL     1      34.204 -23.555 -15.681  0.00  0.00    -0.164 S 
ATOM      8  H   UNL     1      33.010 -24.031 -15.238  0.00  0.00    +0.102 HD
ENDBRANCH   2   7
BRANCH   6   9
ATOM      9  S   UNL     1      37.468 -26.214 -12.632  0.00  0.00    -0.137 S 
ATOM     10  H   UNL     1      38.157 -26.753 -11.590  0.00  0.00    +0.105 HD
ENDBRANCH   6   9
BRANCH   3  11
ATOM     11  O   UNL     1      33.565 -23.559 -12.599  0.00  0.00    -0.381 OA
ATOM     12  H   UNL     1      33.728 -22.719 -12.143  0.00  0.00    +0.210 HD
ENDBRANCH   3  11
BRANCH   5  13
ATOM     13  O   UNL     1      35.367 -24.860 -10.821  0.00  0.00    -0.379 OA
ATOM     14  H   UNL     1      35.360 -24.342 -10.002  0.00  0.00    +0.211 HD
ENDBRANCH   5  13
BRANCH   4  15
ATOM     15  C   UNL     1      37.403 -22.767 -15.649  0.00  0.00    +0.168 C 
BRANCH  15  16
ATOM     16  O   UNL     1      38.657 -23.302 -16.027  0.00  0.00    -0.379 OA
ATOM     17  H   UNL     1      39.367 -22.742 -15.676  0.00  0.00    +0.211 HD
ENDBRANCH  15  16
ENDBRANCH   4  15
TORSDOF 6
ENDMDL
MODEL 2
REMARK VINA RESULT:      -5.5      2.072      3.517
REMARK  Name = 445237
REMARK  6 active torsions:
REMARK  status: ('A' for Active; 'I' for Inactive)
REMARK    1  A    between atoms: C_2  and  S_7
REMARK    2  A    between atoms: C_3  and  O_11
REMARK    3  A    between atoms: C_4  and  C_15
REMARK    4  A    between atoms: C_5  and  O_13
REMARK    5  A    between atoms: C_6  and  S_9
REMARK    6  A    between atoms: C_15  and  O_16
REMARK                            x       y       z     vdW  Elec       q    Type
REMARK                         _______ _______ _______ _____ _____    ______ ____
ROOT
ATOM      1  O   UNL     1      35.399 -25.502 -15.259  0.00  0.00    -0.342 OA
ATOM      2  C   UNL     1      36.501 -25.301 -13.075  0.00  0.00    +0.103 C 
ATOM      3  C   UNL     1      35.480 -24.229 -12.665  0.00  0.00    +0.153 C 
ATOM      4  C   UNL     1      36.671 -25.363 -14.604  0.00  0.00    +0.157 C 
ATOM      5  C   UNL     1      34.188 -24.393 -13.469  0.00  0.00    +0.175 C 
ATOM      6  C   UNL     1      34.452 -24.468 -14.975  0.00  0.00    +0.188 C 
ENDROOT
BRANCH   2   7
ATOM      7  S   UNL     1      38.100 -24.966 -12.241  0.00  0.00    -0.164 S 
ATOM      8  H   UNL     1      38.821 -26.116 -12.165  0.00  0.00    +0.102 HD
ENDBRANCH   2   7
BRANCH   6   9
ATOM      9  S   UNL     1      34.886 -22.864 -15.743  0.00  0.00    -0.137 S 
ATOM     10  H   UNL     1      35.967 -23.026 -16.553  0.00  0.00    +0.105 HD
ENDBRANCH   6   9
BRANCH   3  11
ATOM     11  O   UNL     1      35.167 -24.357 -11.275  0.00  0.00    -0.381 OA
ATOM     12  H   UNL     1      34.951 -25.281 -11.075  0.00  0.00    +0.210 HD
ENDBRANCH   3  11
BRANCH   5  13
ATOM     13  O   UNL     1      33.283 -23.342 -13.150  0.00  0.00    -0.379 OA
ATOM     14  H   UNL     1      33.433 -22.593 -13.747  0.00  0.00    +0.211 HD
ENDBRANCH   5  13
BRANCH   4  15
ATOM     15  C   UNL     1      37.504 -26.561 -15.062  0.00  0.00    +0.168 C 
BRANCH  15  16
ATOM     16  O   UNL     1      36.848 -27.169 -16.158  0.00  0.00    -0.379 OA
ATOM     17  H   UNL     1      36.661 -26.499 -16.835  0.00  0.00    +0.211 HD
ENDBRANCH  15  16
ENDBRANCH   4  15
TORSDOF 6
ENDMDL
MODEL 3
REMARK VINA RESULT:      -5.3      1.839      3.653
REMARK  Name = 445237
REMARK  6 active torsions:
REMARK  status: ('A' for Active; 'I' for Inactive)
REMARK    1  A    between atoms: C_2  and  S_7
REMARK    2  A    between atoms: C_3  and  O_11
REMARK    3  A    between atoms: C_4  and  C_15
REMARK    4  A    between atoms: C_5  and  O_13
REMARK    5  A    between atoms: C_6  and  S_9
REMARK    6  A    between atoms: C_15  and  O_16
REMARK                            x       y       z     vdW  Elec       q    Type
REMARK                         _______ _______ _______ _____ _____    ______ ____
ROOT
ATOM      1  O   UNL     1      34.663 -24.694 -12.268  0.00  0.00    -0.342 OA
ATOM      2  C   UNL     1      34.940 -24.595 -14.705  0.00  0.00    +0.103 C 
ATOM      3  C   UNL     1      36.455 -24.793 -14.535  0.00  0.00    +0.153 C 
ATOM      4  C   UNL     1      34.310 -23.959 -13.452  0.00  0.00    +0.157 C 
ATOM      5  C   UNL     1      36.750 -25.503 -13.212  0.00  0.00    +0.175 C 
ATOM      6  C   UNL     1      36.067 -24.818 -12.025  0.00  0.00    +0.188 C 
ENDROOT
BRANCH   2   7
ATOM      7  S   UNL     1      34.626 -23.576 -16.197  0.00  0.00    -0.164 S 
ATOM      8  H   UNL     1      35.445 -23.982 -17.203  0.00  0.00    +0.102 HD
ENDBRANCH   2   7
BRANCH   6   9
ATOM      9  S   UNL     1      36.851 -23.246 -11.511  0.00  0.00    -0.137 S 
ATOM     10  H   UNL     1      37.306 -22.584 -12.610  0.00  0.00    +0.105 HD
ENDBRANCH   6   9
BRANCH   3  11
ATOM     11  O   UNL     1      36.966 -25.595 -15.603  0.00  0.00    -0.381 OA
ATOM     12  H   UNL     1      36.316 -26.275 -15.837  0.00  0.00    +0.210 HD
ENDBRANCH   3  11
BRANCH   5  13
ATOM     13  O   UNL     1      38.157 -25.601 -13.019  0.00  0.00    -0.379 OA
ATOM     14  H   UNL     1      38.419 -26.534 -13.021  0.00  0.00    +0.211 HD
ENDBRANCH   5  13
BRANCH   4  15
ATOM     15  C   UNL     1      32.781 -23.952 -13.494  0.00  0.00    +0.168 C 
BRANCH  15  16
ATOM     16  O   UNL     1      32.318 -22.866 -12.714  0.00  0.00    -0.379 OA
ATOM     17  H   UNL     1      33.075 -22.340 -12.410  0.00  0.00    +0.211 HD
ENDBRANCH  15  16
ENDBRANCH   4  15
TORSDOF 6
ENDMDL
MODEL 4
REMARK VINA RESULT:      -5.2      1.246      4.582
REMARK  Name = 445237
REMARK  6 active torsions:
REMARK  status: ('A' for Active; 'I' for Inactive)
REMARK    1  A    between atoms: C_2  and  S_7
REMARK    2  A    between atoms: C_3  and  O_11
REMARK    3  A    between atoms: C_4  and  C_15
REMARK    4  A    between atoms: C_5  and  O_13
REMARK    5  A    between atoms: C_6  and  S_9
REMARK    6  A    between atoms: C_15  and  O_16
REMARK                            x       y       z     vdW  Elec       q    Type
REMARK                         _______ _______ _______ _____ _____    ______ ____
ROOT
ATOM      1  O   UNL     1      35.594 -22.967 -13.509  0.00  0.00    -0.342 OA
ATOM      2  C   UNL     1      37.695 -24.234 -13.584  0.00  0.00    +0.103 C 
ATOM      3  C   UNL     1      37.724 -24.085 -15.113  0.00  0.00    +0.153 C 
ATOM      4  C   UNL     1      36.259 -24.151 -13.035  0.00  0.00    +0.157 C 
ATOM      5  C   UNL     1      36.923 -22.853 -15.539  0.00  0.00    +0.175 C 
ATOM      6  C   UNL     1      35.518 -22.841 -14.932  0.00  0.00    +0.188 C 
ENDROOT
BRANCH   2   7
ATOM      7  S   UNL     1      38.496 -25.816 -13.114  0.00  0.00    -0.164 S 
ATOM      8  H   UNL     1      38.513 -26.651 -14.187  0.00  0.00    +0.102 HD
ENDBRANCH   2   7
BRANCH   6   9
ATOM      9  S   UNL     1      34.356 -24.029 -15.699  0.00  0.00    -0.137 S 
ATOM     10  H   UNL     1      34.375 -25.198 -15.003  0.00  0.00    +0.105 HD
ENDBRANCH   6   9
BRANCH   3  11
ATOM     11  O   UNL     1      39.072 -23.926 -15.564  0.00  0.00    -0.381 OA
ATOM     12  H   UNL     1      39.682 -24.251 -14.883  0.00  0.00    +0.210 HD
ENDBRANCH   3  11
BRANCH   5  13
ATOM     13  O   UNL     1      36.877 -22.773 -16.960  0.00  0.00    -0.379 OA
ATOM     14  H   UNL     1      36.568 -21.893 -17.225  0.00  0.00    +0.211 HD
ENDBRANCH   5  13
BRANCH   4  15
ATOM     15  C   UNL     1      36.209 -24.070 -11.509  0.00  0.00    +0.168 C 
BRANCH  15  16
ATOM     16  O   UNL     1      35.394 -25.125 -11.032  0.00  0.00    -0.379 OA
ATOM     17  H   UNL     1      34.701 -24.762 -10.457  0.00  0.00    +0.211 HD
ENDBRANCH  15  16
ENDBRANCH   4  15
TORSDOF 6
ENDMDL
MODEL 5
REMARK VINA RESULT:      -5.2      9.359     11.618
REMARK  Name = 445237
REMARK  6 active torsions:
REMARK  status: ('A' for Active; 'I' for Inactive)
REMARK    1  A    between atoms: C_2  and  S_7
REMARK    2  A    between atoms: C_3  and  O_11
REMARK    3  A    between atoms: C_4  and  C_15
REMARK    4  A    between atoms: C_5  and  O_13
REMARK    5  A    between atoms: C_6  and  S_9
REMARK    6  A    between atoms: C_15  and  O_16
REMARK                            x       y       z     vdW  Elec       q    Type
REMARK                         _______ _______ _______ _____ _____    ______ ____
ROOT
ATOM      1  O   UNL     1      35.005 -17.242 -20.685  0.00  0.00    -0.342 OA
ATOM      2  C   UNL     1      35.166 -18.043 -22.999  0.00  0.00    +0.103 C 
ATOM      3  C   UNL     1      34.679 -16.675 -23.501  0.00  0.00    +0.153 C 
ATOM      4  C   UNL     1      34.674 -18.327 -21.567  0.00  0.00    +0.157 C 
ATOM      5  C   UNL     1      34.991 -15.591 -22.467  0.00  0.00    +0.175 C 
ATOM      6  C   UNL     1      34.488 -15.965 -21.070  0.00  0.00    +0.188 C 
ENDROOT
BRANCH   2   7
ATOM      7  S   UNL     1      34.611 -19.348 -24.164  0.00  0.00    -0.164 S 
ATOM      8  H   UNL     1      34.796 -20.569 -23.596  0.00  0.00    +0.102 HD
ENDBRANCH   2   7
BRANCH   6   9
ATOM      9  S   UNL     1      32.674 -15.830 -20.863  0.00  0.00    -0.137 S 
ATOM     10  H   UNL     1      32.065 -16.859 -21.513  0.00  0.00    +0.105 HD
ENDBRANCH   6   9
BRANCH   3  11
ATOM     11  O   UNL     1      35.341 -16.338 -24.723  0.00  0.00    -0.381 OA
ATOM     12  H   UNL     1      34.707 -15.929 -25.333  0.00  0.00    +0.210 HD
ENDBRANCH   3  11
BRANCH   5  13
ATOM     13  O   UNL     1      34.457 -14.343 -22.897  0.00  0.00    -0.379 OA
ATOM     14  H   UNL     1      34.867 -13.625 -22.391  0.00  0.00    +0.211 HD
ENDBRANCH   5  13
BRANCH   4  15
ATOM     15  C   UNL     1      35.319 -19.570 -20.954  0.00  0.00    +0.168 C 
BRANCH  15  16
ATOM     16  O   UNL     1      36.543 -19.189 -20.354  0.00  0.00    -0.379 OA
ATOM     17  H   UNL     1      37.209 -19.877 -20.515  0.00  0.00    +0.211 HD
ENDBRANCH  15  16
ENDBRANCH   4  15
TORSDOF 6
ENDMDL
MODEL 6
REMARK VINA RESULT:      -5.1      1.801      4.480
REMARK  Name = 445237
REMARK  6 active torsions:
REMARK  status: ('A' for Active; 'I' for Inactive)
REMARK    1  A    between atoms: C_2  and  S_7
REMARK    2  A    between atoms: C_3  and  O_11
REMARK    3  A    between atoms: C_4  and  C_15
REMARK    4  A    between atoms: C_5  and  O_13
REMARK    5  A    between atoms: C_6  and  S_9
REMARK    6  A    between atoms: C_15  and  O_16
REMARK                            x       y       z     vdW  Elec       q    Type
REMARK                         _______ _______ _______ _____ _____    ______ ____
ROOT
ATOM      1  O   UNL     1      34.396 -23.504 -12.615  0.00  0.00    -0.342 OA
ATOM      2  C   UNL     1      36.387 -24.773 -13.288  0.00  0.00    +0.103 C 
ATOM      3  C   UNL     1      35.799 -24.936 -14.699  0.00  0.00    +0.153 C 
ATOM      4  C   UNL     1      35.280 -24.572 -12.236  0.00  0.00    +0.157 C 
ATOM      5  C   UNL     1      34.804 -23.810 -14.990  0.00  0.00    +0.175 C 
ATOM      6  C   UNL     1      33.756 -23.667 -13.884  0.00  0.00    +0.188 C 
ENDROOT
BRANCH   2   7
ATOM      7  S   UNL     1      37.424 -26.233 -12.892  0.00  0.00    -0.164 S 
ATOM      8  H   UNL     1      37.314 -27.151 -13.889  0.00  0.00    +0.102 HD
ENDBRANCH   2   7
BRANCH   6   9
ATOM      9  S   UNL     1      32.478 -24.978 -13.883  0.00  0.00    -0.137 S 
ATOM     10  H   UNL     1      32.416 -25.553 -15.115  0.00  0.00    +0.105 HD
ENDBRANCH   6   9
BRANCH   3  11
ATOM     11  O   UNL     1      36.844 -24.880 -15.674  0.00  0.00    -0.381 OA
ATOM     12  H   UNL     1      37.008 -25.769 -16.024  0.00  0.00    +0.210 HD
ENDBRANCH   3  11
BRANCH   5  13
ATOM     13  O   UNL     1      34.196 -24.018 -16.261  0.00  0.00    -0.379 OA
ATOM     14  H   UNL     1      33.907 -24.940 -16.334  0.00  0.00    +0.211 HD
ENDBRANCH   5  13
BRANCH   4  15
ATOM     15  C   UNL     1      35.830 -24.186 -10.863  0.00  0.00    +0.168 C 
BRANCH  15  16
ATOM     16  O   UNL     1      35.206 -24.998  -9.886  0.00  0.00    -0.379 OA
ATOM     17  H   UNL     1      34.399 -25.388 -10.259  0.00  0.00    +0.211 HD
ENDBRANCH  15  16
ENDBRANCH   4  15
TORSDOF 6
ENDMDL
MODEL 7
REMARK VINA RESULT:      -5.1      2.224      3.966
REMARK  Name = 445237
REMARK  6 active torsions:
REMARK  status: ('A' for Active; 'I' for Inactive)
REMARK    1  A    between atoms: C_2  and  S_7
REMARK    2  A    between atoms: C_3  and  O_11
REMARK    3  A    between atoms: C_4  and  C_15
REMARK    4  A    between atoms: C_5  and  O_13
REMARK    5  A    between atoms: C_6  and  S_9
REMARK    6  A    between atoms: C_15  and  O_16
REMARK                            x       y       z     vdW  Elec       q    Type
REMARK                         _______ _______ _______ _____ _____    ______ ____
ROOT
ATOM      1  O   UNL     1      35.844 -24.412 -14.698  0.00  0.00    -0.342 OA
ATOM      2  C   UNL     1      36.264 -23.810 -12.355  0.00  0.00    +0.103 C 
ATOM      3  C   UNL     1      37.726 -24.257 -12.508  0.00  0.00    +0.153 C 
ATOM      4  C   UNL     1      35.344 -24.535 -13.355  0.00  0.00    +0.157 C 
ATOM      5  C   UNL     1      38.152 -24.180 -13.976  0.00  0.00    +0.175 C 
ATOM      6  C   UNL     1      37.172 -24.907 -14.900  0.00  0.00    +0.188 C 
ENDROOT
BRANCH   2   7
ATOM      7  S   UNL     1      35.721 -24.094 -10.626  0.00  0.00    -0.164 S 
ATOM      8  H   UNL     1      36.177 -25.302 -10.201  0.00  0.00    +0.102 HD
ENDBRANCH   2   7
BRANCH   6   9
ATOM      9  S   UNL     1      37.279 -26.732 -14.825  0.00  0.00    -0.137 S 
ATOM     10  H   UNL     1      36.860 -27.261 -16.006  0.00  0.00    +0.105 HD
ENDBRANCH   6   9
BRANCH   3  11
ATOM     11  O   UNL     1      38.581 -23.404 -11.742  0.00  0.00    -0.381 OA
ATOM     12  H   UNL     1      38.606 -22.523 -12.147  0.00  0.00    +0.210 HD
ENDBRANCH   3  11
BRANCH   5  13
ATOM     13  O   UNL     1      39.477 -24.682 -14.122  0.00  0.00    -0.379 OA
ATOM     14  H   UNL     1      39.838 -24.397 -14.975  0.00  0.00    +0.211 HD
ENDBRANCH   5  13
BRANCH   4  15
ATOM     15  C   UNL     1      33.929 -23.958 -13.388  0.00  0.00    +0.168 C 
BRANCH  15  16
ATOM     16  O   UNL     1      33.015 -24.997 -13.091  0.00  0.00    -0.379 OA
ATOM     17  H   UNL     1      33.077 -25.685 -13.773  0.00  0.00    +0.211 HD
ENDBRANCH  15  16
ENDBRANCH   4  15
TORSDOF 6
ENDMDL
MODEL 8
REMARK VINA RESULT:      -5.1      2.252      3.412
REMARK  Name = 445237
REMARK  6 active torsions:
REMARK  status: ('A' for Active; 'I' for Inactive)
REMARK    1  A    between atoms: C_2  and  S_7
REMARK    2  A    between atoms: C_3  and  O_11
REMARK    3  A    between atoms: C_4  and  C_15
REMARK    4  A    between atoms: C_5  and  O_13
REMARK    5  A    between atoms: C_6  and  S_9
REMARK    6  A    between atoms: C_15  and  O_16
REMARK                            x       y       z     vdW  Elec       q    Type
REMARK                         _______ _______ _______ _____ _____    ______ ____
ROOT
ATOM      1  O   UNL     1      35.197 -24.542 -14.026  0.00  0.00    -0.342 OA
ATOM      2  C   UNL     1      36.762 -23.466 -15.582  0.00  0.00    +0.103 C 
ATOM      3  C   UNL     1      37.937 -23.901 -14.692  0.00  0.00    +0.153 C 
ATOM      4  C   UNL     1      35.457 -23.342 -14.773  0.00  0.00    +0.157 C 
ATOM      5  C   UNL     1      37.548 -25.131 -13.867  0.00  0.00    +0.175 C 
ATOM      6  C   UNL     1      36.231 -24.928 -13.115  0.00  0.00    +0.188 C 
ENDROOT
BRANCH   2   7
ATOM      7  S   UNL     1      37.183 -21.886 -16.412  0.00  0.00    -0.164 S 
ATOM      8  H   UNL     1      37.713 -22.145 -17.637  0.00  0.00    +0.102 HD
ENDBRANCH   2   7
BRANCH   6   9
ATOM      9  S   UNL     1      36.356 -23.824 -11.660  0.00  0.00    -0.137 S 
ATOM     10  H   UNL     1      35.680 -22.669 -11.906  0.00  0.00    +0.105 HD
ENDBRANCH   6   9
BRANCH   3  11
ATOM     11  O   UNL     1      39.066 -24.238 -15.503  0.00  0.00    -0.381 OA
ATOM     12  H   UNL     1      39.822 -23.687 -15.249  0.00  0.00    +0.210 HD
ENDBRANCH   3  11
BRANCH   5  13
ATOM     13  O   UNL     1      38.608 -25.472 -12.980  0.00  0.00    -0.379 OA
ATOM     14  H   UNL     1      39.097 -24.671 -12.737  0.00  0.00    +0.211 HD
ENDBRANCH   5  13
BRANCH   4  15
ATOM     15  C   UNL     1      34.228 -23.131 -15.658  0.00  0.00    +0.168 C 
BRANCH  15  16
ATOM     16  O   UNL     1      34.368 -23.931 -16.817  0.00  0.00    -0.379 OA
ATOM     17  H   UNL     1      34.006 -24.815 -16.645  0.00  0.00    +0.211 HD
ENDBRANCH  15  16
ENDBRANCH   4  15
TORSDOF 6
ENDMDL
MODEL 9
REMARK VINA RESULT:      -5.1      2.457      3.830
REMARK  Name = 445237
REMARK  6 active torsions:
REMARK  status: ('A' for Active; 'I' for Inactive)
REMARK    1  A    between atoms: C_2  and  S_7
REMARK    2  A    between atoms: C_3  and  O_11
REMARK    3  A    between atoms: C_4  and  C_15
REMARK    4  A    between atoms: C_5  and  O_13
REMARK    5  A    between atoms: C_6  and  S_9
REMARK    6  A    between atoms: C_15  and  O_16
REMARK                            x       y       z     vdW  Elec       q    Type
REMARK                         _______ _______ _______ _____ _____    ______ ____
ROOT
ATOM      1  O   UNL     1      35.896 -25.599 -14.239  0.00  0.00    -0.342 OA
ATOM      2  C   UNL     1      38.261 -25.448 -13.600  0.00  0.00    +0.103 C 
ATOM      3  C   UNL     1      37.998 -24.072 -12.969  0.00  0.00    +0.153 C 
ATOM      4  C   UNL     1      37.243 -25.764 -14.712  0.00  0.00    +0.157 C 
ATOM      5  C   UNL     1      36.525 -23.945 -12.574  0.00  0.00    +0.175 C 
ATOM      6  C   UNL     1      35.585 -24.298 -13.730  0.00  0.00    +0.188 C 
ENDROOT
BRANCH   2   7
ATOM      7  S   UNL     1      39.981 -25.503 -14.238  0.00  0.00    -0.164 S 
ATOM      8  H   UNL     1      40.016 -26.238 -15.381  0.00  0.00    +0.102 HD
ENDBRANCH   2   7
BRANCH   6   9
ATOM      9  S   UNL     1      35.484 -23.020 -15.035  0.00  0.00    -0.137 S 
ATOM     10  H   UNL     1      36.704 -22.437 -15.196  0.00  0.00    +0.105 HD
ENDBRANCH   6   9
BRANCH   3  11
ATOM     11  O   UNL     1      38.797 -23.911 -11.794  0.00  0.00    -0.381 OA
ATOM     12  H   UNL     1      39.662 -24.329 -11.931  0.00  0.00    +0.210 HD
ENDBRANCH   3  11
BRANCH   5  13
ATOM     13  O   UNL     1      36.269 -22.636 -12.075  0.00  0.00    -0.379 OA
ATOM     14  H   UNL     1      35.321 -22.539 -11.895  0.00  0.00    +0.211 HD
ENDBRANCH   5  13
BRANCH   4  15
ATOM     15  C   UNL     1      37.333 -27.208 -15.207  0.00  0.00    +0.168 C 
BRANCH  15  16
ATOM     16  O   UNL     1      36.684 -27.291 -16.462  0.00  0.00    -0.379 OA
ATOM     17  H   UNL     1      35.888 -27.839 -16.378  0.00  0.00    +0.211 HD
ENDBRANCH  15  16
ENDBRANCH   4  15
TORSDOF 6
ENDMDL
