MODEL 1
REMARK VINA RESULT:      -8.8      0.000      0.000
REMARK  Name = 446965
REMARK  6 active torsions:
REMARK  status: ('A' for Active; 'I' for Inactive)
REMARK    1  A    between atoms: C_2  and  C_18
REMARK    2  A    between atoms: C_2  and  C_27
REMARK    3  A    between atoms: N_17  and  C_20
REMARK    4  A    between atoms: C_20  and  C_21
REMARK    5  A    between atoms: C_21  and  C_23
REMARK    6  A    between atoms: C_23  and  O_24
REMARK                            x       y       z     vdW  Elec       q    Type
REMARK                         _______ _______ _______ _____ _____    ______ ____
ROOT
ATOM      1  N   UNL     1      33.734 -23.056 -16.886  0.00  0.00    -0.286 N 
ATOM      2  C   UNL     1      35.548 -23.929 -14.799  0.00  0.00    +0.187 C 
ATOM      3  C   UNL     1      35.994 -23.039 -15.964  0.00  0.00    +0.016 C 
ATOM      4  C   UNL     1      34.032 -24.127 -14.712  0.00  0.00    +0.016 C 
ATOM      5  C   UNL     1      35.078 -22.623 -16.957  0.00  0.00    +0.049 C 
ATOM      6  C   UNL     1      33.177 -23.677 -15.744  0.00  0.00    +0.049 C 
ATOM      7  C   UNL     1      37.352 -22.652 -16.064  0.00  0.00    -0.001 C 
ATOM      8  C   UNL     1      33.480 -24.795 -13.595  0.00  0.00    -0.001 C 
ATOM      9  C   UNL     1      35.556 -21.771 -17.975  0.00  0.00    +0.015 C 
ATOM     10  C   UNL     1      31.789 -23.858 -15.574  0.00  0.00    +0.015 C 
ATOM     11  C   UNL     1      32.869 -22.835 -18.050  0.00  0.00    +0.117 C 
ATOM     12  C   UNL     1      37.797 -21.831 -17.094  0.00  0.00    -0.000 C 
ATOM     13  C   UNL     1      32.107 -24.981 -13.467  0.00  0.00    -0.000 C 
ATOM     14  C   UNL     1      36.895 -21.382 -18.045  0.00  0.00    +0.001 C 
ATOM     15  C   UNL     1      31.260 -24.501 -14.453  0.00  0.00    +0.001 C 
ENDROOT
BRANCH   2  18
ATOM     16  O   UNL     1      35.647 -26.181 -15.623  0.00  0.00    -0.273 OA
ATOM     17  N   UNL     1      37.391 -25.394 -14.297  0.00  0.00    -0.302 N 
ATOM     18  C   UNL     1      36.186 -25.291 -14.970  0.00  0.00    +0.243 C 
ATOM     19  H   UNL     1      37.722 -24.607 -13.806  0.00  0.00    +0.149 HD
BRANCH  17  20
ATOM     20  C   UNL     1      38.189 -26.599 -14.283  0.00  0.00    +0.101 C 
BRANCH  20  21
ATOM     21  C   UNL     1      39.627 -26.327 -13.860  0.00  0.00    +0.131 C 
BRANCH  21  23
ATOM     22  O   UNL     1      41.142 -24.554 -14.566  0.00  0.00    -0.250 OA
ATOM     23  C   UNL     1      40.382 -25.468 -14.851  0.00  0.00    +0.316 C 
BRANCH  23  24
ATOM     24  O   UNL     1      40.120 -25.843 -16.131  0.00  0.00    -0.480 OA
ATOM     25  H   UNL     1      40.180 -25.217 -16.825  0.00  0.00    +0.295 HD
ENDBRANCH  23  24
ENDBRANCH  21  23
ENDBRANCH  20  21
ENDBRANCH  17  20
ENDBRANCH   2  18
BRANCH   2  27
ATOM     26  N   UNL     1      36.404 -22.857 -12.535  0.00  0.00    -0.195 NA
ATOM     27  C   UNL     1      36.029 -23.327 -13.528  0.00  0.00    +0.088 C 
ENDBRANCH   2  27
TORSDOF 6
ENDMDL
MODEL 2
REMARK VINA RESULT:      -7.3     15.123     17.961
REMARK  Name = 446965
REMARK  6 active torsions:
REMARK  status: ('A' for Active; 'I' for Inactive)
REMARK    1  A    between atoms: C_2  and  C_18
REMARK    2  A    between atoms: C_2  and  C_27
REMARK    3  A    between atoms: N_17  and  C_20
REMARK    4  A    between atoms: C_20  and  C_21
REMARK    5  A    between atoms: C_21  and  C_23
REMARK    6  A    between atoms: C_23  and  O_24
REMARK                            x       y       z     vdW  Elec       q    Type
REMARK                         _______ _______ _______ _____ _____    ______ ____
ROOT
ATOM      1  N   UNL     1      32.372 -12.062 -22.211  0.00  0.00    -0.286 N 
ATOM      2  C   UNL     1      32.776  -9.248 -22.780  0.00  0.00    +0.187 C 
ATOM      3  C   UNL     1      32.273  -9.754 -21.424  0.00  0.00    +0.016 C 
ATOM      4  C   UNL     1      33.255 -10.358 -23.720  0.00  0.00    +0.016 C 
ATOM      5  C   UNL     1      32.100 -11.135 -21.179  0.00  0.00    +0.049 C 
ATOM      6  C   UNL     1      33.051 -11.720 -23.403  0.00  0.00    +0.049 C 
ATOM      7  C   UNL     1      31.949  -8.821 -20.410  0.00  0.00    -0.001 C 
ATOM      8  C   UNL     1      33.888 -10.015 -24.938  0.00  0.00    -0.001 C 
ATOM      9  C   UNL     1      31.672 -11.525 -19.892  0.00  0.00    +0.015 C 
ATOM     10  C   UNL     1      33.556 -12.687 -24.298  0.00  0.00    +0.015 C 
ATOM     11  C   UNL     1      31.941 -13.453 -22.029  0.00  0.00    +0.117 C 
ATOM     12  C   UNL     1      31.506  -9.236 -19.159  0.00  0.00    -0.000 C 
ATOM     13  C   UNL     1      34.354 -10.992 -25.812  0.00  0.00    -0.000 C 
ATOM     14  C   UNL     1      31.378 -10.591 -18.897  0.00  0.00    +0.001 C 
ATOM     15  C   UNL     1      34.198 -12.329 -25.486  0.00  0.00    +0.001 C 
ENDROOT
BRANCH   2  18
ATOM     16  O   UNL     1      30.554  -9.051 -23.668  0.00  0.00    -0.273 OA
ATOM     17  N   UNL     1      31.995  -7.230 -23.836  0.00  0.00    -0.302 N 
ATOM     18  C   UNL     1      31.641  -8.516 -23.466  0.00  0.00    +0.243 C 
ATOM     19  H   UNL     1      32.901  -6.912 -23.618  0.00  0.00    +0.149 HD
BRANCH  17  20
ATOM     20  C   UNL     1      31.098  -6.332 -24.526  0.00  0.00    +0.101 C 
BRANCH  20  21
ATOM     21  C   UNL     1      31.191  -4.908 -23.990  0.00  0.00    +0.131 C 
BRANCH  21  23
ATOM     22  O   UNL     1      30.795  -5.703 -21.720  0.00  0.00    -0.250 OA
ATOM     23  C   UNL     1      30.776  -4.795 -22.539  0.00  0.00    +0.316 C 
BRANCH  23  24
ATOM     24  O   UNL     1      30.374  -3.533 -22.237  0.00  0.00    -0.480 OA
ATOM     25  H   UNL     1      29.751  -3.390 -21.552  0.00  0.00    +0.295 HD
ENDBRANCH  23  24
ENDBRANCH  21  23
ENDBRANCH  20  21
ENDBRANCH  17  20
ENDBRANCH   2  18
BRANCH   2  27
ATOM     26  N   UNL     1      34.767  -7.553 -22.369  0.00  0.00    -0.195 NA
ATOM     27  C   UNL     1      33.895  -8.296 -22.550  0.00  0.00    +0.088 C 
ENDBRANCH   2  27
TORSDOF 6
ENDMDL
MODEL 3
REMARK VINA RESULT:      -7.0      1.447      1.712
REMARK  Name = 446965
REMARK  6 active torsions:
REMARK  status: ('A' for Active; 'I' for Inactive)
REMARK    1  A    between atoms: C_2  and  C_18
REMARK    2  A    between atoms: C_2  and  C_27
REMARK    3  A    between atoms: N_17  and  C_20
REMARK    4  A    between atoms: C_20  and  C_21
REMARK    5  A    between atoms: C_21  and  C_23
REMARK    6  A    between atoms: C_23  and  O_24
REMARK                            x       y       z     vdW  Elec       q    Type
REMARK                         _______ _______ _______ _____ _____    ______ ____
ROOT
ATOM      1  N   UNL     1      33.455 -23.074 -16.847  0.00  0.00    -0.286 N 
ATOM      2  C   UNL     1      35.801 -23.461 -15.188  0.00  0.00    +0.187 C 
ATOM      3  C   UNL     1      35.857 -22.763 -16.551  0.00  0.00    +0.016 C 
ATOM      4  C   UNL     1      34.380 -23.730 -14.685  0.00  0.00    +0.016 C 
ATOM      5  C   UNL     1      34.690 -22.581 -17.326  0.00  0.00    +0.049 C 
ATOM      6  C   UNL     1      33.259 -23.518 -15.519  0.00  0.00    +0.049 C 
ATOM      7  C   UNL     1      37.103 -22.319 -17.054  0.00  0.00    -0.001 C 
ATOM      8  C   UNL     1      34.188 -24.225 -13.374  0.00  0.00    -0.001 C 
ATOM      9  C   UNL     1      34.816 -21.893 -18.552  0.00  0.00    +0.015 C 
ATOM     10  C   UNL     1      31.979 -23.749 -14.972  0.00  0.00    +0.015 C 
ATOM     11  C   UNL     1      32.314 -23.111 -17.769  0.00  0.00    +0.117 C 
ATOM     12  C   UNL     1      37.199 -21.666 -18.278  0.00  0.00    -0.000 C 
ATOM     13  C   UNL     1      32.913 -24.466 -12.870  0.00  0.00    -0.000 C 
ATOM     14  C   UNL     1      36.051 -21.443 -19.022  0.00  0.00    +0.001 C 
ATOM     15  C   UNL     1      31.807 -24.217 -13.667  0.00  0.00    +0.001 C 
ENDROOT
BRANCH   2  18
ATOM     16  O   UNL     1      35.973 -25.773 -15.810  0.00  0.00    -0.273 OA
ATOM     17  N   UNL     1      37.787 -24.754 -14.766  0.00  0.00    -0.302 N 
ATOM     18  C   UNL     1      36.512 -24.792 -15.305  0.00  0.00    +0.243 C 
ATOM     19  H   UNL     1      38.111 -23.905 -14.388  0.00  0.00    +0.149 HD
BRANCH  17  20
ATOM     20  C   UNL     1      38.665 -25.901 -14.733  0.00  0.00    +0.101 C 
BRANCH  20  21
ATOM     21  C   UNL     1      39.009 -26.317 -13.308  0.00  0.00    +0.131 C 
BRANCH  21  23
ATOM     22  O   UNL     1      38.208 -24.777 -11.597  0.00  0.00    -0.250 OA
ATOM     23  C   UNL     1      38.037 -25.774 -12.283  0.00  0.00    +0.316 C 
BRANCH  23  24
ATOM     24  O   UNL     1      36.914 -26.537 -12.215  0.00  0.00    -0.480 OA
ATOM     25  H   UNL     1      36.602 -26.839 -11.384  0.00  0.00    +0.295 HD
ENDBRANCH  23  24
ENDBRANCH  21  23
ENDBRANCH  20  21
ENDBRANCH  17  20
ENDBRANCH   2  18
BRANCH   2  27
ATOM     26  N   UNL     1      37.069 -21.961 -13.413  0.00  0.00    -0.195 NA
ATOM     27  C   UNL     1      36.513 -22.619 -14.191  0.00  0.00    +0.088 C 
ENDBRANCH   2  27
TORSDOF 6
ENDMDL
MODEL 4
REMARK VINA RESULT:      -6.8     15.738     18.434
REMARK  Name = 446965
REMARK  6 active torsions:
REMARK  status: ('A' for Active; 'I' for Inactive)
REMARK    1  A    between atoms: C_2  and  C_18
REMARK    2  A    between atoms: C_2  and  C_27
REMARK    3  A    between atoms: N_17  and  C_20
REMARK    4  A    between atoms: C_20  and  C_21
REMARK    5  A    between atoms: C_21  and  C_23
REMARK    6  A    between atoms: C_23  and  O_24
REMARK                            x       y       z     vdW  Elec       q    Type
REMARK                         _______ _______ _______ _____ _____    ______ ____
ROOT
ATOM      1  N   UNL     1      32.112 -11.079 -21.717  0.00  0.00    -0.286 N 
ATOM      2  C   UNL     1      33.022  -8.696 -23.096  0.00  0.00    +0.187 C 
ATOM      3  C   UNL     1      32.546  -8.679 -21.639  0.00  0.00    +0.016 C 
ATOM      4  C   UNL     1      33.188 -10.103 -23.679  0.00  0.00    +0.016 C 
ATOM      5  C   UNL     1      32.121  -9.863 -20.996  0.00  0.00    +0.049 C 
ATOM      6  C   UNL     1      32.742 -11.243 -22.972  0.00  0.00    +0.049 C 
ATOM      7  C   UNL     1      32.502  -7.451 -20.937  0.00  0.00    -0.001 C 
ATOM      8  C   UNL     1      33.770 -10.261 -24.958  0.00  0.00    -0.001 C 
ATOM      9  C   UNL     1      31.735  -9.773 -19.642  0.00  0.00    +0.015 C 
ATOM     10  C   UNL     1      32.966 -12.507 -23.556  0.00  0.00    +0.015 C 
ATOM     11  C   UNL     1      31.429 -12.235 -21.125  0.00  0.00    +0.117 C 
ATOM     12  C   UNL     1      32.093  -7.391 -19.609  0.00  0.00    -0.000 C 
ATOM     13  C   UNL     1      33.956 -11.522 -25.518  0.00  0.00    -0.000 C 
ATOM     14  C   UNL     1      31.719  -8.555 -18.958  0.00  0.00    +0.001 C 
ATOM     15  C   UNL     1      33.563 -12.646 -24.811  0.00  0.00    +0.001 C 
ENDROOT
BRANCH   2  18
ATOM     16  O   UNL     1      30.919  -8.459 -24.227  0.00  0.00    -0.273 OA
ATOM     17  N   UNL     1      32.456  -6.715 -24.340  0.00  0.00    -0.302 N 
ATOM     18  C   UNL     1      32.003  -7.960 -23.939  0.00  0.00    +0.243 C 
ATOM     19  H   UNL     1      33.349  -6.423 -24.043  0.00  0.00    +0.149 HD
BRANCH  17  20
ATOM     20  C   UNL     1      31.682  -5.822 -25.171  0.00  0.00    +0.101 C 
BRANCH  20  21
ATOM     21  C   UNL     1      32.510  -4.647 -25.674  0.00  0.00    +0.131 C 
BRANCH  21  23
ATOM     22  O   UNL     1      33.672  -4.744 -27.814  0.00  0.00    -0.250 OA
ATOM     23  C   UNL     1      33.602  -5.062 -26.636  0.00  0.00    +0.316 C 
BRANCH  23  24
ATOM     24  O   UNL     1      34.529  -5.845 -26.023  0.00  0.00    -0.480 OA
ATOM     25  H   UNL     1      35.095  -5.479 -25.373  0.00  0.00    +0.295 HD
ENDBRANCH  23  24
ENDBRANCH  21  23
ENDBRANCH  20  21
ENDBRANCH  17  20
ENDBRANCH   2  18
BRANCH   2  27
ATOM     26  N   UNL     1      35.340  -7.427 -23.246  0.00  0.00    -0.195 NA
ATOM     27  C   UNL     1      34.324  -7.984 -23.180  0.00  0.00    +0.088 C 
ENDBRANCH   2  27
TORSDOF 6
ENDMDL
MODEL 5
REMARK VINA RESULT:      -6.5     15.908     18.736
REMARK  Name = 446965
REMARK  6 active torsions:
REMARK  status: ('A' for Active; 'I' for Inactive)
REMARK    1  A    between atoms: C_2  and  C_18
REMARK    2  A    between atoms: C_2  and  C_27
REMARK    3  A    between atoms: N_17  and  C_20
REMARK    4  A    between atoms: C_20  and  C_21
REMARK    5  A    between atoms: C_21  and  C_23
REMARK    6  A    between atoms: C_23  and  O_24
REMARK                            x       y       z     vdW  Elec       q    Type
REMARK                         _______ _______ _______ _____ _____    ______ ____
ROOT
ATOM      1  N   UNL     1      33.152 -10.769 -23.443  0.00  0.00    -0.286 N 
ATOM      2  C   UNL     1      32.507  -8.354 -21.973  0.00  0.00    +0.187 C 
ATOM      3  C   UNL     1      32.057  -9.746 -21.515  0.00  0.00    +0.016 C 
ATOM      4  C   UNL     1      33.505  -8.373 -23.134  0.00  0.00    +0.016 C 
ATOM      5  C   UNL     1      32.401 -10.903 -22.252  0.00  0.00    +0.049 C 
ATOM      6  C   UNL     1      33.803  -9.572 -23.820  0.00  0.00    +0.049 C 
ATOM      7  C   UNL     1      31.260  -9.872 -20.353  0.00  0.00    -0.001 C 
ATOM      8  C   UNL     1      34.117  -7.166 -23.546  0.00  0.00    -0.001 C 
ATOM      9  C   UNL     1      31.984 -12.151 -21.745  0.00  0.00    +0.015 C 
ATOM     10  C   UNL     1      34.763  -9.518 -24.853  0.00  0.00    +0.015 C 
ATOM     11  C   UNL     1      33.274 -11.936 -24.323  0.00  0.00    +0.117 C 
ATOM     12  C   UNL     1      30.843 -11.117 -19.893  0.00  0.00    -0.000 C 
ATOM     13  C   UNL     1      35.042  -7.141 -24.585  0.00  0.00    -0.000 C 
ATOM     14  C   UNL     1      31.216 -12.258 -20.584  0.00  0.00    +0.001 C 
ATOM     15  C   UNL     1      35.373  -8.320 -25.231  0.00  0.00    +0.001 C 
ENDROOT
BRANCH   2  18
ATOM     16  O   UNL     1      30.486  -8.048 -23.231  0.00  0.00    -0.273 OA
ATOM     17  N   UNL     1      31.212  -6.329 -21.839  0.00  0.00    -0.302 N 
ATOM     18  C   UNL     1      31.284  -7.583 -22.422  0.00  0.00    +0.243 C 
ATOM     19  H   UNL     1      31.916  -6.068 -21.202  0.00  0.00    +0.149 HD
BRANCH  17  20
ATOM     20  C   UNL     1      30.153  -5.387 -22.119  0.00  0.00    +0.101 C 
BRANCH  20  21
ATOM     21  C   UNL     1      30.691  -4.059 -22.636  0.00  0.00    +0.131 C 
BRANCH  21  23
ATOM     22  O   UNL     1      31.970  -3.337 -24.580  0.00  0.00    -0.250 OA
ATOM     23  C   UNL     1      31.225  -4.148 -24.049  0.00  0.00    +0.316 C 
BRANCH  23  24
ATOM     24  O   UNL     1      30.779  -5.267 -24.676  0.00  0.00    -0.480 OA
ATOM     25  H   UNL     1      31.038  -6.113 -24.367  0.00  0.00    +0.295 HD
ENDBRANCH  23  24
ENDBRANCH  21  23
ENDBRANCH  20  21
ENDBRANCH  17  20
ENDBRANCH   2  18
BRANCH   2  27
ATOM     26  N   UNL     1      33.607  -7.100 -19.918  0.00  0.00    -0.195 NA
ATOM     27  C   UNL     1      33.125  -7.650 -20.818  0.00  0.00    +0.088 C 
ENDBRANCH   2  27
TORSDOF 6
ENDMDL
MODEL 6
REMARK VINA RESULT:      -6.4      6.708      9.472
REMARK  Name = 446965
REMARK  6 active torsions:
REMARK  status: ('A' for Active; 'I' for Inactive)
REMARK    1  A    between atoms: C_2  and  C_18
REMARK    2  A    between atoms: C_2  and  C_27
REMARK    3  A    between atoms: N_17  and  C_20
REMARK    4  A    between atoms: C_20  and  C_21
REMARK    5  A    between atoms: C_21  and  C_23
REMARK    6  A    between atoms: C_23  and  O_24
REMARK                            x       y       z     vdW  Elec       q    Type
REMARK                         _______ _______ _______ _____ _____    ______ ____
ROOT
ATOM      1  N   UNL     1      34.093 -16.414 -23.930  0.00  0.00    -0.286 N 
ATOM      2  C   UNL     1      34.778 -18.202 -21.752  0.00  0.00    +0.187 C 
ATOM      3  C   UNL     1      34.750 -18.654 -23.216  0.00  0.00    +0.016 C 
ATOM      4  C   UNL     1      34.635 -16.688 -21.566  0.00  0.00    +0.016 C 
ATOM      5  C   UNL     1      34.423 -17.750 -24.253  0.00  0.00    +0.049 C 
ATOM      6  C   UNL     1      34.312 -15.847 -22.654  0.00  0.00    +0.049 C 
ATOM      7  C   UNL     1      35.027 -20.005 -23.532  0.00  0.00    -0.001 C 
ATOM      8  C   UNL     1      34.803 -16.127 -20.278  0.00  0.00    -0.001 C 
ATOM      9  C   UNL     1      34.458 -18.232 -25.578  0.00  0.00    +0.015 C 
ATOM     10  C   UNL     1      34.238 -14.459 -22.413  0.00  0.00    +0.015 C 
ATOM     11  C   UNL     1      33.508 -15.570 -24.977  0.00  0.00    +0.117 C 
ATOM     12  C   UNL     1      35.030 -20.455 -24.847  0.00  0.00    -0.000 C 
ATOM     13  C   UNL     1      34.699 -14.755 -20.067  0.00  0.00    -0.000 C 
ATOM     14  C   UNL     1      34.756 -19.564 -25.873  0.00  0.00    +0.001 C 
ATOM     15  C   UNL     1      34.428 -13.920 -21.138  0.00  0.00    +0.001 C 
ENDROOT
BRANCH   2  18
ATOM     16  O   UNL     1      32.507 -18.375 -20.995  0.00  0.00    -0.273 OA
ATOM     17  N   UNL     1      34.015 -20.048 -20.410  0.00  0.00    -0.302 N 
ATOM     18  C   UNL     1      33.630 -18.870 -21.026  0.00  0.00    +0.243 C 
ATOM     19  H   UNL     1      34.949 -20.345 -20.507  0.00  0.00    +0.149 HD
BRANCH  17  20
ATOM     20  C   UNL     1      33.111 -20.866 -19.633  0.00  0.00    +0.101 C 
BRANCH  20  21
ATOM     21  C   UNL     1      33.668 -22.264 -19.394  0.00  0.00    +0.131 C 
BRANCH  21  23
ATOM     22  O   UNL     1      35.005 -22.762 -17.418  0.00  0.00    -0.250 OA
ATOM     23  C   UNL     1      34.911 -22.265 -18.531  0.00  0.00    +0.316 C 
BRANCH  23  24
ATOM     24  O   UNL     1      35.945 -21.640 -19.153  0.00  0.00    -0.480 OA
ATOM     25  H   UNL     1      36.764 -21.535 -18.711  0.00  0.00    +0.295 HD
ENDBRANCH  23  24
ENDBRANCH  21  23
ENDBRANCH  20  21
ENDBRANCH  17  20
ENDBRANCH   2  18
BRANCH   2  27
ATOM     26  N   UNL     1      37.059 -18.988 -20.664  0.00  0.00    -0.195 NA
ATOM     27  C   UNL     1      36.059 -18.643 -21.141  0.00  0.00    +0.088 C 
ENDBRANCH   2  27
TORSDOF 6
ENDMDL
MODEL 7
REMARK VINA RESULT:      -6.2      6.970      9.738
REMARK  Name = 446965
REMARK  6 active torsions:
REMARK  status: ('A' for Active; 'I' for Inactive)
REMARK    1  A    between atoms: C_2  and  C_18
REMARK    2  A    between atoms: C_2  and  C_27
REMARK    3  A    between atoms: N_17  and  C_20
REMARK    4  A    between atoms: C_20  and  C_21
REMARK    5  A    between atoms: C_21  and  C_23
REMARK    6  A    between atoms: C_23  and  O_24
REMARK                            x       y       z     vdW  Elec       q    Type
REMARK                         _______ _______ _______ _____ _____    ______ ____
ROOT
ATOM      1  N   UNL     1      33.939 -15.828 -23.694  0.00  0.00    -0.286 N 
ATOM      2  C   UNL     1      33.974 -17.828 -21.595  0.00  0.00    +0.187 C 
ATOM      3  C   UNL     1      33.457 -16.403 -21.372  0.00  0.00    +0.016 C 
ATOM      4  C   UNL     1      34.254 -18.165 -23.063  0.00  0.00    +0.016 C 
ATOM      5  C   UNL     1      33.444 -15.458 -22.423  0.00  0.00    +0.049 C 
ATOM      6  C   UNL     1      34.217 -17.165 -24.061  0.00  0.00    +0.049 C 
ATOM      7  C   UNL     1      33.014 -16.018 -20.084  0.00  0.00    -0.001 C 
ATOM      8  C   UNL     1      34.584 -19.493 -23.421  0.00  0.00    -0.001 C 
ATOM      9  C   UNL     1      32.916 -14.179 -22.149  0.00  0.00    +0.015 C 
ATOM     10  C   UNL     1      34.446 -17.559 -25.396  0.00  0.00    +0.015 C 
ATOM     11  C   UNL     1      34.160 -14.773 -24.689  0.00  0.00    +0.117 C 
ATOM     12  C   UNL     1      32.522 -14.741 -19.840  0.00  0.00    -0.000 C 
ATOM     13  C   UNL     1      34.829 -19.847 -24.745  0.00  0.00    -0.000 C 
ATOM     14  C   UNL     1      32.463 -13.824 -20.877  0.00  0.00    +0.001 C 
ATOM     15  C   UNL     1      34.748 -18.880 -25.734  0.00  0.00    +0.001 C 
ENDROOT
BRANCH   2  18
ATOM     16  O   UNL     1      35.928 -17.026 -20.456  0.00  0.00    -0.273 OA
ATOM     17  N   UNL     1      35.594 -19.323 -20.628  0.00  0.00    -0.302 N 
ATOM     18  C   UNL     1      35.267 -17.992 -20.825  0.00  0.00    +0.243 C 
ATOM     19  H   UNL     1      34.981 -20.012 -20.972  0.00  0.00    +0.149 HD
BRANCH  17  20
ATOM     20  C   UNL     1      36.791 -19.749 -19.940  0.00  0.00    +0.101 C 
BRANCH  20  21
ATOM     21  C   UNL     1      36.838 -21.261 -19.757  0.00  0.00    +0.131 C 
BRANCH  21  23
ATOM     22  O   UNL     1      35.864 -22.290 -17.774  0.00  0.00    -0.250 OA
ATOM     23  C   UNL     1      35.723 -21.784 -18.878  0.00  0.00    +0.316 C 
BRANCH  23  24
ATOM     24  O   UNL     1      34.510 -21.616 -19.466  0.00  0.00    -0.480 OA
ATOM     25  H   UNL     1      33.742 -21.517 -18.938  0.00  0.00    +0.295 HD
ENDBRANCH  23  24
ENDBRANCH  21  23
ENDBRANCH  20  21
ENDBRANCH  17  20
ENDBRANCH   2  18
BRANCH   2  27
ATOM     26  N   UNL     1      32.187 -19.537 -20.650  0.00  0.00    -0.195 NA
ATOM     27  C   UNL     1      32.970 -18.788 -21.064  0.00  0.00    +0.088 C 
ENDBRANCH   2  27
TORSDOF 6
ENDMDL
MODEL 8
REMARK VINA RESULT:      -5.8     15.541     18.265
REMARK  Name = 446965
REMARK  6 active torsions:
REMARK  status: ('A' for Active; 'I' for Inactive)
REMARK    1  A    between atoms: C_2  and  C_18
REMARK    2  A    between atoms: C_2  and  C_27
REMARK    3  A    between atoms: N_17  and  C_20
REMARK    4  A    between atoms: C_20  and  C_21
REMARK    5  A    between atoms: C_21  and  C_23
REMARK    6  A    between atoms: C_23  and  O_24
REMARK                            x       y       z     vdW  Elec       q    Type
REMARK                         _______ _______ _______ _____ _____    ______ ____
ROOT
ATOM      1  N   UNL     1      34.030  -6.849 -24.883  0.00  0.00    -0.286 N 
ATOM      2  C   UNL     1      32.302  -8.203 -22.989  0.00  0.00    +0.187 C 
ATOM      3  C   UNL     1      32.079  -6.749 -23.420  0.00  0.00    +0.016 C 
ATOM      4  C   UNL     1      33.368  -8.938 -23.806  0.00  0.00    +0.016 C 
ATOM      5  C   UNL     1      32.935  -6.126 -24.356  0.00  0.00    +0.049 C 
ATOM      6  C   UNL     1      34.184  -8.246 -24.730  0.00  0.00    +0.049 C 
ATOM      7  C   UNL     1      31.015  -6.010 -22.850  0.00  0.00    -0.001 C 
ATOM      8  C   UNL     1      33.558 -10.326 -23.614  0.00  0.00    -0.001 C 
ATOM      9  C   UNL     1      32.641  -4.799 -24.733  0.00  0.00    +0.015 C 
ATOM     10  C   UNL     1      35.116  -8.998 -25.475  0.00  0.00    +0.015 C 
ATOM     11  C   UNL     1      35.049  -6.115 -25.642  0.00  0.00    +0.117 C 
ATOM     12  C   UNL     1      30.766  -4.694 -23.225  0.00  0.00    -0.000 C 
ATOM     13  C   UNL     1      34.503 -11.037 -24.348  0.00  0.00    -0.000 C 
ATOM     14  C   UNL     1      31.574  -4.092 -24.176  0.00  0.00    +0.001 C 
ATOM     15  C   UNL     1      35.275 -10.373 -25.288  0.00  0.00    +0.001 C 
ENDROOT
BRANCH   2  18
ATOM     16  O   UNL     1      33.682  -7.523 -21.146  0.00  0.00    -0.273 OA
ATOM     17  N   UNL     1      31.985  -9.070 -20.766  0.00  0.00    -0.302 N 
ATOM     18  C   UNL     1      32.742  -8.207 -21.540  0.00  0.00    +0.243 C 
ATOM     19  H   UNL     1      31.253  -9.567 -21.197  0.00  0.00    +0.149 HD
BRANCH  17  20
ATOM     20  C   UNL     1      32.217  -9.274 -19.354  0.00  0.00    +0.101 C 
BRANCH  20  21
ATOM     21  C   UNL     1      31.620 -10.586 -18.860  0.00  0.00    +0.131 C 
BRANCH  21  23
ATOM     22  O   UNL     1      32.170 -12.563 -20.174  0.00  0.00    -0.250 OA
ATOM     23  C   UNL     1      31.440 -11.605 -19.964  0.00  0.00    +0.316 C 
BRANCH  23  24
ATOM     24  O   UNL     1      30.339 -11.334 -20.712  0.00  0.00    -0.480 OA
ATOM     25  H   UNL     1      30.434 -11.021 -21.590  0.00  0.00    +0.295 HD
ENDBRANCH  23  24
ENDBRANCH  21  23
ENDBRANCH  20  21
ENDBRANCH  17  20
ENDBRANCH   2  18
BRANCH   2  27
ATOM     26  N   UNL     1      30.010  -9.511 -23.196  0.00  0.00    -0.195 NA
ATOM     27  C   UNL     1      31.014  -8.937 -23.105  0.00  0.00    +0.088 C 
ENDBRANCH   2  27
TORSDOF 6
ENDMDL
