MODEL 1
REMARK VINA RESULT:      -7.9      0.000      0.000
REMARK  Name = 17754027
REMARK  1 active torsions:
REMARK  status: ('A' for Active; 'I' for Inactive)
REMARK    1  A    between atoms: C_5  and  C_18
REMARK                            x       y       z     vdW  Elec       q    Type
REMARK                         _______ _______ _______ _____ _____    ______ ____
ROOT
ATOM      1 BR   UNL     1      33.011 -23.454 -14.796  0.00  0.00    -0.019 Br
ATOM      2  O   UNL     1      36.446 -27.413 -16.458  0.00  0.00    -0.268 OA
ATOM      3  N   UNL     1      38.015 -27.167 -14.783  0.00  0.00    -0.299 N 
ATOM      4  N   UNL     1      34.983 -25.416 -15.046  0.00  0.00    -0.399 NA
ATOM      5  C   UNL     1      38.013 -24.033 -13.943  0.00  0.00    +0.075 C 
ATOM      6  C   UNL     1      37.053 -24.199 -15.121  0.00  0.00    +0.072 C 
ATOM      7  C   UNL     1      39.080 -25.126 -13.844  0.00  0.00    +0.030 C 
ATOM      8  C   UNL     1      36.273 -25.489 -15.179  0.00  0.00    +0.163 C 
ATOM      9  C   UNL     1      38.525 -26.524 -13.590  0.00  0.00    +0.090 C 
ATOM     10  C   UNL     1      35.841 -23.316 -15.032  0.00  0.00    +0.074 C 
ATOM     11  C   UNL     1      36.926 -26.784 -15.523  0.00  0.00    +0.271 C 
ATOM     12  C   UNL     1      34.741 -24.071 -14.955  0.00  0.00    +0.143 C 
ATOM     13  H   UNL     1      38.501 -27.963 -15.096  0.00  0.00    +0.150 HD
ENDROOT
BRANCH   5  18
ATOM     14  O   UNL     1      38.292 -21.797 -11.984  0.00  0.00    -0.206 OA
ATOM     15  N   UNL     1      36.487 -24.673 -12.033  0.00  0.00    -0.319 NA
ATOM     16  N   UNL     1      36.766 -22.918 -10.598  0.00  0.00    -0.251 NA
ATOM     17  N   UNL     1      35.285 -24.646  -9.946  0.00  0.00    -0.283 N 
ATOM     18  C   UNL     1      37.328 -23.881 -12.609  0.00  0.00    +0.217 C 
ATOM     19  C   UNL     1      37.545 -22.715 -11.707  0.00  0.00    +0.242 C 
ATOM     20  C   UNL     1      36.164 -24.064 -10.817  0.00  0.00    +0.207 C 
ATOM     21  H   UNL     1      34.867 -25.509 -10.171  0.00  0.00    +0.156 HD
ATOM     22  H   UNL     1      35.070 -24.202  -9.093  0.00  0.00    +0.156 HD
ENDBRANCH   5  18
TORSDOF 1
ENDMDL
MODEL 2
REMARK VINA RESULT:      -7.5     10.219     11.836
REMARK  Name = 17754027
REMARK  1 active torsions:
REMARK  status: ('A' for Active; 'I' for Inactive)
REMARK    1  A    between atoms: C_5  and  C_18
REMARK                            x       y       z     vdW  Elec       q    Type
REMARK                         _______ _______ _______ _____ _____    ______ ____
ROOT
ATOM      1 BR   UNL     1      32.678 -14.939 -19.887  0.00  0.00    -0.019 Br
ATOM      2  O   UNL     1      33.349 -15.263 -25.335  0.00  0.00    -0.268 OA
ATOM      3  N   UNL     1      34.165 -17.420 -25.405  0.00  0.00    -0.299 N 
ATOM      4  N   UNL     1      33.040 -15.731 -22.541  0.00  0.00    -0.399 NA
ATOM      5  C   UNL     1      35.795 -17.902 -22.642  0.00  0.00    +0.075 C 
ATOM      6  C   UNL     1      35.331 -16.446 -22.660  0.00  0.00    +0.072 C 
ATOM      7  C   UNL     1      35.902 -18.545 -24.028  0.00  0.00    +0.030 C 
ATOM      8  C   UNL     1      33.994 -16.171 -23.304  0.00  0.00    +0.163 C 
ATOM      9  C   UNL     1      34.576 -18.656 -24.773  0.00  0.00    +0.090 C 
ATOM     10  C   UNL     1      34.934 -15.929 -21.306  0.00  0.00    +0.074 C 
ATOM     11  C   UNL     1      33.805 -16.254 -24.780  0.00  0.00    +0.271 C 
ATOM     12  C   UNL     1      33.640 -15.592 -21.317  0.00  0.00    +0.143 C 
ATOM     13  H   UNL     1      34.141 -17.416 -26.389  0.00  0.00    +0.150 HD
ENDROOT
BRANCH   5  18
ATOM     14  O   UNL     1      36.743 -19.496 -20.303  0.00  0.00    -0.206 OA
ATOM     15  N   UNL     1      33.718 -19.060 -21.784  0.00  0.00    -0.319 NA
ATOM     16  N   UNL     1      34.538 -20.244 -20.011  0.00  0.00    -0.251 NA
ATOM     17  N   UNL     1      32.225 -20.428 -20.480  0.00  0.00    -0.283 N 
ATOM     18  C   UNL     1      34.981 -18.795 -21.740  0.00  0.00    +0.217 C 
ATOM     19  C   UNL     1      35.565 -19.548 -20.594  0.00  0.00    +0.242 C 
ATOM     20  C   UNL     1      33.479 -19.941 -20.725  0.00  0.00    +0.207 C 
ATOM     21  H   UNL     1      31.471 -20.160 -21.055  0.00  0.00    +0.156 HD
ATOM     22  H   UNL     1      32.075 -21.048 -19.729  0.00  0.00    +0.156 HD
ENDBRANCH   5  18
TORSDOF 1
ENDMDL
MODEL 3
REMARK VINA RESULT:      -6.8     16.806     18.644
REMARK  Name = 17754027
REMARK  1 active torsions:
REMARK  status: ('A' for Active; 'I' for Inactive)
REMARK    1  A    between atoms: C_5  and  C_18
REMARK                            x       y       z     vdW  Elec       q    Type
REMARK                         _______ _______ _______ _____ _____    ______ ____
ROOT
ATOM      1 BR   UNL     1      33.648  -6.347 -24.901  0.00  0.00    -0.019 Br
ATOM      2  O   UNL     1      32.584  -6.762 -19.522  0.00  0.00    -0.268 OA
ATOM      3  N   UNL     1      32.437  -9.063 -19.425  0.00  0.00    -0.299 N 
ATOM      4  N   UNL     1      33.283  -7.165 -22.255  0.00  0.00    -0.399 NA
ATOM      5  C   UNL     1      31.294 -10.056 -22.295  0.00  0.00    +0.075 C 
ATOM      6  C   UNL     1      31.304  -8.528 -22.302  0.00  0.00    +0.072 C 
ATOM      7  C   UNL     1      31.249 -10.677 -20.896  0.00  0.00    +0.030 C 
ATOM      8  C   UNL     1      32.432  -7.856 -21.558  0.00  0.00    +0.163 C 
ATOM      9  C   UNL     1      32.471 -10.376 -20.035  0.00  0.00    +0.090 C 
ATOM     10  C   UNL     1      31.659  -7.940 -23.638  0.00  0.00    +0.074 C 
ATOM     11  C   UNL     1      32.495  -7.854 -20.069  0.00  0.00    +0.271 C 
ATOM     12  C   UNL     1      32.789  -7.232 -23.531  0.00  0.00    +0.143 C 
ATOM     13  H   UNL     1      32.364  -9.036 -18.444  0.00  0.00    +0.150 HD
ENDROOT
BRANCH   5  18
ATOM     14  O   UNL     1      31.958 -12.956 -22.553  0.00  0.00    -0.206 OA
ATOM     15  N   UNL     1      33.323 -10.108 -23.802  0.00  0.00    -0.319 NA
ATOM     16  N   UNL     1      33.751 -12.347 -23.939  0.00  0.00    -0.251 NA
ATOM     17  N   UNL     1      35.183 -10.880 -25.124  0.00  0.00    -0.283 N 
ATOM     18  C   UNL     1      32.418 -10.681 -23.082  0.00  0.00    +0.217 C 
ATOM     19  C   UNL     1      32.656 -12.152 -23.139  0.00  0.00    +0.242 C 
ATOM     20  C   UNL     1      34.116 -11.142 -24.308  0.00  0.00    +0.207 C 
ATOM     21  H   UNL     1      35.403  -9.950 -25.363  0.00  0.00    +0.156 HD
ATOM     22  H   UNL     1      35.731 -11.621 -25.471  0.00  0.00    +0.156 HD
ENDBRANCH   5  18
TORSDOF 1
ENDMDL
MODEL 4
REMARK VINA RESULT:      -6.2      2.554      4.180
REMARK  Name = 17754027
REMARK  1 active torsions:
REMARK  status: ('A' for Active; 'I' for Inactive)
REMARK    1  A    between atoms: C_5  and  C_18
REMARK                            x       y       z     vdW  Elec       q    Type
REMARK                         _______ _______ _______ _____ _____    ______ ____
ROOT
ATOM      1 BR   UNL     1      32.669 -23.515 -15.102  0.00  0.00    -0.019 Br
ATOM      2  O   UNL     1      35.037 -24.239 -10.193  0.00  0.00    -0.268 OA
ATOM      3  N   UNL     1      37.229 -24.044 -10.889  0.00  0.00    -0.299 N 
ATOM      4  N   UNL     1      34.380 -23.625 -12.896  0.00  0.00    -0.399 NA
ATOM      5  C   UNL     1      37.356 -25.171 -13.928  0.00  0.00    +0.075 C 
ATOM      6  C   UNL     1      35.933 -25.384 -13.413  0.00  0.00    +0.072 C 
ATOM      7  C   UNL     1      38.413 -25.056 -12.827  0.00  0.00    +0.030 C 
ATOM      8  C   UNL     1      35.388 -24.330 -12.480  0.00  0.00    +0.163 C 
ATOM      9  C   UNL     1      38.237 -23.849 -11.910  0.00  0.00    +0.090 C 
ATOM     10  C   UNL     1      34.881 -25.186 -14.467  0.00  0.00    +0.074 C 
ATOM     11  C   UNL     1      35.880 -24.195 -11.080  0.00  0.00    +0.271 C 
ATOM     12  C   UNL     1      34.086 -24.167 -14.120  0.00  0.00    +0.143 C 
ATOM     13  H   UNL     1      37.546 -24.072  -9.958  0.00  0.00    +0.150 HD
ENDROOT
BRANCH   5  18
ATOM     14  O   UNL     1      39.745 -24.411 -15.551  0.00  0.00    -0.206 OA
ATOM     15  N   UNL     1      36.631 -23.104 -15.191  0.00  0.00    -0.319 NA
ATOM     16  N   UNL     1      38.508 -22.604 -16.391  0.00  0.00    -0.251 NA
ATOM     17  N   UNL     1      36.627 -21.188 -16.650  0.00  0.00    -0.283 N 
ATOM     18  C   UNL     1      37.497 -24.009 -14.879  0.00  0.00    +0.217 C 
ATOM     19  C   UNL     1      38.747 -23.724 -15.640  0.00  0.00    +0.242 C 
ATOM     20  C   UNL     1      37.271 -22.267 -16.109  0.00  0.00    +0.207 C 
ATOM     21  H   UNL     1      35.697 -20.991 -16.395  0.00  0.00    +0.156 HD
ATOM     22  H   UNL     1      37.094 -20.609 -17.295  0.00  0.00    +0.156 HD
ENDBRANCH   5  18
TORSDOF 1
ENDMDL
MODEL 5
REMARK VINA RESULT:      -6.1      2.648      4.661
REMARK  Name = 17754027
REMARK  1 active torsions:
REMARK  status: ('A' for Active; 'I' for Inactive)
REMARK    1  A    between atoms: C_5  and  C_18
REMARK                            x       y       z     vdW  Elec       q    Type
REMARK                         _______ _______ _______ _____ _____    ______ ____
ROOT
ATOM      1 BR   UNL     1      35.609 -24.730 -10.543  0.00  0.00    -0.019 Br
ATOM      2  O   UNL     1      31.770 -22.798 -13.972  0.00  0.00    -0.268 OA
ATOM      3  N   UNL     1      32.837 -23.336 -15.946  0.00  0.00    -0.299 N 
ATOM      4  N   UNL     1      33.961 -24.112 -12.712  0.00  0.00    -0.399 NA
ATOM      5  C   UNL     1      36.025 -23.138 -15.378  0.00  0.00    +0.075 C 
ATOM      6  C   UNL     1      35.298 -22.687 -14.111  0.00  0.00    +0.072 C 
ATOM      7  C   UNL     1      35.195 -23.006 -16.658  0.00  0.00    +0.030 C 
ATOM      8  C   UNL     1      34.001 -23.390 -13.791  0.00  0.00    +0.163 C 
ATOM      9  C   UNL     1      33.949 -23.885 -16.693  0.00  0.00    +0.090 C 
ATOM     10  C   UNL     1      35.991 -23.106 -12.845  0.00  0.00    +0.074 C 
ATOM     11  C   UNL     1      32.766 -23.153 -14.589  0.00  0.00    +0.271 C 
ATOM     12  C   UNL     1      35.196 -23.924 -12.149  0.00  0.00    +0.143 C 
ATOM     13  H   UNL     1      32.048 -23.065 -16.468  0.00  0.00    +0.150 HD
ENDROOT
BRANCH   5  18
ATOM     14  O   UNL     1      38.890 -23.927 -15.095  0.00  0.00    -0.206 OA
ATOM     15  N   UNL     1      35.982 -25.665 -15.330  0.00  0.00    -0.319 NA
ATOM     16  N   UNL     1      38.199 -26.169 -15.114  0.00  0.00    -0.251 NA
ATOM     17  N   UNL     1      36.668 -27.972 -15.221  0.00  0.00    -0.283 N 
ATOM     18  C   UNL     1      36.597 -24.531 -15.296  0.00  0.00    +0.217 C 
ATOM     19  C   UNL     1      38.055 -24.807 -15.155  0.00  0.00    +0.242 C 
ATOM     20  C   UNL     1      36.979 -26.639 -15.218  0.00  0.00    +0.207 C 
ATOM     21  H   UNL     1      35.729 -28.258 -15.302  0.00  0.00    +0.156 HD
ATOM     22  H   UNL     1      37.383 -28.644 -15.141  0.00  0.00    +0.156 HD
ENDBRANCH   5  18
TORSDOF 1
ENDMDL
MODEL 6
REMARK VINA RESULT:      -5.9     13.608     15.287
REMARK  Name = 17754027
REMARK  1 active torsions:
REMARK  status: ('A' for Active; 'I' for Inactive)
REMARK    1  A    between atoms: C_5  and  C_18
REMARK                            x       y       z     vdW  Elec       q    Type
REMARK                         _______ _______ _______ _____ _____    ______ ____
ROOT
ATOM      1 BR   UNL     1      32.148 -11.564 -20.185  0.00  0.00    -0.019 Br
ATOM      2  O   UNL     1      34.867 -16.342 -20.240  0.00  0.00    -0.268 OA
ATOM      3  N   UNL     1      35.374 -16.369 -22.492  0.00  0.00    -0.299 N 
ATOM      4  N   UNL     1      33.749 -13.776 -20.771  0.00  0.00    -0.399 NA
ATOM      5  C   UNL     1      32.956 -14.839 -24.020  0.00  0.00    +0.075 C 
ATOM      6  C   UNL     1      32.591 -14.920 -22.538  0.00  0.00    +0.072 C 
ATOM      7  C   UNL     1      33.957 -15.902 -24.480  0.00  0.00    +0.030 C 
ATOM      8  C   UNL     1      33.731 -14.811 -21.555  0.00  0.00    +0.163 C 
ATOM      9  C   UNL     1      35.329 -15.800 -23.822  0.00  0.00    +0.090 C 
ATOM     10  C   UNL     1      31.865 -13.705 -22.034  0.00  0.00    +0.074 C 
ATOM     11  C   UNL     1      34.718 -15.913 -21.377  0.00  0.00    +0.271 C 
ATOM     12  C   UNL     1      32.595 -13.109 -21.085  0.00  0.00    +0.143 C 
ATOM     13  H   UNL     1      35.934 -17.170 -22.375  0.00  0.00    +0.150 HD
ENDROOT
BRANCH   5  18
ATOM     14  O   UNL     1      32.793 -13.634 -26.747  0.00  0.00    -0.206 OA
ATOM     15  N   UNL     1      34.012 -12.556 -23.766  0.00  0.00    -0.319 NA
ATOM     16  N   UNL     1      33.842 -11.720 -25.884  0.00  0.00    -0.251 NA
ATOM     17  N   UNL     1      34.853 -10.349 -24.240  0.00  0.00    -0.283 N 
ATOM     18  C   UNL     1      33.435 -13.479 -24.461  0.00  0.00    +0.217 C 
ATOM     19  C   UNL     1      33.301 -12.979 -25.858  0.00  0.00    +0.242 C 
ATOM     20  C   UNL     1      34.246 -11.503 -24.655  0.00  0.00    +0.207 C 
ATOM     21  H   UNL     1      35.133 -10.250 -23.301  0.00  0.00    +0.156 HD
ATOM     22  H   UNL     1      35.010  -9.618 -24.880  0.00  0.00    +0.156 HD
ENDBRANCH   5  18
TORSDOF 1
ENDMDL
MODEL 7
REMARK VINA RESULT:      -5.9     18.064     19.450
REMARK  Name = 17754027
REMARK  1 active torsions:
REMARK  status: ('A' for Active; 'I' for Inactive)
REMARK    1  A    between atoms: C_5  and  C_18
REMARK                            x       y       z     vdW  Elec       q    Type
REMARK                         _______ _______ _______ _____ _____    ______ ____
ROOT
ATOM      1 BR   UNL     1      30.716 -11.369 -21.059  0.00  0.00    -0.019 Br
ATOM      2  O   UNL     1      34.850 -10.844 -24.646  0.00  0.00    -0.268 OA
ATOM      3  N   UNL     1      35.060  -8.549 -24.523  0.00  0.00    -0.299 N 
ATOM      4  N   UNL     1      32.882 -10.529 -22.610  0.00  0.00    -0.399 NA
ATOM      5  C   UNL     1      32.103  -7.364 -23.909  0.00  0.00    +0.075 C 
ATOM      6  C   UNL     1      31.969  -8.875 -24.094  0.00  0.00    +0.072 C 
ATOM      7  C   UNL     1      33.339  -6.756 -24.579  0.00  0.00    +0.030 C 
ATOM      8  C   UNL     1      33.116  -9.721 -23.599  0.00  0.00    +0.163 C 
ATOM      9  C   UNL     1      34.666  -7.251 -24.014  0.00  0.00    +0.090 C 
ATOM     10  C   UNL     1      30.945  -9.499 -23.189  0.00  0.00    +0.074 C 
ATOM     11  C   UNL     1      34.430  -9.746 -24.302  0.00  0.00    +0.271 C 
ATOM     12  C   UNL     1      31.542 -10.374 -22.373  0.00  0.00    +0.143 C 
ATOM     13  H   UNL     1      35.866  -8.574 -25.087  0.00  0.00    +0.150 HD
ENDROOT
BRANCH   5  18
ATOM     14  O   UNL     1      30.336  -5.273 -22.718  0.00  0.00    -0.206 OA
ATOM     15  N   UNL     1      32.730  -7.326 -21.461  0.00  0.00    -0.319 NA
ATOM     16  N   UNL     1      31.338  -5.711 -20.643  0.00  0.00    -0.251 NA
ATOM     17  N   UNL     1      32.811  -6.768 -19.119  0.00  0.00    -0.283 N 
ATOM     18  C   UNL     1      32.042  -6.913 -22.471  0.00  0.00    +0.217 C 
ATOM     19  C   UNL     1      31.114  -5.852 -21.987  0.00  0.00    +0.242 C 
ATOM     20  C   UNL     1      32.282  -6.580 -20.367  0.00  0.00    +0.207 C 
ATOM     21  H   UNL     1      33.519  -7.438 -18.979  0.00  0.00    +0.156 HD
ATOM     22  H   UNL     1      32.483  -6.233 -18.360  0.00  0.00    +0.156 HD
ENDBRANCH   5  18
TORSDOF 1
ENDMDL
MODEL 8
REMARK VINA RESULT:      -5.9      2.720      4.427
REMARK  Name = 17754027
REMARK  1 active torsions:
REMARK  status: ('A' for Active; 'I' for Inactive)
REMARK    1  A    between atoms: C_5  and  C_18
REMARK                            x       y       z     vdW  Elec       q    Type
REMARK                         _______ _______ _______ _____ _____    ______ ____
ROOT
ATOM      1 BR   UNL     1      31.601 -25.240 -13.840  0.00  0.00    -0.019 Br
ATOM      2  O   UNL     1      32.338 -22.256 -18.399  0.00  0.00    -0.268 OA
ATOM      3  N   UNL     1      34.644 -22.351 -18.446  0.00  0.00    -0.299 N 
ATOM      4  N   UNL     1      32.556 -23.988 -16.147  0.00  0.00    -0.399 NA
ATOM      5  C   UNL     1      35.643 -22.515 -15.364  0.00  0.00    +0.075 C 
ATOM      6  C   UNL     1      34.124 -22.350 -15.351  0.00  0.00    +0.072 C 
ATOM      7  C   UNL     1      36.319 -22.010 -16.642  0.00  0.00    +0.030 C 
ATOM      8  C   UNL     1      33.362 -23.022 -16.468  0.00  0.00    +0.163 C 
ATOM      9  C   UNL     1      35.920 -22.767 -17.904  0.00  0.00    +0.090 C 
ATOM     10  C   UNL     1      33.449 -23.118 -14.251  0.00  0.00    +0.074 C 
ATOM     11  C   UNL     1      33.411 -22.510 -17.866  0.00  0.00    +0.271 C 
ATOM     12  C   UNL     1      32.627 -24.031 -14.780  0.00  0.00    +0.143 C 
ATOM     13  H   UNL     1      34.662 -21.905 -19.323  0.00  0.00    +0.150 HD
ENDROOT
BRANCH   5  18
ATOM     14  O   UNL     1      37.650 -23.393 -13.336  0.00  0.00    -0.206 OA
ATOM     15  N   UNL     1      35.752 -25.027 -15.629  0.00  0.00    -0.319 NA
ATOM     16  N   UNL     1      37.299 -25.600 -14.050  0.00  0.00    -0.251 NA
ATOM     17  N   UNL     1      36.349 -27.342 -15.341  0.00  0.00    -0.283 N 
ATOM     18  C   UNL     1      36.111 -23.919 -15.073  0.00  0.00    +0.217 C 
ATOM     19  C   UNL     1      37.126 -24.240 -14.030  0.00  0.00    +0.242 C 
ATOM     20  C   UNL     1      36.488 -26.028 -14.989  0.00  0.00    +0.207 C 
ATOM     21  H   UNL     1      35.721 -27.597 -16.056  0.00  0.00    +0.156 HD
ATOM     22  H   UNL     1      36.876 -28.035 -14.879  0.00  0.00    +0.156 HD
ENDBRANCH   5  18
TORSDOF 1
ENDMDL
MODEL 9
REMARK VINA RESULT:      -5.8      2.672      3.917
REMARK  Name = 17754027
REMARK  1 active torsions:
REMARK  status: ('A' for Active; 'I' for Inactive)
REMARK    1  A    between atoms: C_5  and  C_18
REMARK                            x       y       z     vdW  Elec       q    Type
REMARK                         _______ _______ _______ _____ _____    ______ ____
ROOT
ATOM      1 BR   UNL     1      39.411 -25.056 -15.344  0.00  0.00    -0.019 Br
ATOM      2  O   UNL     1      34.641 -23.382 -17.506  0.00  0.00    -0.268 OA
ATOM      3  N   UNL     1      33.562 -22.918 -15.519  0.00  0.00    -0.299 N 
ATOM      4  N   UNL     1      36.899 -23.952 -15.864  0.00  0.00    -0.399 NA
ATOM      5  C   UNL     1      34.728 -24.985 -13.308  0.00  0.00    +0.075 C 
ATOM      6  C   UNL     1      35.356 -25.342 -14.654  0.00  0.00    +0.072 C 
ATOM      7  C   UNL     1      33.400 -24.230 -13.414  0.00  0.00    +0.030 C 
ATOM      8  C   UNL     1      35.653 -24.193 -15.587  0.00  0.00    +0.163 C 
ATOM      9  C   UNL     1      33.508 -22.859 -14.073  0.00  0.00    +0.090 C 
ATOM     10  C   UNL     1      36.784 -25.795 -14.545  0.00  0.00    +0.074 C 
ATOM     11  C   UNL     1      34.565 -23.452 -16.285  0.00  0.00    +0.271 C 
ATOM     12  C   UNL     1      37.576 -24.948 -15.211  0.00  0.00    +0.143 C 
ATOM     13  H   UNL     1      32.796 -22.533 -16.004  0.00  0.00    +0.150 HD
ENDROOT
BRANCH   5  18
ATOM     14  O   UNL     1      35.031 -25.337 -10.358  0.00  0.00    -0.206 OA
ATOM     15  N   UNL     1      36.497 -23.303 -12.649  0.00  0.00    -0.319 NA
ATOM     16  N   UNL     1      36.657 -23.646 -10.397  0.00  0.00    -0.251 NA
ATOM     17  N   UNL     1      38.047 -21.988 -11.358  0.00  0.00    -0.283 N 
ATOM     18  C   UNL     1      35.652 -24.240 -12.377  0.00  0.00    +0.217 C 
ATOM     19  C   UNL     1      35.718 -24.501 -10.911  0.00  0.00    +0.242 C 
ATOM     20  C   UNL     1      37.091 -22.963 -11.430  0.00  0.00    +0.207 C 
ATOM     21  H   UNL     1      38.329 -21.512 -12.173  0.00  0.00    +0.156 HD
ATOM     22  H   UNL     1      38.455 -21.761 -10.490  0.00  0.00    +0.156 HD
ENDBRANCH   5  18
TORSDOF 1
ENDMDL
