MODEL 1
REMARK VINA RESULT:     -10.6      0.000      0.000
REMARK  Name = 2822496
REMARK  6 active torsions:
REMARK  status: ('A' for Active; 'I' for Inactive)
REMARK    1  A    between atoms: C_2  and  C_7
REMARK    2  A    between atoms: C_4  and  C_19
REMARK    3  A    between atoms: C_7  and  S_8
REMARK    4  A    between atoms: S_8  and  C_13
REMARK    5  A    between atoms: C_12  and  C_18
REMARK    6  A    between atoms: C_20  and  C_21
REMARK                            x       y       z     vdW  Elec       q    Type
REMARK                         _______ _______ _______ _____ _____    ______ ____
ROOT
ATOM      1  O   UNL     1      34.319 -14.606 -23.759  0.00  0.00    -0.442 OA
ATOM      2  C   UNL     1      34.208 -15.862 -24.264  0.00  0.00    +0.192 C 
ATOM      3  C   UNL     1      33.517 -15.845 -25.455  0.00  0.00    +0.045 C 
ATOM      4  C   UNL     1      33.693 -13.794 -24.639  0.00  0.00    +0.187 C 
ATOM      5  C   UNL     1      33.182 -14.491 -25.695  0.00  0.00    +0.049 C 
ENDROOT
BRANCH   2   7
ATOM      6  O   UNL     1      35.276 -17.972 -24.020  0.00  0.00    -0.275 OA
ATOM      7  C   UNL     1      34.789 -16.932 -23.527  0.00  0.00    +0.270 C 
BRANCH   7   8
ATOM      8  S   UNL     1      34.903 -16.712 -21.755  0.00  0.00    +0.043 S 
BRANCH   8  13
ATOM      9  N   UNL     1      33.997 -20.192 -20.654  0.00  0.00    -0.196 N 
ATOM     10  N   UNL     1      35.846 -19.027 -20.644  0.00  0.00    -0.322 NA
ATOM     11  N   UNL     1      33.625 -19.019 -21.190  0.00  0.00    -0.107 NA
ATOM     12  C   UNL     1      35.319 -20.189 -20.332  0.00  0.00    +0.284 C 
ATOM     13  C   UNL     1      34.777 -18.385 -21.149  0.00  0.00    +0.139 C 
ATOM     14  H   UNL     1      33.393 -20.956 -20.513  0.00  0.00    +0.178 HD
BRANCH  12  18
ATOM     15  F   UNL     1      36.202 -21.242 -18.374  0.00  0.00    -0.162 F 
ATOM     16  F   UNL     1      35.304 -22.534 -19.867  0.00  0.00    -0.162 F 
ATOM     17  F   UNL     1      37.229 -21.601 -20.257  0.00  0.00    -0.162 F 
ATOM     18  C   UNL     1      35.987 -21.351 -19.728  0.00  0.00    +0.463 C 
ENDBRANCH  12  18
ENDBRANCH   8  13
ENDBRANCH   7   8
ENDBRANCH   2   7
BRANCH   4  19
ATOM     19  C   UNL     1      33.674 -12.400 -24.325  0.00  0.00    -0.023 C 
ATOM     20  C   UNL     1      33.658 -11.226 -24.059  0.00  0.00    -0.057 C 
BRANCH  20  21
ATOM     21  C   UNL     1      33.639  -9.832 -23.744  0.00  0.00    +0.042 C 
ATOM     22  C   UNL     1      32.524  -9.275 -23.118  0.00  0.00    +0.008 C 
ATOM     23  C   UNL     1      34.735  -9.031 -24.061  0.00  0.00    +0.008 C 
ATOM     24  C   UNL     1      32.505  -7.914 -22.810  0.00  0.00    +0.001 C 
ATOM     25  C   UNL     1      34.717  -7.670 -23.752  0.00  0.00    +0.001 C 
ATOM     26  C   UNL     1      33.602  -7.112 -23.127  0.00  0.00    +0.000 C 
ENDBRANCH  20  21
ENDBRANCH   4  19
TORSDOF 6
ENDMDL
MODEL 2
REMARK VINA RESULT:     -10.4      6.365      8.816
REMARK  Name = 2822496
REMARK  6 active torsions:
REMARK  status: ('A' for Active; 'I' for Inactive)
REMARK    1  A    between atoms: C_2  and  C_7
REMARK    2  A    between atoms: C_4  and  C_19
REMARK    3  A    between atoms: C_7  and  S_8
REMARK    4  A    between atoms: S_8  and  C_13
REMARK    5  A    between atoms: C_12  and  C_18
REMARK    6  A    between atoms: C_20  and  C_21
REMARK                            x       y       z     vdW  Elec       q    Type
REMARK                         _______ _______ _______ _____ _____    ______ ____
ROOT
ATOM      1  O   UNL     1      35.682 -20.996 -18.889  0.00  0.00    -0.442 OA
ATOM      2  C   UNL     1      35.447 -21.963 -17.963  0.00  0.00    +0.192 C 
ATOM      3  C   UNL     1      34.300 -22.658 -18.271  0.00  0.00    +0.045 C 
ATOM      4  C   UNL     1      34.674 -21.086 -19.784  0.00  0.00    +0.187 C 
ATOM      5  C   UNL     1      33.799 -22.081 -19.461  0.00  0.00    +0.049 C 
ENDROOT
BRANCH   2   7
ATOM      6  O   UNL     1      37.531 -21.634 -16.867  0.00  0.00    -0.275 OA
ATOM      7  C   UNL     1      36.369 -22.095 -16.887  0.00  0.00    +0.270 C 
BRANCH   7   8
ATOM      8  S   UNL     1      35.768 -22.915 -15.415  0.00  0.00    +0.043 S 
BRANCH   8  13
ATOM      9  N   UNL     1      37.751 -26.098 -15.142  0.00  0.00    -0.196 N 
ATOM     10  N   UNL     1      38.213 -23.986 -14.818  0.00  0.00    -0.322 NA
ATOM     11  N   UNL     1      36.590 -25.484 -15.415  0.00  0.00    -0.107 NA
ATOM     12  C   UNL     1      38.711 -25.202 -14.789  0.00  0.00    +0.284 C 
ATOM     13  C   UNL     1      36.947 -24.237 -15.200  0.00  0.00    +0.139 C 
ATOM     14  H   UNL     1      37.891 -27.071 -15.191  0.00  0.00    +0.178 HD
BRANCH  12  18
ATOM     15  F   UNL     1      40.636 -26.531 -15.291  0.00  0.00    -0.162 F 
ATOM     16  F   UNL     1      40.990 -24.578 -14.417  0.00  0.00    -0.162 F 
ATOM     17  F   UNL     1      40.177 -26.182 -13.195  0.00  0.00    -0.162 F 
ATOM     18  C   UNL     1      40.081 -25.607 -14.438  0.00  0.00    +0.463 C 
ENDBRANCH  12  18
ENDBRANCH   8  13
ENDBRANCH   7   8
ENDBRANCH   2   7
BRANCH   4  19
ATOM     19  C   UNL     1      34.699 -20.159 -20.873  0.00  0.00    -0.023 C 
ATOM     20  C   UNL     1      34.720 -19.379 -21.788  0.00  0.00    -0.057 C 
BRANCH  20  21
ATOM     21  C   UNL     1      34.745 -18.453 -22.876  0.00  0.00    +0.042 C 
ATOM     22  C   UNL     1      34.527 -18.902 -24.179  0.00  0.00    +0.008 C 
ATOM     23  C   UNL     1      34.985 -17.100 -22.635  0.00  0.00    +0.008 C 
ATOM     24  C   UNL     1      34.550 -17.997 -25.241  0.00  0.00    +0.001 C 
ATOM     25  C   UNL     1      35.007 -16.196 -23.697  0.00  0.00    +0.001 C 
ATOM     26  C   UNL     1      34.790 -16.645 -25.000  0.00  0.00    +0.000 C 
ENDBRANCH  20  21
ENDBRANCH   4  19
TORSDOF 6
ENDMDL
MODEL 3
REMARK VINA RESULT:     -10.4      1.406      1.864
REMARK  Name = 2822496
REMARK  6 active torsions:
REMARK  status: ('A' for Active; 'I' for Inactive)
REMARK    1  A    between atoms: C_2  and  C_7
REMARK    2  A    between atoms: C_4  and  C_19
REMARK    3  A    between atoms: C_7  and  S_8
REMARK    4  A    between atoms: S_8  and  C_13
REMARK    5  A    between atoms: C_12  and  C_18
REMARK    6  A    between atoms: C_20  and  C_21
REMARK                            x       y       z     vdW  Elec       q    Type
REMARK                         _______ _______ _______ _____ _____    ______ ____
ROOT
ATOM      1  O   UNL     1      34.454 -14.266 -22.504  0.00  0.00    -0.442 OA
ATOM      2  C   UNL     1      34.480 -15.612 -22.682  0.00  0.00    +0.192 C 
ATOM      3  C   UNL     1      33.973 -15.946 -23.917  0.00  0.00    +0.045 C 
ATOM      4  C   UNL     1      33.926 -13.751 -23.636  0.00  0.00    +0.187 C 
ATOM      5  C   UNL     1      33.612 -14.726 -24.536  0.00  0.00    +0.049 C 
ENDROOT
BRANCH   2   7
ATOM      6  O   UNL     1      34.931 -16.144 -20.409  0.00  0.00    -0.275 OA
ATOM      7  C   UNL     1      34.998 -16.415 -21.627  0.00  0.00    +0.270 C 
BRANCH   7   8
ATOM      8  S   UNL     1      35.722 -17.984 -22.097  0.00  0.00    +0.043 S 
BRANCH   8  13
ATOM      9  N   UNL     1      33.116 -20.107 -20.410  0.00  0.00    -0.196 N 
ATOM     10  N   UNL     1      35.300 -20.150 -20.482  0.00  0.00    -0.322 NA
ATOM     11  N   UNL     1      33.419 -19.061 -21.195  0.00  0.00    -0.107 NA
ATOM     12  C   UNL     1      34.239 -20.749 -19.991  0.00  0.00    +0.284 C 
ATOM     13  C   UNL     1      34.731 -19.155 -21.187  0.00  0.00    +0.139 C 
ATOM     14  H   UNL     1      32.200 -20.375 -20.170  0.00  0.00    +0.178 HD
BRANCH  12  18
ATOM     15  F   UNL     1      33.046 -22.041 -18.369  0.00  0.00    -0.162 F 
ATOM     16  F   UNL     1      34.277 -23.131 -19.783  0.00  0.00    -0.162 F 
ATOM     17  F   UNL     1      35.213 -21.971 -18.200  0.00  0.00    -0.162 F 
ATOM     18  C   UNL     1      34.193 -21.932 -19.118  0.00  0.00    +0.463 C 
ENDBRANCH  12  18
ENDBRANCH   8  13
ENDBRANCH   7   8
ENDBRANCH   2   7
BRANCH   4  19
ATOM     19  C   UNL     1      33.794 -12.328 -23.692  0.00  0.00    -0.023 C 
ATOM     20  C   UNL     1      33.682 -11.131 -23.739  0.00  0.00    -0.057 C 
BRANCH  20  21
ATOM     21  C   UNL     1      33.549  -9.710 -23.795  0.00  0.00    +0.042 C 
ATOM     22  C   UNL     1      34.675  -8.912 -24.007  0.00  0.00    +0.008 C 
ATOM     23  C   UNL     1      32.296  -9.120 -23.640  0.00  0.00    +0.008 C 
ATOM     24  C   UNL     1      34.545  -7.524 -24.063  0.00  0.00    +0.001 C 
ATOM     25  C   UNL     1      32.166  -7.731 -23.696  0.00  0.00    +0.001 C 
ATOM     26  C   UNL     1      33.291  -6.934 -23.907  0.00  0.00    +0.000 C 
ENDBRANCH  20  21
ENDBRANCH   4  19
TORSDOF 6
ENDMDL
MODEL 4
REMARK VINA RESULT:     -10.3      6.144      8.658
REMARK  Name = 2822496
REMARK  6 active torsions:
REMARK  status: ('A' for Active; 'I' for Inactive)
REMARK    1  A    between atoms: C_2  and  C_7
REMARK    2  A    between atoms: C_4  and  C_19
REMARK    3  A    between atoms: C_7  and  S_8
REMARK    4  A    between atoms: S_8  and  C_13
REMARK    5  A    between atoms: C_12  and  C_18
REMARK    6  A    between atoms: C_20  and  C_21
REMARK                            x       y       z     vdW  Elec       q    Type
REMARK                         _______ _______ _______ _____ _____    ______ ____
ROOT
ATOM      1  O   UNL     1      34.698 -21.544 -19.196  0.00  0.00    -0.442 OA
ATOM      2  C   UNL     1      35.177 -22.239 -18.131  0.00  0.00    +0.192 C 
ATOM      3  C   UNL     1      36.506 -21.951 -17.924  0.00  0.00    +0.045 C 
ATOM      4  C   UNL     1      35.736 -20.815 -19.661  0.00  0.00    +0.187 C 
ATOM      5  C   UNL     1      36.867 -21.020 -18.927  0.00  0.00    +0.049 C 
ENDROOT
BRANCH   2   7
ATOM      6  O   UNL     1      33.455 -23.871 -17.976  0.00  0.00    -0.275 OA
ATOM      7  C   UNL     1      34.281 -23.102 -17.440  0.00  0.00    +0.270 C 
BRANCH   7   8
ATOM      8  S   UNL     1      34.423 -23.139 -15.656  0.00  0.00    +0.043 S 
BRANCH   8  13
ATOM      9  N   UNL     1      36.836 -26.006 -15.333  0.00  0.00    -0.196 N 
ATOM     10  N   UNL     1      36.963 -23.859 -14.941  0.00  0.00    -0.322 NA
ATOM     11  N   UNL     1      35.613 -25.560 -15.661  0.00  0.00    -0.107 NA
ATOM     12  C   UNL     1      37.632 -24.989 -14.907  0.00  0.00    +0.284 C 
ATOM     13  C   UNL     1      35.770 -24.281 -15.400  0.00  0.00    +0.139 C 
ATOM     14  H   UNL     1      37.120 -26.946 -15.394  0.00  0.00    +0.178 HD
BRANCH  12  18
ATOM     15  F   UNL     1      39.306 -24.770 -13.211  0.00  0.00    -0.162 F 
ATOM     16  F   UNL     1      39.427 -26.515 -14.494  0.00  0.00    -0.162 F 
ATOM     17  F   UNL     1      39.939 -24.552 -15.280  0.00  0.00    -0.162 F 
ATOM     18  C   UNL     1      39.026 -25.201 -14.486  0.00  0.00    +0.463 C 
ENDBRANCH  12  18
ENDBRANCH   8  13
ENDBRANCH   7   8
ENDBRANCH   2   7
BRANCH   4  19
ATOM     19  C   UNL     1      35.479 -19.986 -20.798  0.00  0.00    -0.023 C 
ATOM     20  C   UNL     1      35.263 -19.290 -21.755  0.00  0.00    -0.057 C 
BRANCH  20  21
ATOM     21  C   UNL     1      35.006 -18.462 -22.891  0.00  0.00    +0.042 C 
ATOM     22  C   UNL     1      34.632 -19.040 -24.104  0.00  0.00    +0.008 C 
ATOM     23  C   UNL     1      35.129 -17.077 -22.787  0.00  0.00    +0.008 C 
ATOM     24  C   UNL     1      34.381 -18.233 -25.214  0.00  0.00    +0.001 C 
ATOM     25  C   UNL     1      34.878 -16.269 -23.896  0.00  0.00    +0.001 C 
ATOM     26  C   UNL     1      34.504 -16.847 -25.109  0.00  0.00    +0.000 C 
ENDBRANCH  20  21
ENDBRANCH   4  19
TORSDOF 6
ENDMDL
MODEL 5
REMARK VINA RESULT:     -10.2      6.147     10.309
REMARK  Name = 2822496
REMARK  6 active torsions:
REMARK  status: ('A' for Active; 'I' for Inactive)
REMARK    1  A    between atoms: C_2  and  C_7
REMARK    2  A    between atoms: C_4  and  C_19
REMARK    3  A    between atoms: C_7  and  S_8
REMARK    4  A    between atoms: S_8  and  C_13
REMARK    5  A    between atoms: C_12  and  C_18
REMARK    6  A    between atoms: C_20  and  C_21
REMARK                            x       y       z     vdW  Elec       q    Type
REMARK                         _______ _______ _______ _____ _____    ______ ____
ROOT
ATOM      1  O   UNL     1      34.217 -16.229 -22.741  0.00  0.00    -0.442 OA
ATOM      2  C   UNL     1      34.240 -15.433 -23.842  0.00  0.00    +0.192 C 
ATOM      3  C   UNL     1      34.522 -16.173 -24.968  0.00  0.00    +0.045 C 
ATOM      4  C   UNL     1      34.487 -17.478 -23.180  0.00  0.00    +0.187 C 
ATOM      5  C   UNL     1      34.683 -17.508 -24.529  0.00  0.00    +0.049 C 
ENDROOT
BRANCH   2   7
ATOM      6  O   UNL     1      34.225 -13.386 -22.632  0.00  0.00    -0.275 OA
ATOM      7  C   UNL     1      33.983 -14.044 -23.667  0.00  0.00    +0.270 C 
BRANCH   7   8
ATOM      8  S   UNL     1      33.344 -13.164 -25.088  0.00  0.00    +0.043 S 
BRANCH   8  13
ATOM      9  N   UNL     1      35.036  -9.808 -24.963  0.00  0.00    -0.196 N 
ATOM     10  N   UNL     1      33.334 -10.693 -23.915  0.00  0.00    -0.322 NA
ATOM     11  N   UNL     1      34.963 -11.043 -25.483  0.00  0.00    -0.107 NA
ATOM     12  C   UNL     1      34.064  -9.607 -24.033  0.00  0.00    +0.284 C 
ATOM     13  C   UNL     1      33.931 -11.502 -24.809  0.00  0.00    +0.139 C 
ATOM     14  H   UNL     1      35.705  -9.134 -25.222  0.00  0.00    +0.178 HD
BRANCH  12  18
ATOM     15  F   UNL     1      33.120  -7.411 -23.940  0.00  0.00    -0.162 F 
ATOM     16  F   UNL     1      33.362  -8.459 -22.056  0.00  0.00    -0.162 F 
ATOM     17  F   UNL     1      35.107  -7.686 -23.099  0.00  0.00    -0.162 F 
ATOM     18  C   UNL     1      33.916  -8.336 -23.307  0.00  0.00    +0.463 C 
ENDBRANCH  12  18
ENDBRANCH   8  13
ENDBRANCH   7   8
ENDBRANCH   2   7
BRANCH   4  19
ATOM     19  C   UNL     1      34.520 -18.512 -22.192  0.00  0.00    -0.023 C 
ATOM     20  C   UNL     1      34.547 -19.381 -21.361  0.00  0.00    -0.057 C 
BRANCH  20  21
ATOM     21  C   UNL     1      34.579 -20.414 -20.374  0.00  0.00    +0.042 C 
ATOM     22  C   UNL     1      33.389 -20.993 -19.932  0.00  0.00    +0.008 C 
ATOM     23  C   UNL     1      35.800 -20.843 -19.854  0.00  0.00    +0.008 C 
ATOM     24  C   UNL     1      33.421 -22.002 -18.968  0.00  0.00    +0.001 C 
ATOM     25  C   UNL     1      35.831 -21.852 -18.891  0.00  0.00    +0.001 C 
ATOM     26  C   UNL     1      34.642 -22.431 -18.448  0.00  0.00    +0.000 C 
ENDBRANCH  20  21
ENDBRANCH   4  19
TORSDOF 6
ENDMDL
MODEL 6
REMARK VINA RESULT:     -10.0      5.142      7.380
REMARK  Name = 2822496
REMARK  6 active torsions:
REMARK  status: ('A' for Active; 'I' for Inactive)
REMARK    1  A    between atoms: C_2  and  C_7
REMARK    2  A    between atoms: C_4  and  C_19
REMARK    3  A    between atoms: C_7  and  S_8
REMARK    4  A    between atoms: S_8  and  C_13
REMARK    5  A    between atoms: C_12  and  C_18
REMARK    6  A    between atoms: C_20  and  C_21
REMARK                            x       y       z     vdW  Elec       q    Type
REMARK                         _______ _______ _______ _____ _____    ______ ____
ROOT
ATOM      1  O   UNL     1      34.398 -20.607 -19.999  0.00  0.00    -0.442 OA
ATOM      2  C   UNL     1      35.091 -21.695 -19.571  0.00  0.00    +0.192 C 
ATOM      3  C   UNL     1      36.439 -21.526 -19.789  0.00  0.00    +0.045 C 
ATOM      4  C   UNL     1      35.319 -19.749 -20.489  0.00  0.00    +0.187 C 
ATOM      5  C   UNL     1      36.582 -20.253 -20.390  0.00  0.00    +0.049 C 
ENDROOT
BRANCH   2   7
ATOM      6  O   UNL     1      33.761 -23.665 -19.639  0.00  0.00    -0.275 OA
ATOM      7  C   UNL     1      34.357 -22.772 -18.999  0.00  0.00    +0.270 C 
BRANCH   7   8
ATOM      8  S   UNL     1      34.373 -22.891 -17.213  0.00  0.00    +0.043 S 
BRANCH   8  13
ATOM      9  N   UNL     1      30.627 -22.837 -16.888  0.00  0.00    -0.196 N 
ATOM     10  N   UNL     1      32.231 -23.878 -15.828  0.00  0.00    -0.322 NA
ATOM     11  N   UNL     1      31.736 -22.407 -17.509  0.00  0.00    -0.107 NA
ATOM     12  C   UNL     1      30.929 -23.711 -15.890  0.00  0.00    +0.284 C 
ATOM     13  C   UNL     1      32.641 -23.069 -16.822  0.00  0.00    +0.139 C 
ATOM     14  H   UNL     1      29.713 -22.557 -17.123  0.00  0.00    +0.178 HD
BRANCH  12  18
ATOM     15  F   UNL     1      28.616 -23.915 -15.313  0.00  0.00    -0.162 F 
ATOM     16  F   UNL     1      29.832 -25.704 -15.152  0.00  0.00    -0.162 F 
ATOM     17  F   UNL     1      30.071 -24.096 -13.707  0.00  0.00    -0.162 F 
ATOM     18  C   UNL     1      29.898 -24.336 -15.048  0.00  0.00    +0.463 C 
ENDBRANCH  12  18
ENDBRANCH   8  13
ENDBRANCH   7   8
ENDBRANCH   2   7
BRANCH   4  19
ATOM     19  C   UNL     1      34.829 -18.510 -21.007  0.00  0.00    -0.023 C 
ATOM     20  C   UNL     1      34.415 -17.467 -21.443  0.00  0.00    -0.057 C 
BRANCH  20  21
ATOM     21  C   UNL     1      33.925 -16.229 -21.960  0.00  0.00    +0.042 C 
ATOM     22  C   UNL     1      32.950 -15.518 -21.260  0.00  0.00    +0.008 C 
ATOM     23  C   UNL     1      34.422 -15.731 -23.164  0.00  0.00    +0.008 C 
ATOM     24  C   UNL     1      32.472 -14.308 -21.765  0.00  0.00    +0.001 C 
ATOM     25  C   UNL     1      33.944 -14.521 -23.669  0.00  0.00    +0.001 C 
ATOM     26  C   UNL     1      32.969 -13.810 -22.970  0.00  0.00    +0.000 C 
ENDBRANCH  20  21
ENDBRANCH   4  19
TORSDOF 6
ENDMDL
MODEL 7
REMARK VINA RESULT:     -10.0      5.102     10.024
REMARK  Name = 2822496
REMARK  6 active torsions:
REMARK  status: ('A' for Active; 'I' for Inactive)
REMARK    1  A    between atoms: C_2  and  C_7
REMARK    2  A    between atoms: C_4  and  C_19
REMARK    3  A    between atoms: C_7  and  S_8
REMARK    4  A    between atoms: S_8  and  C_13
REMARK    5  A    between atoms: C_12  and  C_18
REMARK    6  A    between atoms: C_20  and  C_21
REMARK                            x       y       z     vdW  Elec       q    Type
REMARK                         _______ _______ _______ _____ _____    ______ ____
ROOT
ATOM      1  O   UNL     1      34.613 -17.640 -22.038  0.00  0.00    -0.442 OA
ATOM      2  C   UNL     1      34.678 -17.003 -23.237  0.00  0.00    +0.192 C 
ATOM      3  C   UNL     1      34.823 -17.912 -24.260  0.00  0.00    +0.045 C 
ATOM      4  C   UNL     1      34.718 -18.959 -22.312  0.00  0.00    +0.187 C 
ATOM      5  C   UNL     1      34.849 -19.188 -23.650  0.00  0.00    +0.049 C 
ENDROOT
BRANCH   2   7
ATOM      6  O   UNL     1      35.291 -14.809 -22.554  0.00  0.00    -0.275 OA
ATOM      7  C   UNL     1      34.591 -15.583 -23.243  0.00  0.00    +0.270 C 
BRANCH   7   8
ATOM      8  S   UNL     1      33.441 -14.857 -24.407  0.00  0.00    +0.043 S 
BRANCH   8  13
ATOM      9  N   UNL     1      32.760 -11.375 -23.161  0.00  0.00    -0.196 N 
ATOM     10  N   UNL     1      32.214 -13.373 -22.464  0.00  0.00    -0.322 NA
ATOM     11  N   UNL     1      33.329 -12.183 -24.069  0.00  0.00    -0.107 NA
ATOM     12  C   UNL     1      32.099 -12.089 -22.211  0.00  0.00    +0.284 C 
ATOM     13  C   UNL     1      32.959 -13.349 -23.585  0.00  0.00    +0.139 C 
ATOM     14  H   UNL     1      32.813 -10.392 -23.181  0.00  0.00    +0.178 HD
BRANCH  12  18
ATOM     15  F   UNL     1      31.629 -12.013 -19.867  0.00  0.00    -0.162 F 
ATOM     16  F   UNL     1      31.679 -10.119 -20.922  0.00  0.00    -0.162 F 
ATOM     17  F   UNL     1      30.018 -11.489 -21.231  0.00  0.00    -0.162 F 
ATOM     18  C   UNL     1      31.384 -11.449 -21.096  0.00  0.00    +0.463 C 
ENDBRANCH  12  18
ENDBRANCH   8  13
ENDBRANCH   7   8
ENDBRANCH   2   7
BRANCH   4  19
ATOM     19  C   UNL     1      34.675 -19.851 -21.196  0.00  0.00    -0.023 C 
ATOM     20  C   UNL     1      34.639 -20.601 -20.256  0.00  0.00    -0.057 C 
BRANCH  20  21
ATOM     21  C   UNL     1      34.597 -21.493 -19.140  0.00  0.00    +0.042 C 
ATOM     22  C   UNL     1      35.736 -21.684 -18.358  0.00  0.00    +0.008 C 
ATOM     23  C   UNL     1      33.418 -22.170 -18.832  0.00  0.00    +0.008 C 
ATOM     24  C   UNL     1      35.695 -22.554 -17.267  0.00  0.00    +0.001 C 
ATOM     25  C   UNL     1      33.376 -23.039 -17.742  0.00  0.00    +0.001 C 
ATOM     26  C   UNL     1      34.515 -23.232 -16.960  0.00  0.00    +0.000 C 
ENDBRANCH  20  21
ENDBRANCH   4  19
TORSDOF 6
ENDMDL
MODEL 8
REMARK VINA RESULT:     -10.0      4.257      6.128
REMARK  Name = 2822496
REMARK  6 active torsions:
REMARK  status: ('A' for Active; 'I' for Inactive)
REMARK    1  A    between atoms: C_2  and  C_7
REMARK    2  A    between atoms: C_4  and  C_19
REMARK    3  A    between atoms: C_7  and  S_8
REMARK    4  A    between atoms: S_8  and  C_13
REMARK    5  A    between atoms: C_12  and  C_18
REMARK    6  A    between atoms: C_20  and  C_21
REMARK                            x       y       z     vdW  Elec       q    Type
REMARK                         _______ _______ _______ _____ _____    ______ ____
ROOT
ATOM      1  O   UNL     1      33.931 -19.014 -21.258  0.00  0.00    -0.442 OA
ATOM      2  C   UNL     1      34.505 -20.006 -20.527  0.00  0.00    +0.192 C 
ATOM      3  C   UNL     1      35.877 -19.922 -20.594  0.00  0.00    +0.045 C 
ATOM      4  C   UNL     1      34.951 -18.303 -21.786  0.00  0.00    +0.187 C 
ATOM      5  C   UNL     1      36.163 -18.808 -21.418  0.00  0.00    +0.049 C 
ENDROOT
BRANCH   2   7
ATOM      6  O   UNL     1      32.457 -20.700 -19.539  0.00  0.00    -0.275 OA
ATOM      7  C   UNL     1      33.648 -20.918 -19.850  0.00  0.00    +0.270 C 
BRANCH   7   8
ATOM      8  S   UNL     1      34.321 -22.540 -19.502  0.00  0.00    +0.043 S 
BRANCH   8  13
ATOM      9  N   UNL     1      33.449 -23.458 -15.961  0.00  0.00    -0.196 N 
ATOM     10  N   UNL     1      32.283 -22.837 -17.703  0.00  0.00    -0.322 NA
ATOM     11  N   UNL     1      34.382 -23.287 -16.911  0.00  0.00    -0.107 NA
ATOM     12  C   UNL     1      32.205 -23.189 -16.439  0.00  0.00    +0.284 C 
ATOM     13  C   UNL     1      33.610 -22.919 -17.911  0.00  0.00    +0.139 C 
ATOM     14  H   UNL     1      33.641 -23.742 -15.039  0.00  0.00    +0.178 HD
BRANCH  12  18
ATOM     15  F   UNL     1      29.853 -22.821 -16.199  0.00  0.00    -0.162 F 
ATOM     16  F   UNL     1      30.677 -24.582 -15.237  0.00  0.00    -0.162 F 
ATOM     17  F   UNL     1      31.089 -22.607 -14.423  0.00  0.00    -0.162 F 
ATOM     18  C   UNL     1      30.998 -23.298 -15.606  0.00  0.00    +0.463 C 
ENDBRANCH  12  18
ENDBRANCH   8  13
ENDBRANCH   7   8
ENDBRANCH   2   7
BRANCH   4  19
ATOM     19  C   UNL     1      34.598 -17.188 -22.608  0.00  0.00    -0.023 C 
ATOM     20  C   UNL     1      34.299 -16.250 -23.300  0.00  0.00    -0.057 C 
BRANCH  20  21
ATOM     21  C   UNL     1      33.946 -15.135 -24.121  0.00  0.00    +0.042 C 
ATOM     22  C   UNL     1      33.534 -15.343 -25.438  0.00  0.00    +0.008 C 
ATOM     23  C   UNL     1      34.012 -13.841 -23.607  0.00  0.00    +0.008 C 
ATOM     24  C   UNL     1      33.188 -14.255 -26.241  0.00  0.00    +0.001 C 
ATOM     25  C   UNL     1      33.666 -12.753 -24.409  0.00  0.00    +0.001 C 
ATOM     26  C   UNL     1      33.255 -12.961 -25.726  0.00  0.00    +0.000 C 
ENDBRANCH  20  21
ENDBRANCH   4  19
TORSDOF 6
ENDMDL
MODEL 9
REMARK VINA RESULT:      -9.9      3.305      4.750
REMARK  Name = 2822496
REMARK  6 active torsions:
REMARK  status: ('A' for Active; 'I' for Inactive)
REMARK    1  A    between atoms: C_2  and  C_7
REMARK    2  A    between atoms: C_4  and  C_19
REMARK    3  A    between atoms: C_7  and  S_8
REMARK    4  A    between atoms: S_8  and  C_13
REMARK    5  A    between atoms: C_12  and  C_18
REMARK    6  A    between atoms: C_20  and  C_21
REMARK                            x       y       z     vdW  Elec       q    Type
REMARK                         _______ _______ _______ _____ _____    ______ ____
ROOT
ATOM      1  O   UNL     1      32.218 -11.309 -22.399  0.00  0.00    -0.442 OA
ATOM      2  C   UNL     1      32.145 -12.447 -21.660  0.00  0.00    +0.192 C 
ATOM      3  C   UNL     1      31.645 -12.178 -20.406  0.00  0.00    +0.045 C 
ATOM      4  C   UNL     1      31.761 -10.318 -21.602  0.00  0.00    +0.187 C 
ATOM      5  C   UNL     1      31.396 -10.785 -20.374  0.00  0.00    +0.049 C 
ENDROOT
BRANCH   2   7
ATOM      6  O   UNL     1      32.146 -14.804 -21.976  0.00  0.00    -0.275 OA
ATOM      7  C   UNL     1      32.571 -13.663 -22.263  0.00  0.00    +0.270 C 
BRANCH   7   8
ATOM      8  S   UNL     1      33.747 -13.522 -23.605  0.00  0.00    +0.043 S 
BRANCH   8  13
ATOM      9  N   UNL     1      34.071 -16.944 -25.130  0.00  0.00    -0.196 N 
ATOM     10  N   UNL     1      34.604 -16.086 -23.191  0.00  0.00    -0.322 NA
ATOM     11  N   UNL     1      33.680 -15.665 -25.241  0.00  0.00    -0.107 NA
ATOM     12  C   UNL     1      34.619 -17.186 -23.909  0.00  0.00    +0.284 C 
ATOM     13  C   UNL     1      34.031 -15.225 -24.052  0.00  0.00    +0.139 C 
ATOM     14  H   UNL     1      33.974 -17.619 -25.839  0.00  0.00    +0.178 HD
BRANCH  12  18
ATOM     15  F   UNL     1      34.450 -19.101 -22.484  0.00  0.00    -0.162 F 
ATOM     16  F   UNL     1      35.097 -19.447 -24.525  0.00  0.00    -0.162 F 
ATOM     17  F   UNL     1      36.440 -18.487 -23.109  0.00  0.00    -0.162 F 
ATOM     18  C   UNL     1      35.131 -18.510 -23.521  0.00  0.00    +0.463 C 
ENDBRANCH  12  18
ENDBRANCH   8  13
ENDBRANCH   7   8
ENDBRANCH   2   7
BRANCH   4  19
ATOM     19  C   UNL     1      31.739  -9.003 -22.162  0.00  0.00    -0.023 C 
ATOM     20  C   UNL     1      31.720  -7.896 -22.633  0.00  0.00    -0.057 C 
BRANCH  20  21
ATOM     21  C   UNL     1      31.698  -6.582 -23.193  0.00  0.00    +0.042 C 
ATOM     22  C   UNL     1      32.110  -6.378 -24.510  0.00  0.00    +0.008 C 
ATOM     23  C   UNL     1      31.263  -5.503 -22.424  0.00  0.00    +0.008 C 
ATOM     24  C   UNL     1      32.087  -5.095 -25.058  0.00  0.00    +0.001 C 
ATOM     25  C   UNL     1      31.240  -4.220 -22.971  0.00  0.00    +0.001 C 
ATOM     26  C   UNL     1      31.653  -4.016 -24.288  0.00  0.00    +0.000 C 
ENDBRANCH  20  21
ENDBRANCH   4  19
TORSDOF 6
ENDMDL
