MODEL 1
REMARK VINA RESULT:     -11.8      0.000      0.000
REMARK  Name = 16363
REMARK  6 active torsions:
REMARK  status: ('A' for Active; 'I' for Inactive)
REMARK    1  A    between atoms: N_1  and  C_19
REMARK    2  A    between atoms: C_2  and  N_9
REMARK    3  A    between atoms: C_19  and  C_20
REMARK    4  A    between atoms: C_20  and  C_21
REMARK    5  A    between atoms: C_21  and  C_23
REMARK    6  A    between atoms: C_23  and  C_25
REMARK                            x       y       z     vdW  Elec       q    Type
REMARK                         _______ _______ _______ _____ _____    ______ ____
ROOT
ATOM      1  N   UNL     1      33.837 -16.092 -24.427  0.00  0.00    +0.387 N 
ATOM      2  C   UNL     1      33.888 -13.193 -24.033  0.00  0.00    +0.086 C 
ATOM      3  C   UNL     1      32.924 -13.868 -25.009  0.00  0.00    -0.000 C 
ATOM      4  C   UNL     1      34.298 -14.174 -22.935  0.00  0.00    -0.000 C 
ATOM      5  C   UNL     1      33.496 -15.186 -25.533  0.00  0.00    -0.075 C 
ATOM      6  C   UNL     1      34.825 -15.483 -23.526  0.00  0.00    -0.075 C 
ATOM      7  H   UNL     1      32.988 -16.266 -23.890  0.00  0.00    -0.080 HD
ENDROOT
BRANCH   2   9
ATOM      8  O   UNL     1      31.590 -12.920 -22.099  0.00  0.00    -0.247 OA
ATOM      9  N   UNL     1      33.305 -12.003 -23.467  0.00  0.00    -0.282 N 
ATOM     10  N   UNL     1      31.988 -10.595 -22.274  0.00  0.00    -0.305 N 
ATOM     11  C   UNL     1      33.724 -10.691 -23.726  0.00  0.00    +0.079 A 
ATOM     12  C   UNL     1      32.215 -11.973 -22.555  0.00  0.00    +0.328 A 
ATOM     13  C   UNL     1      32.910  -9.832 -22.990  0.00  0.00    +0.076 A 
ATOM     14  C   UNL     1      34.733 -10.212 -24.534  0.00  0.00    +0.019 C 
ATOM     15  C   UNL     1      33.061  -8.463 -23.023  0.00  0.00    +0.019 C 
ATOM     16  C   UNL     1      34.907  -8.825 -24.584  0.00  0.00    +0.002 C 
ATOM     17  C   UNL     1      34.080  -7.960 -23.837  0.00  0.00    +0.002 C 
ATOM     18  H   UNL     1      31.295 -10.240 -21.672  0.00  0.00    +0.170 HD
ENDBRANCH   2   9
BRANCH   1  19
ATOM     19  C   UNL     1      34.334 -17.366 -24.945  0.00  0.00    -0.077 C 
BRANCH  19  20
ATOM     20  C   UNL     1      35.319 -17.991 -23.955  0.00  0.00    -0.015 C 
BRANCH  20  21
ATOM     21  C   UNL     1      34.657 -19.041 -23.060  0.00  0.00    +0.067 C 
BRANCH  21  23
ATOM     22  O   UNL     1      35.600 -17.921 -21.141  0.00  0.00    -0.291 OA
ATOM     23  C   UNL     1      35.052 -18.924 -21.595  0.00  0.00    +0.173 C 
BRANCH  23  25
ATOM     24  F   UNL     1      33.906 -23.175 -18.162  0.00  0.00    -0.204 F 
ATOM     25  C   UNL     1      34.746 -20.059 -20.679  0.00  0.00    +0.035 C 
ATOM     26  C   UNL     1      35.791 -20.800 -20.173  0.00  0.00    +0.005 C 
ATOM     27  C   UNL     1      33.430 -20.325 -20.372  0.00  0.00    +0.005 C 
ATOM     28  C   UNL     1      35.505 -21.861 -19.315  0.00  0.00    +0.030 C 
ATOM     29  C   UNL     1      33.144 -21.386 -19.514  0.00  0.00    +0.030 C 
ATOM     30  C   UNL     1      34.180 -22.155 -18.986  0.00  0.00    +0.140 C 
ENDBRANCH  23  25
ENDBRANCH  21  23
ENDBRANCH  20  21
ENDBRANCH  19  20
ENDBRANCH   1  19
TORSDOF 6
ENDMDL
MODEL 2
REMARK VINA RESULT:     -11.5      3.812      9.947
REMARK  Name = 16363
REMARK  6 active torsions:
REMARK  status: ('A' for Active; 'I' for Inactive)
REMARK    1  A    between atoms: N_1  and  C_19
REMARK    2  A    between atoms: C_2  and  N_9
REMARK    3  A    between atoms: C_19  and  C_20
REMARK    4  A    between atoms: C_20  and  C_21
REMARK    5  A    between atoms: C_21  and  C_23
REMARK    6  A    between atoms: C_23  and  C_25
REMARK                            x       y       z     vdW  Elec       q    Type
REMARK                         _______ _______ _______ _____ _____    ______ ____
ROOT
ATOM      1  N   UNL     1      33.804 -15.743 -23.952  0.00  0.00    +0.387 N 
ATOM      2  C   UNL     1      35.641 -17.546 -22.562  0.00  0.00    +0.086 C 
ATOM      3  C   UNL     1      34.903 -16.418 -21.842  0.00  0.00    -0.000 C 
ATOM      4  C   UNL     1      34.865 -17.973 -23.808  0.00  0.00    -0.000 C 
ATOM      5  C   UNL     1      34.578 -15.268 -22.797  0.00  0.00    -0.075 C 
ATOM      6  C   UNL     1      34.540 -16.772 -24.699  0.00  0.00    -0.075 C 
ATOM      7  H   UNL     1      32.943 -16.164 -23.603  0.00  0.00    -0.080 HD
ENDROOT
BRANCH   2   9
ATOM      8  O   UNL     1      38.233 -18.786 -21.646  0.00  0.00    -0.247 OA
ATOM      9  N   UNL     1      35.859 -18.668 -21.684  0.00  0.00    -0.282 N 
ATOM     10  N   UNL     1      36.853 -20.279 -20.439  0.00  0.00    -0.305 N 
ATOM     11  C   UNL     1      34.853 -19.423 -21.065  0.00  0.00    +0.079 A 
ATOM     12  C   UNL     1      37.128 -19.185 -21.306  0.00  0.00    +0.328 A 
ATOM     13  C   UNL     1      35.471 -20.411 -20.302  0.00  0.00    +0.076 A 
ATOM     14  C   UNL     1      33.480 -19.309 -21.122  0.00  0.00    +0.019 C 
ATOM     15  C   UNL     1      34.758 -21.328 -19.563  0.00  0.00    +0.019 C 
ATOM     16  C   UNL     1      32.732 -20.229 -20.379  0.00  0.00    +0.002 C 
ATOM     17  C   UNL     1      33.364 -21.228 -19.609  0.00  0.00    +0.002 C 
ATOM     18  H   UNL     1      37.528 -20.850 -20.005  0.00  0.00    +0.170 HD
ENDBRANCH   2   9
BRANCH   1  19
ATOM     19  C   UNL     1      33.457 -14.625 -24.830  0.00  0.00    -0.077 C 
BRANCH  19  20
ATOM     20  C   UNL     1      33.881 -13.300 -24.192  0.00  0.00    -0.015 C 
BRANCH  20  21
ATOM     21  C   UNL     1      33.386 -12.088 -24.986  0.00  0.00    +0.067 C 
BRANCH  21  23
ATOM     22  O   UNL     1      35.345 -10.797 -25.550  0.00  0.00    -0.291 OA
ATOM     23  C   UNL     1      34.312 -10.884 -24.890  0.00  0.00    +0.173 C 
BRANCH  23  25
ATOM     24  F   UNL     1      32.909  -6.700 -21.470  0.00  0.00    -0.204 F 
ATOM     25  C   UNL     1      33.937  -9.766 -23.977  0.00  0.00    +0.035 C 
ATOM     26  C   UNL     1      32.840  -9.921 -23.160  0.00  0.00    +0.005 C 
ATOM     27  C   UNL     1      34.702  -8.622 -23.985  0.00  0.00    +0.005 C 
ATOM     28  C   UNL     1      32.489  -8.876 -22.305  0.00  0.00    +0.030 C 
ATOM     29  C   UNL     1      34.352  -7.577 -23.130  0.00  0.00    +0.030 C 
ATOM     30  C   UNL     1      33.246  -7.704 -22.290  0.00  0.00    +0.140 C 
ENDBRANCH  23  25
ENDBRANCH  21  23
ENDBRANCH  20  21
ENDBRANCH  19  20
ENDBRANCH   1  19
TORSDOF 6
ENDMDL
MODEL 3
REMARK VINA RESULT:     -11.4      1.344      2.225
REMARK  Name = 16363
REMARK  6 active torsions:
REMARK  status: ('A' for Active; 'I' for Inactive)
REMARK    1  A    between atoms: N_1  and  C_19
REMARK    2  A    between atoms: C_2  and  N_9
REMARK    3  A    between atoms: C_19  and  C_20
REMARK    4  A    between atoms: C_20  and  C_21
REMARK    5  A    between atoms: C_21  and  C_23
REMARK    6  A    between atoms: C_23  and  C_25
REMARK                            x       y       z     vdW  Elec       q    Type
REMARK                         _______ _______ _______ _____ _____    ______ ____
ROOT
ATOM      1  N   UNL     1      34.360 -16.094 -24.770  0.00  0.00    +0.387 N 
ATOM      2  C   UNL     1      33.072 -13.633 -23.853  0.00  0.00    +0.086 C 
ATOM      3  C   UNL     1      34.203 -14.303 -23.073  0.00  0.00    -0.000 C 
ATOM      4  C   UNL     1      33.160 -14.006 -25.333  0.00  0.00    -0.000 C 
ATOM      5  C   UNL     1      34.242 -15.809 -23.334  0.00  0.00    -0.075 C 
ATOM      6  C   UNL     1      33.233 -15.523 -25.521  0.00  0.00    -0.075 C 
ATOM      7  H   UNL     1      35.217 -15.657 -25.109  0.00  0.00    -0.080 HD
ENDROOT
BRANCH   2   9
ATOM      8  O   UNL     1      34.408 -11.527 -25.549  0.00  0.00    -0.247 OA
ATOM      9  N   UNL     1      33.098 -12.202 -23.682  0.00  0.00    -0.282 N 
ATOM     10  N   UNL     1      33.516  -9.995 -23.983  0.00  0.00    -0.305 N 
ATOM     11  C   UNL     1      32.476 -11.497 -22.644  0.00  0.00    +0.079 A 
ATOM     12  C   UNL     1      33.760 -11.282 -24.540  0.00  0.00    +0.328 A 
ATOM     13  C   UNL     1      32.737 -10.141 -22.835  0.00  0.00    +0.076 A 
ATOM     14  C   UNL     1      31.722 -11.942 -21.579  0.00  0.00    +0.019 C 
ATOM     15  C   UNL     1      32.263  -9.170 -21.981  0.00  0.00    +0.019 C 
ATOM     16  C   UNL     1      31.229 -10.975 -20.697  0.00  0.00    +0.002 C 
ATOM     17  C   UNL     1      31.497  -9.604 -20.896  0.00  0.00    +0.002 C 
ATOM     18  H   UNL     1      33.843  -9.141 -24.348  0.00  0.00    +0.170 HD
ENDBRANCH   2   9
BRANCH   1  19
ATOM     19  C   UNL     1      34.448 -17.537 -25.000  0.00  0.00    -0.077 C 
BRANCH  19  20
ATOM     20  C   UNL     1      35.397 -18.177 -23.985  0.00  0.00    -0.015 C 
BRANCH  20  21
ATOM     21  C   UNL     1      34.675 -19.149 -23.047  0.00  0.00    +0.067 C 
BRANCH  21  23
ATOM     22  O   UNL     1      35.701 -18.031 -21.171  0.00  0.00    -0.291 OA
ATOM     23  C   UNL     1      35.107 -19.021 -21.594  0.00  0.00    +0.173 C 
BRANCH  23  25
ATOM     24  F   UNL     1      33.884 -23.168 -18.061  0.00  0.00    -0.204 F 
ATOM     25  C   UNL     1      34.780 -20.128 -20.651  0.00  0.00    +0.035 C 
ATOM     26  C   UNL     1      35.813 -20.849 -20.095  0.00  0.00    +0.005 C 
ATOM     27  C   UNL     1      33.458 -20.389 -20.370  0.00  0.00    +0.005 C 
ATOM     28  C   UNL     1      35.508 -21.885 -19.213  0.00  0.00    +0.030 C 
ATOM     29  C   UNL     1      33.152 -21.425 -19.488  0.00  0.00    +0.030 C 
ATOM     30  C   UNL     1      34.177 -22.173 -18.909  0.00  0.00    +0.140 C 
ENDBRANCH  23  25
ENDBRANCH  21  23
ENDBRANCH  20  21
ENDBRANCH  19  20
ENDBRANCH   1  19
TORSDOF 6
ENDMDL
MODEL 4
REMARK VINA RESULT:     -11.2      3.671      9.340
REMARK  Name = 16363
REMARK  6 active torsions:
REMARK  status: ('A' for Active; 'I' for Inactive)
REMARK    1  A    between atoms: N_1  and  C_19
REMARK    2  A    between atoms: C_2  and  N_9
REMARK    3  A    between atoms: C_19  and  C_20
REMARK    4  A    between atoms: C_20  and  C_21
REMARK    5  A    between atoms: C_21  and  C_23
REMARK    6  A    between atoms: C_23  and  C_25
REMARK                            x       y       z     vdW  Elec       q    Type
REMARK                         _______ _______ _______ _____ _____    ______ ____
ROOT
ATOM      1  N   UNL     1      33.850 -15.941 -23.731  0.00  0.00    +0.387 N 
ATOM      2  C   UNL     1      35.673 -17.758 -22.340  0.00  0.00    +0.086 C 
ATOM      3  C   UNL     1      34.918 -16.643 -21.615  0.00  0.00    -0.000 C 
ATOM      4  C   UNL     1      34.919 -18.168 -23.604  0.00  0.00    -0.000 C 
ATOM      5  C   UNL     1      34.603 -15.480 -22.557  0.00  0.00    -0.075 C 
ATOM      6  C   UNL     1      34.603 -16.956 -24.482  0.00  0.00    -0.075 C 
ATOM      7  H   UNL     1      32.986 -16.371 -23.402  0.00  0.00    -0.080 HD
ENDROOT
BRANCH   2   9
ATOM      8  O   UNL     1      38.257 -19.005 -21.410  0.00  0.00    -0.247 OA
ATOM      9  N   UNL     1      35.882 -18.891 -21.476  0.00  0.00    -0.282 N 
ATOM     10  N   UNL     1      36.865 -20.519 -20.242  0.00  0.00    -0.305 N 
ATOM     11  C   UNL     1      34.871 -19.657 -20.881  0.00  0.00    +0.079 A 
ATOM     12  C   UNL     1      37.148 -19.411 -21.090  0.00  0.00    +0.328 A 
ATOM     13  C   UNL     1      35.482 -20.655 -20.125  0.00  0.00    +0.076 A 
ATOM     14  C   UNL     1      33.498 -19.546 -20.954  0.00  0.00    +0.019 C 
ATOM     15  C   UNL     1      34.761 -21.585 -19.408  0.00  0.00    +0.019 C 
ATOM     16  C   UNL     1      32.743 -20.479 -20.234  0.00  0.00    +0.002 C 
ATOM     17  C   UNL     1      33.368 -21.487 -19.470  0.00  0.00    +0.002 C 
ATOM     18  H   UNL     1      37.536 -21.094 -19.808  0.00  0.00    +0.170 HD
ENDBRANCH   2   9
BRANCH   1  19
ATOM     19  C   UNL     1      33.512 -14.811 -24.597  0.00  0.00    -0.077 C 
BRANCH  19  20
ATOM     20  C   UNL     1      33.599 -13.500 -23.814  0.00  0.00    -0.015 C 
BRANCH  20  21
ATOM     21  C   UNL     1      32.224 -12.997 -23.367  0.00  0.00    +0.067 C 
BRANCH  21  23
ATOM     22  O   UNL     1      32.030 -13.973 -21.168  0.00  0.00    -0.291 OA
ATOM     23  C   UNL     1      32.058 -12.954 -21.855  0.00  0.00    +0.173 C 
BRANCH  23  25
ATOM     24  F   UNL     1      31.638  -7.982 -19.349  0.00  0.00    -0.204 F 
ATOM     25  C   UNL     1      31.945 -11.626 -21.186  0.00  0.00    +0.035 C 
ATOM     26  C   UNL     1      31.694 -11.588 -19.833  0.00  0.00    +0.005 C 
ATOM     27  C   UNL     1      32.098 -10.488 -21.946  0.00  0.00    +0.005 C 
ATOM     28  C   UNL     1      31.589 -10.347 -19.206  0.00  0.00    +0.030 C 
ATOM     29  C   UNL     1      31.993  -9.247 -21.319  0.00  0.00    +0.030 C 
ATOM     30  C   UNL     1      31.739  -9.175 -19.950  0.00  0.00    +0.140 C 
ENDBRANCH  23  25
ENDBRANCH  21  23
ENDBRANCH  20  21
ENDBRANCH  19  20
ENDBRANCH   1  19
TORSDOF 6
ENDMDL
MODEL 5
REMARK VINA RESULT:     -11.1      3.355      5.738
REMARK  Name = 16363
REMARK  6 active torsions:
REMARK  status: ('A' for Active; 'I' for Inactive)
REMARK    1  A    between atoms: N_1  and  C_19
REMARK    2  A    between atoms: C_2  and  N_9
REMARK    3  A    between atoms: C_19  and  C_20
REMARK    4  A    between atoms: C_20  and  C_21
REMARK    5  A    between atoms: C_21  and  C_23
REMARK    6  A    between atoms: C_23  and  C_25
REMARK                            x       y       z     vdW  Elec       q    Type
REMARK                         _______ _______ _______ _____ _____    ______ ____
ROOT
ATOM      1  N   UNL     1      35.851 -19.737 -20.289  0.00  0.00    +0.387 N 
ATOM      2  C   UNL     1      34.961 -18.206 -22.618  0.00  0.00    +0.086 C 
ATOM      3  C   UNL     1      33.979 -18.879 -21.659  0.00  0.00    -0.000 C 
ATOM      4  C   UNL     1      36.278 -17.910 -21.901  0.00  0.00    -0.000 C 
ATOM      5  C   UNL     1      34.609 -20.100 -20.985  0.00  0.00    -0.075 C 
ATOM      6  C   UNL     1      36.833 -19.162 -21.219  0.00  0.00    -0.075 C 
ATOM      7  H   UNL     1      35.626 -19.027 -19.592  0.00  0.00    -0.080 HD
ENDROOT
BRANCH   2   9
ATOM      8  O   UNL     1      34.776 -17.337 -25.500  0.00  0.00    -0.247 OA
ATOM      9  N   UNL     1      34.399 -17.002 -23.176  0.00  0.00    -0.282 N 
ATOM     10  N   UNL     1      33.718 -15.407 -24.635  0.00  0.00    -0.305 N 
ATOM     11  C   UNL     1      33.806 -15.966 -22.443  0.00  0.00    +0.079 A 
ATOM     12  C   UNL     1      34.357 -16.677 -24.560  0.00  0.00    +0.328 A 
ATOM     13  C   UNL     1      33.390 -14.990 -23.345  0.00  0.00    +0.076 A 
ATOM     14  C   UNL     1      33.611 -15.822 -21.085  0.00  0.00    +0.019 C 
ATOM     15  C   UNL     1      32.765 -13.830 -22.944  0.00  0.00    +0.019 C 
ATOM     16  C   UNL     1      32.977 -14.653 -20.652  0.00  0.00    +0.002 C 
ATOM     17  C   UNL     1      32.559 -13.668 -21.571  0.00  0.00    +0.002 C 
ATOM     18  H   UNL     1      33.537 -14.905 -25.463  0.00  0.00    +0.170 HD
ENDBRANCH   2   9
BRANCH   1  19
ATOM     19  C   UNL     1      36.414 -20.902 -19.607  0.00  0.00    -0.077 C 
BRANCH  19  20
ATOM     20  C   UNL     1      35.399 -22.047 -19.591  0.00  0.00    -0.015 C 
BRANCH  20  21
ATOM     21  C   UNL     1      34.911 -22.372 -18.177  0.00  0.00    +0.067 C 
BRANCH  21  23
ATOM     22  O   UNL     1      32.655 -22.325 -19.032  0.00  0.00    -0.291 OA
ATOM     23  C   UNL     1      33.404 -22.560 -18.086  0.00  0.00    +0.173 C 
BRANCH  23  25
ATOM     24  F   UNL     1      31.230 -24.447 -13.302  0.00  0.00    -0.204 F 
ATOM     25  C   UNL     1      32.823 -23.064 -16.809  0.00  0.00    +0.035 C 
ATOM     26  C   UNL     1      33.676 -23.528 -15.833  0.00  0.00    +0.005 C 
ATOM     27  C   UNL     1      31.455 -23.046 -16.652  0.00  0.00    +0.005 C 
ATOM     28  C   UNL     1      33.134 -24.000 -14.638  0.00  0.00    +0.030 C 
ATOM     29  C   UNL     1      30.912 -23.518 -15.457  0.00  0.00    +0.030 C 
ATOM     30  C   UNL     1      31.751 -23.994 -14.450  0.00  0.00    +0.140 C 
ENDBRANCH  23  25
ENDBRANCH  21  23
ENDBRANCH  20  21
ENDBRANCH  19  20
ENDBRANCH   1  19
TORSDOF 6
ENDMDL
MODEL 6
REMARK VINA RESULT:     -10.9      4.371     10.164
REMARK  Name = 16363
REMARK  6 active torsions:
REMARK  status: ('A' for Active; 'I' for Inactive)
REMARK    1  A    between atoms: N_1  and  C_19
REMARK    2  A    between atoms: C_2  and  N_9
REMARK    3  A    between atoms: C_19  and  C_20
REMARK    4  A    between atoms: C_20  and  C_21
REMARK    5  A    between atoms: C_21  and  C_23
REMARK    6  A    between atoms: C_23  and  C_25
REMARK                            x       y       z     vdW  Elec       q    Type
REMARK                         _______ _______ _______ _____ _____    ______ ____
ROOT
ATOM      1  N   UNL     1      31.456 -12.255 -21.899  0.00  0.00    +0.387 N 
ATOM      2  C   UNL     1      33.552 -14.143 -22.676  0.00  0.00    +0.086 C 
ATOM      3  C   UNL     1      32.523 -14.465 -21.592  0.00  0.00    -0.000 C 
ATOM      4  C   UNL     1      32.988 -13.104 -23.646  0.00  0.00    -0.000 C 
ATOM      5  C   UNL     1      32.013 -13.192 -20.914  0.00  0.00    -0.075 C 
ATOM      6  C   UNL     1      32.462 -11.876 -22.901  0.00  0.00    -0.075 C 
ATOM      7  H   UNL     1      30.692 -12.725 -22.384  0.00  0.00    -0.080 HD
ENDROOT
BRANCH   2   9
ATOM      8  O   UNL     1      33.342 -14.799 -25.612  0.00  0.00    -0.247 OA
ATOM      9  N   UNL     1      33.957 -15.334 -23.379  0.00  0.00    -0.282 N 
ATOM     10  N   UNL     1      34.348 -16.854 -25.013  0.00  0.00    -0.305 N 
ATOM     11  C   UNL     1      34.552 -16.459 -22.793  0.00  0.00    +0.079 A 
ATOM     12  C   UNL     1      33.817 -15.554 -24.776  0.00  0.00    +0.328 A 
ATOM     13  C   UNL     1      34.789 -17.389 -23.803  0.00  0.00    +0.076 A 
ATOM     14  C   UNL     1      34.890 -16.718 -21.481  0.00  0.00    +0.019 C 
ATOM     15  C   UNL     1      35.370 -18.614 -23.559  0.00  0.00    +0.019 C 
ATOM     16  C   UNL     1      35.481 -17.956 -21.207  0.00  0.00    +0.002 C 
ATOM     17  C   UNL     1      35.719 -18.893 -22.235  0.00  0.00    +0.002 C 
ATOM     18  H   UNL     1      34.396 -17.302 -25.889  0.00  0.00    +0.170 HD
ENDBRANCH   2   9
BRANCH   1  19
ATOM     19  C   UNL     1      30.926 -11.066 -21.231  0.00  0.00    -0.077 C 
BRANCH  19  20
ATOM     20  C   UNL     1      31.845  -9.868 -21.479  0.00  0.00    -0.015 C 
BRANCH  20  21
ATOM     21  C   UNL     1      32.185  -9.120 -20.187  0.00  0.00    +0.067 C 
BRANCH  21  23
ATOM     22  O   UNL     1      32.996  -6.953 -19.499  0.00  0.00    -0.291 OA
ATOM     23  C   UNL     1      32.707  -7.710 -20.424  0.00  0.00    +0.173 C 
BRANCH  23  25
ATOM     24  F   UNL     1      33.395  -5.958 -25.680  0.00  0.00    -0.204 F 
ATOM     25  C   UNL     1      32.891  -7.243 -21.828  0.00  0.00    +0.035 C 
ATOM     26  C   UNL     1      31.936  -6.419 -22.379  0.00  0.00    +0.005 C 
ATOM     27  C   UNL     1      34.009  -7.652 -22.520  0.00  0.00    +0.005 C 
ATOM     28  C   UNL     1      32.107  -5.981 -23.692  0.00  0.00    +0.030 C 
ATOM     29  C   UNL     1      34.180  -7.214 -23.833  0.00  0.00    +0.030 C 
ATOM     30  C   UNL     1      33.230  -6.379 -24.419  0.00  0.00    +0.140 C 
ENDBRANCH  23  25
ENDBRANCH  21  23
ENDBRANCH  20  21
ENDBRANCH  19  20
ENDBRANCH   1  19
TORSDOF 6
ENDMDL
MODEL 7
REMARK VINA RESULT:     -10.9      3.683      6.925
REMARK  Name = 16363
REMARK  6 active torsions:
REMARK  status: ('A' for Active; 'I' for Inactive)
REMARK    1  A    between atoms: N_1  and  C_19
REMARK    2  A    between atoms: C_2  and  N_9
REMARK    3  A    between atoms: C_19  and  C_20
REMARK    4  A    between atoms: C_20  and  C_21
REMARK    5  A    between atoms: C_21  and  C_23
REMARK    6  A    between atoms: C_23  and  C_25
REMARK                            x       y       z     vdW  Elec       q    Type
REMARK                         _______ _______ _______ _____ _____    ______ ____
ROOT
ATOM      1  N   UNL     1      34.357 -21.737 -19.942  0.00  0.00    +0.387 N 
ATOM      2  C   UNL     1      34.506 -19.004 -20.973  0.00  0.00    +0.086 C 
ATOM      3  C   UNL     1      35.718 -19.935 -20.949  0.00  0.00    -0.000 C 
ATOM      4  C   UNL     1      33.214 -19.821 -21.010  0.00  0.00    -0.000 C 
ATOM      5  C   UNL     1      35.603 -20.967 -19.826  0.00  0.00    -0.075 C 
ATOM      6  C   UNL     1      33.181 -20.858 -19.885  0.00  0.00    -0.075 C 
ATOM      7  H   UNL     1      34.357 -22.203 -20.849  0.00  0.00    -0.080 HD
ENDROOT
BRANCH   2   9
ATOM      8  O   UNL     1      34.995 -19.591 -23.891  0.00  0.00    -0.247 OA
ATOM      9  N   UNL     1      34.570 -18.096 -22.091  0.00  0.00    -0.282 N 
ATOM     10  N   UNL     1      34.785 -17.254 -24.184  0.00  0.00    -0.305 N 
ATOM     11  C   UNL     1      34.409 -16.706 -22.019  0.00  0.00    +0.079 A 
ATOM     12  C   UNL     1      34.808 -18.469 -23.442  0.00  0.00    +0.328 A 
ATOM     13  C   UNL     1      34.542 -16.195 -23.309  0.00  0.00    +0.076 A 
ATOM     14  C   UNL     1      34.162 -15.884 -20.940  0.00  0.00    +0.019 C 
ATOM     15  C   UNL     1      34.436 -14.850 -23.585  0.00  0.00    +0.019 C 
ATOM     16  C   UNL     1      34.050 -14.513 -21.195  0.00  0.00    +0.002 C 
ATOM     17  C   UNL     1      34.186 -14.002 -22.503  0.00  0.00    +0.002 C 
ATOM     18  H   UNL     1      34.918 -17.174 -25.156  0.00  0.00    +0.170 HD
ENDBRANCH   2   9
BRANCH   1  19
ATOM     19  C   UNL     1      34.285 -22.754 -18.892  0.00  0.00    -0.077 C 
BRANCH  19  20
ATOM     20  C   UNL     1      33.086 -22.488 -17.979  0.00  0.00    -0.015 C 
BRANCH  20  21
ATOM     21  C   UNL     1      32.858 -23.621 -16.975  0.00  0.00    +0.067 C 
BRANCH  21  23
ATOM     22  O   UNL     1      32.836 -22.923 -14.665  0.00  0.00    -0.291 OA
ATOM     23  C   UNL     1      33.485 -23.358 -15.614  0.00  0.00    +0.173 C 
BRANCH  23  25
ATOM     24  F   UNL     1      38.908 -24.480 -14.904  0.00  0.00    -0.204 F 
ATOM     25  C   UNL     1      34.933 -23.658 -15.424  0.00  0.00    +0.035 C 
ATOM     26  C   UNL     1      35.846 -22.642 -15.599  0.00  0.00    +0.005 C 
ATOM     27  C   UNL     1      35.304 -24.939 -15.082  0.00  0.00    +0.005 C 
ATOM     28  C   UNL     1      37.201 -22.922 -15.422  0.00  0.00    +0.030 C 
ATOM     29  C   UNL     1      36.658 -25.219 -14.904  0.00  0.00    +0.030 C 
ATOM     30  C   UNL     1      37.607 -24.212 -15.074  0.00  0.00    +0.140 C 
ENDBRANCH  23  25
ENDBRANCH  21  23
ENDBRANCH  20  21
ENDBRANCH  19  20
ENDBRANCH   1  19
TORSDOF 6
ENDMDL
MODEL 8
REMARK VINA RESULT:     -10.9      3.438      6.343
REMARK  Name = 16363
REMARK  6 active torsions:
REMARK  status: ('A' for Active; 'I' for Inactive)
REMARK    1  A    between atoms: N_1  and  C_19
REMARK    2  A    between atoms: C_2  and  N_9
REMARK    3  A    between atoms: C_19  and  C_20
REMARK    4  A    between atoms: C_20  and  C_21
REMARK    5  A    between atoms: C_21  and  C_23
REMARK    6  A    between atoms: C_23  and  C_25
REMARK                            x       y       z     vdW  Elec       q    Type
REMARK                         _______ _______ _______ _____ _____    ______ ____
ROOT
ATOM      1  N   UNL     1      35.423 -20.776 -20.323  0.00  0.00    +0.387 N 
ATOM      2  C   UNL     1      34.712 -18.112 -21.301  0.00  0.00    +0.086 C 
ATOM      3  C   UNL     1      36.150 -18.630 -21.314  0.00  0.00    -0.000 C 
ATOM      4  C   UNL     1      33.730 -19.283 -21.334  0.00  0.00    -0.000 C 
ATOM      5  C   UNL     1      36.378 -19.665 -20.210  0.00  0.00    -0.075 C 
ATOM      6  C   UNL     1      34.037 -20.298 -20.231  0.00  0.00    -0.075 C 
ATOM      7  H   UNL     1      35.547 -21.206 -21.239  0.00  0.00    -0.080 HD
ENDROOT
BRANCH   2   9
ATOM      8  O   UNL     1      35.406 -18.428 -24.219  0.00  0.00    -0.247 OA
ATOM      9  N   UNL     1      34.474 -17.212 -22.401  0.00  0.00    -0.282 N 
ATOM     10  N   UNL     1      34.411 -16.298 -24.474  0.00  0.00    -0.305 N 
ATOM     11  C   UNL     1      33.845 -15.963 -22.307  0.00  0.00    +0.079 A 
ATOM     12  C   UNL     1      34.840 -17.449 -23.754  0.00  0.00    +0.328 A 
ATOM     13  C   UNL     1      33.809 -15.408 -23.584  0.00  0.00    +0.076 A 
ATOM     14  C   UNL     1      33.318 -15.301 -21.218  0.00  0.00    +0.019 C 
ATOM     15  C   UNL     1      33.252 -14.174 -23.838  0.00  0.00    +0.019 C 
ATOM     16  C   UNL     1      32.746 -14.046 -21.450  0.00  0.00    +0.002 C 
ATOM     17  C   UNL     1      32.713 -13.488 -22.746  0.00  0.00    +0.002 C 
ATOM     18  H   UNL     1      34.520 -16.155 -25.442  0.00  0.00    +0.170 HD
ENDBRANCH   2   9
BRANCH   1  19
ATOM     19  C   UNL     1      35.686 -21.782 -19.294  0.00  0.00    -0.077 C 
BRANCH  19  20
ATOM     20  C   UNL     1      34.537 -22.791 -19.236  0.00  0.00    -0.015 C 
BRANCH  20  21
ATOM     21  C   UNL     1      34.113 -23.107 -17.799  0.00  0.00    +0.067 C 
BRANCH  21  23
ATOM     22  O   UNL     1      31.998 -22.044 -18.270  0.00  0.00    -0.291 OA
ATOM     23  C   UNL     1      32.674 -22.715 -17.493  0.00  0.00    +0.173 C 
BRANCH  23  25
ATOM     24  F   UNL     1      30.384 -24.461 -12.710  0.00  0.00    -0.204 F 
ATOM     25  C   UNL     1      32.063 -23.181 -16.216  0.00  0.00    +0.035 C 
ATOM     26  C   UNL     1      30.692 -23.153 -16.091  0.00  0.00    +0.005 C 
ATOM     27  C   UNL     1      32.892 -23.622 -15.208  0.00  0.00    +0.005 C 
ATOM     28  C   UNL     1      30.120 -23.589 -14.897  0.00  0.00    +0.030 C 
ATOM     29  C   UNL     1      32.319 -24.058 -14.014  0.00  0.00    +0.030 C 
ATOM     30  C   UNL     1      30.934 -24.042 -13.857  0.00  0.00    +0.140 C 
ENDBRANCH  23  25
ENDBRANCH  21  23
ENDBRANCH  20  21
ENDBRANCH  19  20
ENDBRANCH   1  19
TORSDOF 6
ENDMDL
MODEL 9
REMARK VINA RESULT:     -10.8      2.028      3.225
REMARK  Name = 16363
REMARK  6 active torsions:
REMARK  status: ('A' for Active; 'I' for Inactive)
REMARK    1  A    between atoms: N_1  and  C_19
REMARK    2  A    between atoms: C_2  and  N_9
REMARK    3  A    between atoms: C_19  and  C_20
REMARK    4  A    between atoms: C_20  and  C_21
REMARK    5  A    between atoms: C_21  and  C_23
REMARK    6  A    between atoms: C_23  and  C_25
REMARK                            x       y       z     vdW  Elec       q    Type
REMARK                         _______ _______ _______ _____ _____    ______ ____
ROOT
ATOM      1  N   UNL     1      33.267 -13.037 -22.840  0.00  0.00    +0.387 N 
ATOM      2  C   UNL     1      32.028 -10.395 -22.626  0.00  0.00    +0.086 C 
ATOM      3  C   UNL     1      31.781 -11.499 -21.598  0.00  0.00    -0.000 C 
ATOM      4  C   UNL     1      33.373 -10.612 -23.319  0.00  0.00    -0.000 C 
ATOM      5  C   UNL     1      31.942 -12.886 -22.222  0.00  0.00    -0.075 C 
ATOM      6  C   UNL     1      33.484 -12.028 -23.887  0.00  0.00    -0.075 C 
ATOM      7  H   UNL     1      33.970 -12.893 -22.116  0.00  0.00    -0.080 HD
ENDROOT
BRANCH   2   9
ATOM      8  O   UNL     1      32.487  -9.611 -19.750  0.00  0.00    -0.247 OA
ATOM      9  N   UNL     1      31.971  -9.092 -22.013  0.00  0.00    -0.282 N 
ATOM     10  N   UNL     1      32.040  -7.411 -20.495  0.00  0.00    -0.305 N 
ATOM     11  C   UNL     1      31.677  -7.894 -22.677  0.00  0.00    +0.079 A 
ATOM     12  C   UNL     1      32.204  -8.818 -20.638  0.00  0.00    +0.328 A 
ATOM     13  C   UNL     1      31.721  -6.865 -21.738  0.00  0.00    +0.076 A 
ATOM     14  C   UNL     1      31.384  -7.649 -24.002  0.00  0.00    +0.019 C 
ATOM     15  C   UNL     1      31.477  -5.551 -22.070  0.00  0.00    +0.019 C 
ATOM     16  C   UNL     1      31.132  -6.321 -24.365  0.00  0.00    +0.002 C 
ATOM     17  C   UNL     1      31.178  -5.284 -23.409  0.00  0.00    +0.002 C 
ATOM     18  H   UNL     1      32.136  -6.905 -19.655  0.00  0.00    +0.170 HD
ENDBRANCH   2   9
BRANCH   1  19
ATOM     19  C   UNL     1      33.426 -14.384 -23.387  0.00  0.00    -0.077 C 
BRANCH  19  20
ATOM     20  C   UNL     1      34.548 -15.123 -22.655  0.00  0.00    -0.015 C 
BRANCH  20  21
ATOM     21  C   UNL     1      34.038 -16.357 -21.904  0.00  0.00    +0.067 C 
BRANCH  21  23
ATOM     22  O   UNL     1      35.356 -17.737 -23.382  0.00  0.00    -0.291 OA
ATOM     23  C   UNL     1      34.713 -17.650 -22.338  0.00  0.00    +0.173 C 
BRANCH  23  25
ATOM     24  F   UNL     1      34.306 -22.121 -19.018  0.00  0.00    -0.204 F 
ATOM     25  C   UNL     1      34.604 -18.844 -21.452  0.00  0.00    +0.035 C 
ATOM     26  C   UNL     1      35.760 -19.458 -21.026  0.00  0.00    +0.005 C 
ATOM     27  C   UNL     1      33.351 -19.288 -21.092  0.00  0.00    +0.005 C 
ATOM     28  C   UNL     1      35.659 -20.574 -20.197  0.00  0.00    +0.030 C 
ATOM     29  C   UNL     1      33.250 -20.405 -20.263  0.00  0.00    +0.030 C 
ATOM     30  C   UNL     1      34.403 -21.048 -19.815  0.00  0.00    +0.140 C 
ENDBRANCH  23  25
ENDBRANCH  21  23
ENDBRANCH  20  21
ENDBRANCH  19  20
ENDBRANCH   1  19
TORSDOF 6
ENDMDL
