MODEL 1
REMARK VINA RESULT:      -7.5      0.000      0.000
REMARK  Name = 119590
REMARK  5 active torsions:
REMARK  status: ('A' for Active; 'I' for Inactive)
REMARK    1  A    between atoms: C_4  and  C_11
REMARK    2  A    between atoms: C_4  and  O_17
REMARK    3  A    between atoms: O_17  and  C_18
REMARK    4  A    between atoms: C_18  and  C_19
REMARK    5  A    between atoms: C_19  and  N_20
REMARK                            x       y       z     vdW  Elec       q    Type
REMARK                         _______ _______ _______ _____ _____    ______ ____
ROOT
ATOM      1  C   UNL     1      36.179 -24.862 -14.484  0.00  0.00    +0.026 C 
ATOM      2  C   UNL     1      37.651 -24.545 -14.020  0.00  0.00    +0.002 C 
ATOM      3  C   UNL     1      37.168 -23.339 -13.180  0.00  0.00    +0.003 C 
ATOM      4  C   UNL     1      35.679 -23.494 -15.119  0.00  0.00    +0.111 C 
ATOM      5  C   UNL     1      36.408 -22.456 -14.205  0.00  0.00    +0.031 C 
ATOM      6  C   UNL     1      35.460 -25.043 -13.114  0.00  0.00    +0.003 C 
ATOM      7  C   UNL     1      36.108 -23.956 -12.239  0.00  0.00    +0.000 C 
ATOM      8  C   UNL     1      36.046 -26.090 -15.375  0.00  0.00    +0.003 C 
ATOM      9  C   UNL     1      38.337 -25.651 -13.183  0.00  0.00    +0.000 C 
ATOM     10  C   UNL     1      38.674 -24.183 -15.115  0.00  0.00    +0.000 C 
ENDROOT
BRANCH   4  11
ATOM     11  C   UNL     1      34.164 -23.363 -15.273  0.00  0.00    +0.002 C 
ATOM     12  C   UNL     1      33.364 -23.151 -14.150  0.00  0.00    -0.002 C 
ATOM     13  C   UNL     1      33.581 -23.455 -16.537  0.00  0.00    -0.002 C 
ATOM     14  C   UNL     1      31.981 -23.033 -14.291  0.00  0.00    -0.000 C 
ATOM     15  C   UNL     1      32.199 -23.336 -16.678  0.00  0.00    -0.000 C 
ATOM     16  C   UNL     1      31.398 -23.124 -15.555  0.00  0.00    -0.000 C 
ENDBRANCH   4  11
BRANCH   4  17
ATOM     17  O   UNL     1      36.230 -23.348 -16.437  0.00  0.00    -0.357 OA
BRANCH  17  18
ATOM     18  C   UNL     1      36.498 -21.986 -16.743  0.00  0.00    +0.120 C 
BRANCH  18  19
ATOM     19  C   UNL     1      36.893 -21.883 -18.207  0.00  0.00    -0.045 C 
BRANCH  19  20
ATOM     20  N   UNL     1      35.905 -21.121 -18.954  0.00  0.00    +0.386 N 
ATOM     21  C   UNL     1      34.837 -21.996 -19.445  0.00  0.00    -0.101 C 
ATOM     22  C   UNL     1      36.532 -20.413 -20.073  0.00  0.00    -0.101 C 
ATOM     23  H   UNL     1      35.495 -20.432 -18.323  0.00  0.00    -0.080 HD
ENDBRANCH  19  20
ENDBRANCH  18  19
ENDBRANCH  17  18
ENDBRANCH   4  17
TORSDOF 5
ENDMDL
MODEL 2
REMARK VINA RESULT:      -6.9      1.957      4.381
REMARK  Name = 119590
REMARK  5 active torsions:
REMARK  status: ('A' for Active; 'I' for Inactive)
REMARK    1  A    between atoms: C_4  and  C_11
REMARK    2  A    between atoms: C_4  and  O_17
REMARK    3  A    between atoms: O_17  and  C_18
REMARK    4  A    between atoms: C_18  and  C_19
REMARK    5  A    between atoms: C_19  and  N_20
REMARK                            x       y       z     vdW  Elec       q    Type
REMARK                         _______ _______ _______ _____ _____    ______ ____
ROOT
ATOM      1  C   UNL     1      36.908 -23.781 -14.108  0.00  0.00    +0.026 C 
ATOM      2  C   UNL     1      36.766 -24.980 -13.096  0.00  0.00    +0.002 C 
ATOM      3  C   UNL     1      36.536 -25.980 -14.253  0.00  0.00    +0.003 C 
ATOM      4  C   UNL     1      35.569 -23.845 -14.961  0.00  0.00    +0.111 C 
ATOM      5  C   UNL     1      35.325 -25.387 -15.020  0.00  0.00    +0.031 C 
ATOM      6  C   UNL     1      38.074 -24.282 -15.012  0.00  0.00    +0.003 C 
ATOM      7  C   UNL     1      37.780 -25.785 -15.150  0.00  0.00    +0.000 C 
ATOM      8  C   UNL     1      37.213 -22.438 -13.460  0.00  0.00    +0.003 C 
ATOM      9  C   UNL     1      38.023 -25.287 -12.247  0.00  0.00    +0.000 C 
ATOM     10  C   UNL     1      35.607 -24.913 -12.081  0.00  0.00    +0.000 C 
ENDROOT
BRANCH   4  11
ATOM     11  C   UNL     1      35.604 -23.081 -16.286  0.00  0.00    +0.002 C 
ATOM     12  C   UNL     1      34.509 -23.128 -17.148  0.00  0.00    -0.002 C 
ATOM     13  C   UNL     1      36.733 -22.337 -16.632  0.00  0.00    -0.002 C 
ATOM     14  C   UNL     1      34.542 -22.432 -18.356  0.00  0.00    -0.000 C 
ATOM     15  C   UNL     1      36.765 -21.641 -17.840  0.00  0.00    -0.000 C 
ATOM     16  C   UNL     1      35.669 -21.688 -18.702  0.00  0.00    -0.000 C 
ENDBRANCH   4  11
BRANCH   4  17
ATOM     17  O   UNL     1      34.490 -23.279 -14.202  0.00  0.00    -0.357 OA
BRANCH  17  18
ATOM     18  C   UNL     1      33.311 -24.067 -14.305  0.00  0.00    +0.120 C 
BRANCH  18  19
ATOM     19  C   UNL     1      32.120 -23.221 -13.884  0.00  0.00    -0.045 C 
BRANCH  19  20
ATOM     20  N   UNL     1      30.909 -23.671 -14.552  0.00  0.00    +0.386 N 
ATOM     21  C   UNL     1      30.703 -25.107 -14.341  0.00  0.00    -0.101 C 
ATOM     22  C   UNL     1      30.966 -23.375 -15.986  0.00  0.00    -0.101 C 
ATOM     23  H   UNL     1      30.120 -23.167 -14.148  0.00  0.00    -0.080 HD
ENDBRANCH  19  20
ENDBRANCH  18  19
ENDBRANCH  17  18
ENDBRANCH   4  17
TORSDOF 5
ENDMDL
MODEL 3
REMARK VINA RESULT:      -6.8     14.224     17.301
REMARK  Name = 119590
REMARK  5 active torsions:
REMARK  status: ('A' for Active; 'I' for Inactive)
REMARK    1  A    between atoms: C_4  and  C_11
REMARK    2  A    between atoms: C_4  and  O_17
REMARK    3  A    between atoms: O_17  and  C_18
REMARK    4  A    between atoms: C_18  and  C_19
REMARK    5  A    between atoms: C_19  and  N_20
REMARK                            x       y       z     vdW  Elec       q    Type
REMARK                         _______ _______ _______ _____ _____    ______ ____
ROOT
ATOM      1  C   UNL     1      32.169  -6.842 -22.426  0.00  0.00    +0.026 C 
ATOM      2  C   UNL     1      32.280  -6.188 -23.855  0.00  0.00    +0.002 C 
ATOM      3  C   UNL     1      31.164  -7.107 -24.404  0.00  0.00    +0.003 C 
ATOM      4  C   UNL     1      32.366  -8.394 -22.702  0.00  0.00    +0.111 C 
ATOM      5  C   UNL     1      31.680  -8.539 -24.099  0.00  0.00    +0.031 C 
ATOM      6  C   UNL     1      30.664  -6.603 -22.098  0.00  0.00    +0.003 C 
ATOM      7  C   UNL     1      29.976  -6.841 -23.452  0.00  0.00    +0.000 C 
ATOM      8  C   UNL     1      33.093  -6.236 -21.378  0.00  0.00    +0.003 C 
ATOM      9  C   UNL     1      31.937  -4.681 -23.926  0.00  0.00    +0.000 C 
ATOM     10  C   UNL     1      33.628  -6.324 -24.590  0.00  0.00    +0.000 C 
ENDROOT
BRANCH   4  11
ATOM     11  C   UNL     1      31.895  -9.321 -21.580  0.00  0.00    +0.002 C 
ATOM     12  C   UNL     1      32.265  -9.062 -20.260  0.00  0.00    -0.002 C 
ATOM     13  C   UNL     1      31.095 -10.424 -21.877  0.00  0.00    -0.002 C 
ATOM     14  C   UNL     1      31.837  -9.909 -19.238  0.00  0.00    -0.000 C 
ATOM     15  C   UNL     1      30.665 -11.269 -20.854  0.00  0.00    -0.000 C 
ATOM     16  C   UNL     1      31.036 -11.011 -19.534  0.00  0.00    -0.000 C 
ENDBRANCH   4  11
BRANCH   4  17
ATOM     17  O   UNL     1      33.762  -8.673 -22.892  0.00  0.00    -0.357 OA
BRANCH  17  18
ATOM     18  C   UNL     1      33.959  -9.877 -23.622  0.00  0.00    +0.120 C 
BRANCH  18  19
ATOM     19  C   UNL     1      35.160  -9.703 -24.536  0.00  0.00    -0.045 C 
BRANCH  19  20
ATOM     20  N   UNL     1      35.302 -10.848 -25.422  0.00  0.00    +0.386 N 
ATOM     21  C   UNL     1      35.786 -10.428 -26.740  0.00  0.00    -0.101 C 
ATOM     22  C   UNL     1      34.030 -11.561 -25.556  0.00  0.00    -0.101 C 
ATOM     23  H   UNL     1      35.988 -11.482 -25.011  0.00  0.00    -0.080 HD
ENDBRANCH  19  20
ENDBRANCH  18  19
ENDBRANCH  17  18
ENDBRANCH   4  17
TORSDOF 5
ENDMDL
MODEL 4
REMARK VINA RESULT:      -5.8     14.413     17.934
REMARK  Name = 119590
REMARK  5 active torsions:
REMARK  status: ('A' for Active; 'I' for Inactive)
REMARK    1  A    between atoms: C_4  and  C_11
REMARK    2  A    between atoms: C_4  and  O_17
REMARK    3  A    between atoms: O_17  and  C_18
REMARK    4  A    between atoms: C_18  and  C_19
REMARK    5  A    between atoms: C_19  and  N_20
REMARK                            x       y       z     vdW  Elec       q    Type
REMARK                         _______ _______ _______ _____ _____    ______ ____
ROOT
ATOM      1  C   UNL     1      31.765  -7.790 -22.582  0.00  0.00    +0.026 C 
ATOM      2  C   UNL     1      32.148  -8.663 -21.328  0.00  0.00    +0.002 C 
ATOM      3  C   UNL     1      33.354  -7.748 -21.010  0.00  0.00    +0.003 C 
ATOM      4  C   UNL     1      33.099  -7.764 -23.446  0.00  0.00    +0.111 C 
ATOM      5  C   UNL     1      34.184  -7.763 -22.322  0.00  0.00    +0.031 C 
ATOM      6  C   UNL     1      31.590  -6.384 -21.933  0.00  0.00    +0.003 C 
ATOM      7  C   UNL     1      32.720  -6.344 -20.891  0.00  0.00    +0.000 C 
ATOM      8  C   UNL     1      30.513  -8.250 -23.316  0.00  0.00    +0.003 C 
ATOM      9  C   UNL     1      31.088  -8.709 -20.201  0.00  0.00    +0.000 C 
ATOM     10  C   UNL     1      32.523 -10.136 -21.581  0.00  0.00    +0.000 C 
ENDROOT
BRANCH   4  11
ATOM     11  C   UNL     1      33.169  -6.659 -24.501  0.00  0.00    +0.002 C 
ATOM     12  C   UNL     1      34.341  -6.467 -25.233  0.00  0.00    -0.002 C 
ATOM     13  C   UNL     1      32.061  -5.843 -24.732  0.00  0.00    -0.002 C 
ATOM     14  C   UNL     1      34.406  -5.458 -26.194  0.00  0.00    -0.000 C 
ATOM     15  C   UNL     1      32.126  -4.836 -25.694  0.00  0.00    -0.000 C 
ATOM     16  C   UNL     1      33.298  -4.643 -26.426  0.00  0.00    -0.000 C 
ENDBRANCH   4  11
BRANCH   4  17
ATOM     17  O   UNL     1      33.234  -9.005 -24.156  0.00  0.00    -0.357 OA
BRANCH  17  18
ATOM     18  C   UNL     1      34.553  -9.522 -24.054  0.00  0.00    +0.120 C 
BRANCH  18  19
ATOM     19  C   UNL     1      34.756 -10.563 -25.144  0.00  0.00    -0.045 C 
BRANCH  19  20
ATOM     20  N   UNL     1      33.687 -11.549 -25.117  0.00  0.00    +0.386 N 
ATOM     21  C   UNL     1      33.874 -12.486 -24.006  0.00  0.00    -0.101 C 
ATOM     22  C   UNL     1      33.622 -12.278 -26.386  0.00  0.00    -0.101 C 
ATOM     23  H   UNL     1      32.805 -11.056 -24.981  0.00  0.00    -0.080 HD
ENDBRANCH  19  20
ENDBRANCH  18  19
ENDBRANCH  17  18
ENDBRANCH   4  17
TORSDOF 5
ENDMDL
MODEL 5
REMARK VINA RESULT:      -5.6     13.341     17.420
REMARK  Name = 119590
REMARK  5 active torsions:
REMARK  status: ('A' for Active; 'I' for Inactive)
REMARK    1  A    between atoms: C_4  and  C_11
REMARK    2  A    between atoms: C_4  and  O_17
REMARK    3  A    between atoms: O_17  and  C_18
REMARK    4  A    between atoms: C_18  and  C_19
REMARK    5  A    between atoms: C_19  and  N_20
REMARK                            x       y       z     vdW  Elec       q    Type
REMARK                         _______ _______ _______ _____ _____    ______ ____
ROOT
ATOM      1  C   UNL     1      31.610  -7.527 -23.666  0.00  0.00    +0.026 C 
ATOM      2  C   UNL     1      31.623  -6.109 -22.978  0.00  0.00    +0.002 C 
ATOM      3  C   UNL     1      33.166  -6.041 -23.059  0.00  0.00    +0.003 C 
ATOM      4  C   UNL     1      32.576  -8.399 -22.754  0.00  0.00    +0.111 C 
ATOM      5  C   UNL     1      33.631  -7.328 -22.326  0.00  0.00    +0.031 C 
ATOM      6  C   UNL     1      32.356  -7.225 -24.999  0.00  0.00    +0.003 C 
ATOM      7  C   UNL     1      33.458  -6.246 -24.563  0.00  0.00    +0.000 C 
ATOM      8  C   UNL     1      30.221  -8.106 -23.896  0.00  0.00    +0.003 C 
ATOM      9  C   UNL     1      30.908  -4.983 -23.763  0.00  0.00    +0.000 C 
ATOM     10  C   UNL     1      31.061  -6.014 -21.546  0.00  0.00    +0.000 C 
ENDROOT
BRANCH   4  11
ATOM     11  C   UNL     1      33.092  -9.687 -23.397  0.00  0.00    +0.002 C 
ATOM     12  C   UNL     1      34.235  -9.658 -24.195  0.00  0.00    -0.002 C 
ATOM     13  C   UNL     1      32.418 -10.890 -23.186  0.00  0.00    -0.002 C 
ATOM     14  C   UNL     1      34.705 -10.833 -24.783  0.00  0.00    -0.000 C 
ATOM     15  C   UNL     1      32.889 -12.064 -23.772  0.00  0.00    -0.000 C 
ATOM     16  C   UNL     1      34.032 -12.036 -24.571  0.00  0.00    -0.000 C 
ENDBRANCH   4  11
BRANCH   4  17
ATOM     17  O   UNL     1      31.879  -8.797 -21.562  0.00  0.00    -0.357 OA
BRANCH  17  18
ATOM     18  C   UNL     1      32.675  -8.597 -20.402  0.00  0.00    +0.120 C 
BRANCH  18  19
ATOM     19  C   UNL     1      32.344  -9.681 -19.390  0.00  0.00    -0.045 C 
BRANCH  19  20
ATOM     20  N   UNL     1      31.369 -10.613 -19.934  0.00  0.00    +0.386 N 
ATOM     21  C   UNL     1      30.139 -10.602 -19.137  0.00  0.00    -0.101 C 
ATOM     22  C   UNL     1      31.921 -11.968 -19.992  0.00  0.00    -0.101 C 
ATOM     23  H   UNL     1      31.143 -10.314 -20.883  0.00  0.00    -0.080 HD
ENDBRANCH  19  20
ENDBRANCH  18  19
ENDBRANCH  17  18
ENDBRANCH   4  17
TORSDOF 5
ENDMDL
MODEL 6
REMARK VINA RESULT:      -5.1      2.263      5.957
REMARK  Name = 119590
REMARK  5 active torsions:
REMARK  status: ('A' for Active; 'I' for Inactive)
REMARK    1  A    between atoms: C_4  and  C_11
REMARK    2  A    between atoms: C_4  and  O_17
REMARK    3  A    between atoms: O_17  and  C_18
REMARK    4  A    between atoms: C_18  and  C_19
REMARK    5  A    between atoms: C_19  and  N_20
REMARK                            x       y       z     vdW  Elec       q    Type
REMARK                         _______ _______ _______ _____ _____    ______ ____
ROOT
ATOM      1  C   UNL     1      30.921 -24.231 -15.716  0.00  0.00    +0.026 C 
ATOM      2  C   UNL     1      30.073 -24.188 -14.389  0.00  0.00    +0.002 C 
ATOM      3  C   UNL     1      30.294 -22.664 -14.251  0.00  0.00    +0.003 C 
ATOM      4  C   UNL     1      32.309 -23.580 -15.300  0.00  0.00    +0.111 C 
ATOM      5  C   UNL     1      31.839 -22.512 -14.260  0.00  0.00    +0.031 C 
ATOM      6  C   UNL     1      30.156 -23.201 -16.600  0.00  0.00    +0.003 C 
ATOM      7  C   UNL     1      29.776 -22.101 -15.595  0.00  0.00    +0.000 C 
ATOM      8  C   UNL     1      31.007 -25.605 -16.368  0.00  0.00    +0.003 C 
ATOM      9  C   UNL     1      28.586 -24.591 -14.536  0.00  0.00    +0.000 C 
ATOM     10  C   UNL     1      30.591 -25.011 -13.193  0.00  0.00    +0.000 C 
ENDROOT
BRANCH   4  11
ATOM     11  C   UNL     1      33.179 -23.102 -16.463  0.00  0.00    +0.002 C 
ATOM     12  C   UNL     1      32.588 -22.740 -17.674  0.00  0.00    -0.002 C 
ATOM     13  C   UNL     1      34.564 -23.028 -16.314  0.00  0.00    -0.002 C 
ATOM     14  C   UNL     1      33.382 -22.306 -18.735  0.00  0.00    -0.000 C 
ATOM     15  C   UNL     1      35.357 -22.593 -17.375  0.00  0.00    -0.000 C 
ATOM     16  C   UNL     1      34.767 -22.231 -18.586  0.00  0.00    -0.000 C 
ENDBRANCH   4  11
BRANCH   4  17
ATOM     17  O   UNL     1      33.095 -24.544 -14.582  0.00  0.00    -0.357 OA
BRANCH  17  18
ATOM     18  C   UNL     1      33.636 -23.991 -13.390  0.00  0.00    +0.120 C 
BRANCH  18  19
ATOM     19  C   UNL     1      35.067 -24.480 -13.231  0.00  0.00    -0.045 C 
BRANCH  19  20
ATOM     20  N   UNL     1      35.910 -23.431 -12.679  0.00  0.00    +0.386 N 
ATOM     21  C   UNL     1      37.113 -23.249 -13.496  0.00  0.00    -0.101 C 
ATOM     22  C   UNL     1      36.281 -23.737 -11.295  0.00  0.00    -0.101 C 
ATOM     23  H   UNL     1      35.377 -22.561 -12.687  0.00  0.00    -0.080 HD
ENDBRANCH  19  20
ENDBRANCH  18  19
ENDBRANCH  17  18
ENDBRANCH   4  17
TORSDOF 5
ENDMDL
MODEL 7
REMARK VINA RESULT:      -5.0      1.750      5.191
REMARK  Name = 119590
REMARK  5 active torsions:
REMARK  status: ('A' for Active; 'I' for Inactive)
REMARK    1  A    between atoms: C_4  and  C_11
REMARK    2  A    between atoms: C_4  and  O_17
REMARK    3  A    between atoms: O_17  and  C_18
REMARK    4  A    between atoms: C_18  and  C_19
REMARK    5  A    between atoms: C_19  and  N_20
REMARK                            x       y       z     vdW  Elec       q    Type
REMARK                         _______ _______ _______ _____ _____    ______ ____
ROOT
ATOM      1  C   UNL     1      31.432 -23.236 -14.520  0.00  0.00    +0.026 C 
ATOM      2  C   UNL     1      30.218 -23.313 -15.521  0.00  0.00    +0.002 C 
ATOM      3  C   UNL     1      30.495 -24.809 -15.802  0.00  0.00    +0.003 C 
ATOM      4  C   UNL     1      32.665 -23.755 -15.378  0.00  0.00    +0.111 C 
ATOM      5  C   UNL     1      31.972 -24.828 -16.278  0.00  0.00    +0.031 C 
ATOM      6  C   UNL     1      31.057 -24.353 -13.500  0.00  0.00    +0.003 C 
ATOM      7  C   UNL     1      30.464 -25.452 -14.397  0.00  0.00    +0.000 C 
ATOM      8  C   UNL     1      31.617 -21.880 -13.853  0.00  0.00    +0.003 C 
ATOM      9  C   UNL     1      28.826 -23.044 -14.902  0.00  0.00    +0.000 C 
ATOM     10  C   UNL     1      30.278 -22.415 -16.773  0.00  0.00    +0.000 C 
ENDROOT
BRANCH   4  11
ATOM     11  C   UNL     1      33.886 -24.190 -14.566  0.00  0.00    +0.002 C 
ATOM     12  C   UNL     1      34.929 -24.875 -15.189  0.00  0.00    -0.002 C 
ATOM     13  C   UNL     1      33.956 -23.901 -13.203  0.00  0.00    -0.002 C 
ATOM     14  C   UNL     1      36.042 -25.273 -14.447  0.00  0.00    -0.000 C 
ATOM     15  C   UNL     1      35.069 -24.297 -12.463  0.00  0.00    -0.000 C 
ATOM     16  C   UNL     1      36.113 -24.983 -13.085  0.00  0.00    -0.000 C 
ENDBRANCH   4  11
BRANCH   4  17
ATOM     17  O   UNL     1      33.116 -22.707 -16.250  0.00  0.00    -0.357 OA
BRANCH  17  18
ATOM     18  C   UNL     1      33.451 -23.208 -17.537  0.00  0.00    +0.120 C 
BRANCH  18  19
ATOM     19  C   UNL     1      34.719 -22.520 -18.016  0.00  0.00    -0.045 C 
BRANCH  19  20
ATOM     20  N   UNL     1      34.587 -22.107 -19.404  0.00  0.00    +0.386 N 
ATOM     21  C   UNL     1      35.799 -21.419 -19.858  0.00  0.00    -0.101 C 
ATOM     22  C   UNL     1      33.419 -21.241 -19.580  0.00  0.00    -0.101 C 
ATOM     23  H   UNL     1      34.458 -22.945 -19.971  0.00  0.00    -0.080 HD
ENDBRANCH  19  20
ENDBRANCH  18  19
ENDBRANCH  17  18
ENDBRANCH   4  17
TORSDOF 5
ENDMDL
MODEL 8
REMARK VINA RESULT:      -4.8      5.504      9.323
REMARK  Name = 119590
REMARK  5 active torsions:
REMARK  status: ('A' for Active; 'I' for Inactive)
REMARK    1  A    between atoms: C_4  and  C_11
REMARK    2  A    between atoms: C_4  and  O_17
REMARK    3  A    between atoms: O_17  and  C_18
REMARK    4  A    between atoms: C_18  and  C_19
REMARK    5  A    between atoms: C_19  and  N_20
REMARK                            x       y       z     vdW  Elec       q    Type
REMARK                         _______ _______ _______ _____ _____    ______ ____
ROOT
ATOM      1  C   UNL     1      34.362 -18.734 -23.171  0.00  0.00    +0.026 C 
ATOM      2  C   UNL     1      34.828 -17.355 -23.773  0.00  0.00    +0.002 C 
ATOM      3  C   UNL     1      36.069 -17.328 -22.850  0.00  0.00    +0.003 C 
ATOM      4  C   UNL     1      34.288 -18.460 -21.608  0.00  0.00    +0.111 C 
ATOM      5  C   UNL     1      35.472 -17.457 -21.424  0.00  0.00    +0.031 C 
ATOM      6  C   UNL     1      35.613 -19.622 -23.441  0.00  0.00    +0.003 C 
ATOM      7  C   UNL     1      36.782 -18.662 -23.166  0.00  0.00    +0.000 C 
ATOM      8  C   UNL     1      33.098 -19.305 -23.800  0.00  0.00    +0.003 C 
ATOM      9  C   UNL     1      35.173 -17.369 -25.281  0.00  0.00    +0.000 C 
ATOM     10  C   UNL     1      33.882 -16.151 -23.593  0.00  0.00    +0.000 C 
ENDROOT
BRANCH   4  11
ATOM     11  C   UNL     1      34.274 -19.711 -20.727  0.00  0.00    +0.002 C 
ATOM     12  C   UNL     1      35.475 -20.294 -20.325  0.00  0.00    -0.002 C 
ATOM     13  C   UNL     1      33.059 -20.268 -20.327  0.00  0.00    -0.002 C 
ATOM     14  C   UNL     1      35.462 -21.436 -19.523  0.00  0.00    -0.000 C 
ATOM     15  C   UNL     1      33.047 -21.408 -19.525  0.00  0.00    -0.000 C 
ATOM     16  C   UNL     1      34.248 -21.992 -19.122  0.00  0.00    -0.000 C 
ENDBRANCH   4  11
BRANCH   4  17
ATOM     17  O   UNL     1      33.082 -17.743 -21.303  0.00  0.00    -0.357 OA
BRANCH  17  18
ATOM     18  C   UNL     1      33.339 -16.619 -20.473  0.00  0.00    +0.120 C 
BRANCH  18  19
ATOM     19  C   UNL     1      32.230 -15.599 -20.672  0.00  0.00    -0.045 C 
BRANCH  19  20
ATOM     20  N   UNL     1      32.765 -14.246 -20.651  0.00  0.00    +0.386 N 
ATOM     21  C   UNL     1      32.225 -13.457 -21.761  0.00  0.00    -0.101 C 
ATOM     22  C   UNL     1      34.228 -14.266 -20.710  0.00  0.00    -0.101 C 
ATOM     23  H   UNL     1      32.481 -13.810 -19.774  0.00  0.00    -0.080 HD
ENDBRANCH  19  20
ENDBRANCH  18  19
ENDBRANCH  17  18
ENDBRANCH   4  17
TORSDOF 5
ENDMDL
MODEL 9
REMARK VINA RESULT:      -4.7     16.301     19.890
REMARK  Name = 119590
REMARK  5 active torsions:
REMARK  status: ('A' for Active; 'I' for Inactive)
REMARK    1  A    between atoms: C_4  and  C_11
REMARK    2  A    between atoms: C_4  and  O_17
REMARK    3  A    between atoms: O_17  and  C_18
REMARK    4  A    between atoms: C_18  and  C_19
REMARK    5  A    between atoms: C_19  and  N_20
REMARK                            x       y       z     vdW  Elec       q    Type
REMARK                         _______ _______ _______ _____ _____    ______ ____
ROOT
ATOM      1  C   UNL     1      31.583  -7.464 -23.398  0.00  0.00    +0.026 C 
ATOM      2  C   UNL     1      32.558  -8.619 -22.953  0.00  0.00    +0.002 C 
ATOM      3  C   UNL     1      33.337  -7.656 -22.026  0.00  0.00    +0.003 C 
ATOM      4  C   UNL     1      32.560  -6.329 -23.932  0.00  0.00    +0.111 C 
ATOM      5  C   UNL     1      33.780  -6.510 -22.973  0.00  0.00    +0.031 C 
ATOM      6  C   UNL     1      31.016  -6.997 -22.025  0.00  0.00    +0.003 C 
ATOM      7  C   UNL     1      32.241  -7.081 -21.100  0.00  0.00    +0.000 C 
ATOM      8  C   UNL     1      30.487  -7.897 -24.362  0.00  0.00    +0.003 C 
ATOM      9  C   UNL     1      31.892  -9.800 -22.206  0.00  0.00    +0.000 C 
ATOM     10  C   UNL     1      33.421  -9.276 -24.048  0.00  0.00    +0.000 C 
ENDROOT
BRANCH   4  11
ATOM     11  C   UNL     1      31.941  -4.935 -24.039  0.00  0.00    +0.002 C 
ATOM     12  C   UNL     1      31.311  -4.540 -25.219  0.00  0.00    -0.002 C 
ATOM     13  C   UNL     1      32.007  -4.058 -22.955  0.00  0.00    -0.002 C 
ATOM     14  C   UNL     1      30.748  -3.267 -25.316  0.00  0.00    -0.000 C 
ATOM     15  C   UNL     1      31.442  -2.787 -23.053  0.00  0.00    -0.000 C 
ATOM     16  C   UNL     1      30.812  -2.391 -24.233  0.00  0.00    -0.000 C 
ENDBRANCH   4  11
BRANCH   4  17
ATOM     17  O   UNL     1      33.013  -6.669 -25.252  0.00  0.00    -0.357 OA
BRANCH  17  18
ATOM     18  C   UNL     1      34.262  -6.060 -25.547  0.00  0.00    +0.120 C 
BRANCH  18  19
ATOM     19  C   UNL     1      34.205  -5.481 -26.951  0.00  0.00    -0.045 C 
BRANCH  19  20
ATOM     20  N   UNL     1      35.118  -4.356 -27.081  0.00  0.00    +0.386 N 
ATOM     21  C   UNL     1      34.393  -3.141 -27.462  0.00  0.00    -0.101 C 
ATOM     22  C   UNL     1      36.164  -4.648 -28.065  0.00  0.00    -0.101 C 
ATOM     23  H   UNL     1      35.559  -4.201 -26.175  0.00  0.00    -0.080 HD
ENDBRANCH  19  20
ENDBRANCH  18  19
ENDBRANCH  17  18
ENDBRANCH   4  17
TORSDOF 5
ENDMDL
