MODEL 1
REMARK VINA RESULT:     -10.6      0.000      0.000
REMARK  Name = 16659841
REMARK  2 active torsions:
REMARK  status: ('A' for Active; 'I' for Inactive)
REMARK    1  A    between atoms: N_2  and  C_19
REMARK    2  A    between atoms: C_19  and  C_24
REMARK                            x       y       z     vdW  Elec       q    Type
REMARK                         _______ _______ _______ _____ _____    ______ ____
ROOT
ATOM      1 CL   UNL     1      30.992 -24.398 -13.211  0.00  0.00    -0.076 Cl
ATOM      2  N   UNL     1      32.444 -22.295 -18.384  0.00  0.00    -0.257 N 
ATOM      3  N   UNL     1      33.787 -24.280 -14.371  0.00  0.00    -0.271 N 
ATOM      4  N   UNL     1      33.125 -23.278 -16.408  0.00  0.00    -0.321 NA
ATOM      5  N   UNL     1      30.807 -22.762 -16.823  0.00  0.00    -0.169 NA
ATOM      6  N   UNL     1      37.249 -24.284 -15.454  0.00  0.00    -0.239 N 
ATOM      7  N   UNL     1      35.938 -24.031 -15.611  0.00  0.00    -0.166 NA
ATOM      8  C   UNL     1      32.111 -22.800 -17.156  0.00  0.00    +0.147 C 
ATOM      9  C   UNL     1      32.762 -23.764 -15.203  0.00  0.00    +0.210 C 
ATOM     10  C   UNL     1      35.175 -24.401 -14.542  0.00  0.00    +0.152 C 
ATOM     11  C   UNL     1      37.309 -24.835 -14.239  0.00  0.00    +0.046 C 
ATOM     12  C   UNL     1      36.047 -24.933 -13.625  0.00  0.00    +0.048 C 
ATOM     13  C   UNL     1      31.460 -23.782 -14.743  0.00  0.00    +0.122 C 
ATOM     14  C   UNL     1      30.516 -23.264 -15.605  0.00  0.00    +0.127 C 
ATOM     15  C   UNL     1      38.616 -25.264 -13.692  0.00  0.00    +0.049 C 
ATOM     16  H   UNL     1      31.728 -21.936 -18.957  0.00  0.00    +0.160 HD
ATOM     17  H   UNL     1      33.462 -24.619 -13.507  0.00  0.00    +0.156 HD
ATOM     18  H   UNL     1      37.986 -24.107 -16.084  0.00  0.00    +0.174 HD
ENDROOT
BRANCH   2  19
ATOM     19  C   UNL     1      33.832 -22.267 -18.884  0.00  0.00    +0.164 C 
ATOM     20  C   UNL     1      34.104 -23.596 -19.612  0.00  0.00    +0.038 C 
BRANCH  19  24
ATOM     21  F   UNL     1      34.853 -17.859 -22.031  0.00  0.00    -0.205 F 
ATOM     22  N   UNL     1      35.402 -20.737 -19.895  0.00  0.00    -0.193 NA
ATOM     23  N   UNL     1      33.037 -20.450 -20.262  0.00  0.00    -0.215 NA
ATOM     24  C   UNL     1      34.108 -21.075 -19.735  0.00  0.00    +0.026 C 
ATOM     25  C   UNL     1      35.615 -19.655 -20.671  0.00  0.00    +0.136 C 
ATOM     26  C   UNL     1      33.323 -19.376 -21.026  0.00  0.00    +0.194 C 
ATOM     27  C   UNL     1      34.606 -18.928 -21.268  0.00  0.00    +0.163 C 
ENDBRANCH  19  24
ENDBRANCH   2  19
TORSDOF 2
ENDMDL
MODEL 2
REMARK VINA RESULT:      -9.7      3.120      6.901
REMARK  Name = 16659841
REMARK  2 active torsions:
REMARK  status: ('A' for Active; 'I' for Inactive)
REMARK    1  A    between atoms: N_2  and  C_19
REMARK    2  A    between atoms: C_19  and  C_24
REMARK                            x       y       z     vdW  Elec       q    Type
REMARK                         _______ _______ _______ _____ _____    ______ ____
ROOT
ATOM      1 CL   UNL     1      29.862 -23.133 -16.732  0.00  0.00    -0.076 Cl
ATOM      2  N   UNL     1      35.183 -24.241 -14.795  0.00  0.00    -0.257 N 
ATOM      3  N   UNL     1      32.454 -22.255 -18.028  0.00  0.00    -0.271 N 
ATOM      4  N   UNL     1      33.849 -23.251 -16.401  0.00  0.00    -0.321 NA
ATOM      5  N   UNL     1      32.898 -24.450 -14.538  0.00  0.00    -0.169 NA
ATOM      6  N   UNL     1      35.359 -21.052 -19.838  0.00  0.00    -0.239 N 
ATOM      7  N   UNL     1      34.751 -21.700 -18.829  0.00  0.00    -0.166 NA
ATOM      8  C   UNL     1      33.925 -23.969 -15.263  0.00  0.00    +0.147 C 
ATOM      9  C   UNL     1      32.596 -23.005 -16.834  0.00  0.00    +0.210 C 
ATOM     10  C   UNL     1      33.390 -21.681 -18.904  0.00  0.00    +0.152 C 
ATOM     11  C   UNL     1      34.336 -20.610 -20.574  0.00  0.00    +0.046 C 
ATOM     12  C   UNL     1      33.086 -20.972 -20.040  0.00  0.00    +0.048 C 
ATOM     13  C   UNL     1      31.459 -23.442 -16.185  0.00  0.00    +0.122 C 
ATOM     14  C   UNL     1      31.674 -24.167 -15.030  0.00  0.00    +0.127 C 
ATOM     15  C   UNL     1      34.601 -19.828 -21.803  0.00  0.00    +0.049 C 
ATOM     16  H   UNL     1      35.276 -24.764 -13.966  0.00  0.00    +0.160 HD
ATOM     17  H   UNL     1      31.518 -22.108 -18.294  0.00  0.00    +0.156 HD
ATOM     18  H   UNL     1      36.324 -20.932 -19.995  0.00  0.00    +0.174 HD
ENDROOT
BRANCH   2  19
ATOM     19  C   UNL     1      36.405 -23.781 -15.483  0.00  0.00    +0.164 C 
ATOM     20  C   UNL     1      36.503 -22.254 -15.314  0.00  0.00    +0.038 C 
BRANCH  19  24
ATOM     21  F   UNL     1      40.923 -26.416 -13.747  0.00  0.00    -0.205 F 
ATOM     22  N   UNL     1      37.432 -25.551 -14.201  0.00  0.00    -0.193 NA
ATOM     23  N   UNL     1      38.808 -24.012 -15.446  0.00  0.00    -0.215 NA
ATOM     24  C   UNL     1      37.627 -24.494 -15.013  0.00  0.00    +0.026 C 
ATOM     25  C   UNL     1      38.559 -26.172 -13.796  0.00  0.00    +0.136 C 
ATOM     26  C   UNL     1      39.892 -24.681 -15.002  0.00  0.00    +0.194 C 
ATOM     27  C   UNL     1      39.828 -25.778 -14.167  0.00  0.00    +0.163 C 
ENDBRANCH  19  24
ENDBRANCH   2  19
TORSDOF 2
ENDMDL
MODEL 3
REMARK VINA RESULT:      -9.4      3.286      6.632
REMARK  Name = 16659841
REMARK  2 active torsions:
REMARK  status: ('A' for Active; 'I' for Inactive)
REMARK    1  A    between atoms: N_2  and  C_19
REMARK    2  A    between atoms: C_19  and  C_24
REMARK                            x       y       z     vdW  Elec       q    Type
REMARK                         _______ _______ _______ _____ _____    ______ ____
ROOT
ATOM      1 CL   UNL     1      30.651 -24.155 -16.387  0.00  0.00    -0.076 Cl
ATOM      2  N   UNL     1      34.864 -23.857 -12.457  0.00  0.00    -0.257 N 
ATOM      3  N   UNL     1      33.458 -23.118 -16.852  0.00  0.00    -0.271 N 
ATOM      4  N   UNL     1      34.185 -23.483 -14.633  0.00  0.00    -0.321 NA
ATOM      5  N   UNL     1      32.687 -24.414 -12.989  0.00  0.00    -0.169 NA
ATOM      6  N   UNL     1      36.724 -21.821 -17.750  0.00  0.00    -0.239 N 
ATOM      7  N   UNL     1      35.828 -22.340 -16.893  0.00  0.00    -0.166 NA
ATOM      8  C   UNL     1      33.871 -23.920 -13.397  0.00  0.00    +0.147 C 
ATOM      9  C   UNL     1      33.185 -23.563 -15.534  0.00  0.00    +0.210 C 
ATOM     10  C   UNL     1      34.608 -22.583 -17.453  0.00  0.00    +0.152 C 
ATOM     11  C   UNL     1      36.037 -21.734 -18.892  0.00  0.00    +0.046 C 
ATOM     12  C   UNL     1      34.713 -22.194 -18.766  0.00  0.00    +0.048 C 
ATOM     13  C   UNL     1      31.927 -24.051 -15.244  0.00  0.00    +0.122 C 
ATOM     14  C   UNL     1      31.734 -24.465 -13.942  0.00  0.00    +0.127 C 
ATOM     15  C   UNL     1      36.694 -21.194 -20.104  0.00  0.00    +0.049 C 
ATOM     16  H   UNL     1      34.670 -24.168 -11.543  0.00  0.00    +0.160 HD
ATOM     17  H   UNL     1      32.691 -23.201 -17.464  0.00  0.00    +0.156 HD
ATOM     18  H   UNL     1      37.660 -21.565 -17.578  0.00  0.00    +0.174 HD
ENDROOT
BRANCH   2  19
ATOM     19  C   UNL     1      36.213 -23.340 -12.757  0.00  0.00    +0.164 C 
ATOM     20  C   UNL     1      36.823 -22.806 -11.448  0.00  0.00    +0.038 C 
BRANCH  19  24
ATOM     21  F   UNL     1      39.409 -27.091 -15.226  0.00  0.00    -0.205 F 
ATOM     22  N   UNL     1      36.799 -25.647 -13.166  0.00  0.00    -0.193 NA
ATOM     23  N   UNL     1      38.054 -23.882 -14.222  0.00  0.00    -0.215 NA
ATOM     24  C   UNL     1      37.078 -24.355 -13.424  0.00  0.00    +0.026 C 
ATOM     25  C   UNL     1      37.600 -26.537 -13.786  0.00  0.00    +0.136 C 
ATOM     26  C   UNL     1      38.817 -24.826 -14.810  0.00  0.00    +0.194 C 
ATOM     27  C   UNL     1      38.634 -26.182 -14.627  0.00  0.00    +0.163 C 
ENDBRANCH  19  24
ENDBRANCH   2  19
TORSDOF 2
ENDMDL
MODEL 4
REMARK VINA RESULT:      -8.2      1.795      4.361
REMARK  Name = 16659841
REMARK  2 active torsions:
REMARK  status: ('A' for Active; 'I' for Inactive)
REMARK    1  A    between atoms: N_2  and  C_19
REMARK    2  A    between atoms: C_19  and  C_24
REMARK                            x       y       z     vdW  Elec       q    Type
REMARK                         _______ _______ _______ _____ _____    ______ ____
ROOT
ATOM      1 CL   UNL     1      35.924 -23.544 -12.982  0.00  0.00    -0.076 Cl
ATOM      2  N   UNL     1      36.337 -21.982 -18.521  0.00  0.00    -0.257 N 
ATOM      3  N   UNL     1      33.623 -23.230 -14.926  0.00  0.00    -0.271 N 
ATOM      4  N   UNL     1      34.981 -22.595 -16.754  0.00  0.00    -0.321 NA
ATOM      5  N   UNL     1      37.373 -22.433 -16.507  0.00  0.00    -0.169 NA
ATOM      6  N   UNL     1      30.651 -22.953 -16.987  0.00  0.00    -0.239 N 
ATOM      7  N   UNL     1      31.975 -22.883 -16.767  0.00  0.00    -0.166 NA
ATOM      8  C   UNL     1      36.226 -22.351 -17.207  0.00  0.00    +0.147 C 
ATOM      9  C   UNL     1      34.909 -22.958 -15.458  0.00  0.00    +0.210 C 
ATOM     10  C   UNL     1      32.338 -23.198 -15.491  0.00  0.00    +0.152 C 
ATOM     11  C   UNL     1      30.166 -23.327 -15.800  0.00  0.00    +0.046 C 
ATOM     12  C   UNL     1      31.171 -23.494 -14.830  0.00  0.00    +0.048 C 
ATOM     13  C   UNL     1      36.009 -23.081 -14.632  0.00  0.00    +0.122 C 
ATOM     14  C   UNL     1      37.227 -22.802 -15.217  0.00  0.00    +0.127 C 
ATOM     15  C   UNL     1      28.707 -23.515 -15.631  0.00  0.00    +0.049 C 
ATOM     16  H   UNL     1      37.233 -21.797 -18.885  0.00  0.00    +0.160 HD
ATOM     17  H   UNL     1      33.634 -23.489 -13.977  0.00  0.00    +0.156 HD
ATOM     18  H   UNL     1      30.158 -22.773 -17.821  0.00  0.00    +0.174 HD
ENDROOT
BRANCH   2  19
ATOM     19  C   UNL     1      35.169 -21.851 -19.412  0.00  0.00    +0.164 C 
ATOM     20  C   UNL     1      33.897 -22.052 -18.568  0.00  0.00    +0.038 C 
BRANCH  19  24
ATOM     21  F   UNL     1      35.155 -17.089 -22.188  0.00  0.00    -0.205 F 
ATOM     22  N   UNL     1      36.359 -19.963 -20.334  0.00  0.00    -0.193 NA
ATOM     23  N   UNL     1      33.969 -20.123 -20.598  0.00  0.00    -0.215 NA
ATOM     24  C   UNL     1      35.165 -20.563 -20.163  0.00  0.00    +0.026 C 
ATOM     25  C   UNL     1      36.319 -18.801 -21.017  0.00  0.00    +0.136 C 
ATOM     26  C   UNL     1      34.002 -18.956 -21.273  0.00  0.00    +0.194 C 
ATOM     27  C   UNL     1      35.159 -18.244 -21.515  0.00  0.00    +0.163 C 
ENDBRANCH  19  24
ENDBRANCH   2  19
TORSDOF 2
ENDMDL
MODEL 5
REMARK VINA RESULT:      -8.1     10.373     13.631
REMARK  Name = 16659841
REMARK  2 active torsions:
REMARK  status: ('A' for Active; 'I' for Inactive)
REMARK    1  A    between atoms: N_2  and  C_19
REMARK    2  A    between atoms: C_19  and  C_24
REMARK                            x       y       z     vdW  Elec       q    Type
REMARK                         _______ _______ _______ _____ _____    ______ ____
ROOT
ATOM      1 CL   UNL     1      35.091  -7.561 -23.931  0.00  0.00    -0.076 Cl
ATOM      2  N   UNL     1      34.022 -12.846 -25.985  0.00  0.00    -0.257 N 
ATOM      3  N   UNL     1      33.214  -9.603 -22.717  0.00  0.00    -0.271 N 
ATOM      4  N   UNL     1      33.609 -11.254 -24.363  0.00  0.00    -0.321 NA
ATOM      5  N   UNL     1      35.137 -10.832 -26.179  0.00  0.00    -0.169 NA
ATOM      6  N   UNL     1      30.901 -11.811 -21.003  0.00  0.00    -0.239 N 
ATOM      7  N   UNL     1      31.764 -11.497 -21.986  0.00  0.00    -0.166 NA
ATOM      8  C   UNL     1      34.265 -11.593 -25.490  0.00  0.00    +0.147 C 
ATOM      9  C   UNL     1      33.875 -10.015 -23.901  0.00  0.00    +0.210 C 
ATOM     10  C   UNL     1      32.291 -10.244 -21.875  0.00  0.00    +0.152 C 
ATOM     11  C   UNL     1      30.887 -10.709 -20.249  0.00  0.00    +0.046 C 
ATOM     12  C   UNL     1      31.734  -9.700 -20.745  0.00  0.00    +0.048 C 
ATOM     13  C   UNL     1      34.748  -9.139 -24.514  0.00  0.00    +0.122 C 
ATOM     14  C   UNL     1      35.356  -9.606 -25.661  0.00  0.00    +0.127 C 
ATOM     15  C   UNL     1      30.033 -10.659 -19.040  0.00  0.00    +0.049 C 
ATOM     16  H   UNL     1      34.485 -13.127 -26.807  0.00  0.00    +0.160 HD
ATOM     17  H   UNL     1      33.448  -8.692 -22.429  0.00  0.00    +0.156 HD
ATOM     18  H   UNL     1      30.400 -12.649 -20.873  0.00  0.00    +0.174 HD
ENDROOT
BRANCH   2  19
ATOM     19  C   UNL     1      33.093 -13.791 -25.337  0.00  0.00    +0.164 C 
ATOM     20  C   UNL     1      32.319 -14.534 -26.441  0.00  0.00    +0.038 C 
BRANCH  19  24
ATOM     21  F   UNL     1      35.653 -17.209 -21.853  0.00  0.00    -0.205 F 
ATOM     22  N   UNL     1      34.175 -15.904 -24.895  0.00  0.00    -0.193 NA
ATOM     23  N   UNL     1      33.955 -14.274 -23.134  0.00  0.00    -0.215 NA
ATOM     24  C   UNL     1      33.785 -14.716 -24.395  0.00  0.00    +0.026 C 
ATOM     25  C   UNL     1      34.798 -16.715 -24.015  0.00  0.00    +0.136 C 
ATOM     26  C   UNL     1      34.584 -15.135 -22.308  0.00  0.00    +0.194 C 
ATOM     27  C   UNL     1      35.032 -16.381 -22.698  0.00  0.00    +0.163 C 
ENDBRANCH  19  24
ENDBRANCH   2  19
TORSDOF 2
ENDMDL
MODEL 6
REMARK VINA RESULT:      -7.9      3.210      6.968
REMARK  Name = 16659841
REMARK  2 active torsions:
REMARK  status: ('A' for Active; 'I' for Inactive)
REMARK    1  A    between atoms: N_2  and  C_19
REMARK    2  A    between atoms: C_19  and  C_24
REMARK                            x       y       z     vdW  Elec       q    Type
REMARK                         _______ _______ _______ _____ _____    ______ ____
ROOT
ATOM      1 CL   UNL     1      29.039 -22.605 -17.009  0.00  0.00    -0.076 Cl
ATOM      2  N   UNL     1      33.930 -24.420 -14.545  0.00  0.00    -0.257 N 
ATOM      3  N   UNL     1      31.847 -22.087 -18.018  0.00  0.00    -0.271 N 
ATOM      4  N   UNL     1      32.917 -23.261 -16.267  0.00  0.00    -0.321 NA
ATOM      5  N   UNL     1      31.623 -24.317 -14.530  0.00  0.00    -0.169 NA
ATOM      6  N   UNL     1      35.061 -21.291 -19.500  0.00  0.00    -0.239 N 
ATOM      7  N   UNL     1      34.269 -21.849 -18.568  0.00  0.00    -0.166 NA
ATOM      8  C   UNL     1      32.776 -23.981 -15.137  0.00  0.00    +0.147 C 
ATOM      9  C   UNL     1      31.761 -22.848 -16.825  0.00  0.00    +0.210 C 
ATOM     10  C   UNL     1      32.938 -21.646 -18.785  0.00  0.00    +0.152 C 
ATOM     11  C   UNL     1      34.190 -20.715 -20.333  0.00  0.00    +0.046 C 
ATOM     12  C   UNL     1      32.853 -20.904 -19.936  0.00  0.00    +0.048 C 
ATOM     13  C   UNL     1      30.514 -23.127 -16.303  0.00  0.00    +0.122 C 
ATOM     14  C   UNL     1      30.507 -23.872 -15.142  0.00  0.00    +0.127 C 
ATOM     15  C   UNL     1      34.685 -19.978 -21.518  0.00  0.00    +0.049 C 
ATOM     16  H   UNL     1      33.864 -24.949 -13.718  0.00  0.00    +0.160 HD
ATOM     17  H   UNL     1      30.973 -21.815 -18.378  0.00  0.00    +0.156 HD
ATOM     18  H   UNL     1      36.044 -21.303 -19.555  0.00  0.00    +0.174 HD
ENDROOT
BRANCH   2  19
ATOM     19  C   UNL     1      35.268 -24.130 -15.096  0.00  0.00    +0.164 C 
ATOM     20  C   UNL     1      35.411 -22.603 -15.228  0.00  0.00    +0.038 C 
BRANCH  19  24
ATOM     21  F   UNL     1      39.312 -26.403 -12.120  0.00  0.00    -0.205 F 
ATOM     22  N   UNL     1      36.389 -24.438 -12.980  0.00  0.00    -0.193 NA
ATOM     23  N   UNL     1      37.217 -25.548 -14.952  0.00  0.00    -0.215 NA
ATOM     24  C   UNL     1      36.362 -24.745 -14.291  0.00  0.00    +0.026 C 
ATOM     25  C   UNL     1      37.391 -25.012 -12.282  0.00  0.00    +0.136 C 
ATOM     26  C   UNL     1      38.194 -26.087 -14.194  0.00  0.00    +0.194 C 
ATOM     27  C   UNL     1      38.332 -25.852 -12.841  0.00  0.00    +0.163 C 
ENDBRANCH  19  24
ENDBRANCH   2  19
TORSDOF 2
ENDMDL
MODEL 7
REMARK VINA RESULT:      -7.8      3.470      5.712
REMARK  Name = 16659841
REMARK  2 active torsions:
REMARK  status: ('A' for Active; 'I' for Inactive)
REMARK    1  A    between atoms: N_2  and  C_19
REMARK    2  A    between atoms: C_19  and  C_24
REMARK                            x       y       z     vdW  Elec       q    Type
REMARK                         _______ _______ _______ _____ _____    ______ ____
ROOT
ATOM      1 CL   UNL     1      37.150 -21.792 -18.877  0.00  0.00    -0.076 Cl
ATOM      2  N   UNL     1      31.533 -22.547 -17.791  0.00  0.00    -0.257 N 
ATOM      3  N   UNL     1      35.966 -23.105 -16.418  0.00  0.00    -0.271 N 
ATOM      4  N   UNL     1      33.718 -22.828 -17.096  0.00  0.00    -0.321 NA
ATOM      5  N   UNL     1      33.193 -21.761 -19.193  0.00  0.00    -0.169 NA
ATOM      6  N   UNL     1      34.885 -24.729 -13.360  0.00  0.00    -0.239 N 
ATOM      7  N   UNL     1      34.675 -24.121 -14.541  0.00  0.00    -0.166 NA
ATOM      8  C   UNL     1      32.869 -22.371 -18.037  0.00  0.00    +0.147 C 
ATOM      9  C   UNL     1      35.025 -22.642 -17.372  0.00  0.00    +0.210 C 
ATOM     10  C   UNL     1      35.821 -23.751 -15.180  0.00  0.00    +0.152 C 
ATOM     11  C   UNL     1      36.216 -24.738 -13.256  0.00  0.00    +0.046 C 
ATOM     12  C   UNL     1      36.851 -24.141 -14.361  0.00  0.00    +0.048 C 
ATOM     13  C   UNL     1      35.488 -22.032 -18.521  0.00  0.00    +0.122 C 
ATOM     14  C   UNL     1      34.516 -21.608 -19.404  0.00  0.00    +0.127 C 
ATOM     15  C   UNL     1      36.854 -25.336 -12.062  0.00  0.00    +0.049 C 
ATOM     16  H   UNL     1      30.884 -22.225 -18.458  0.00  0.00    +0.160 HD
ATOM     17  H   UNL     1      36.902 -22.940 -16.674  0.00  0.00    +0.156 HD
ATOM     18  H   UNL     1      34.218 -25.081 -12.726  0.00  0.00    +0.174 HD
ENDROOT
BRANCH   2  19
ATOM     19  C   UNL     1      31.028 -23.199 -16.569  0.00  0.00    +0.164 C 
ATOM     20  C   UNL     1      31.954 -22.810 -15.401  0.00  0.00    +0.038 C 
BRANCH  19  24
ATOM     21  F   UNL     1      25.737 -22.015 -15.578  0.00  0.00    -0.205 F 
ATOM     22  N   UNL     1      28.741 -23.041 -17.329  0.00  0.00    -0.193 NA
ATOM     23  N   UNL     1      29.297 -22.457 -15.057  0.00  0.00    -0.215 NA
ATOM     24  C   UNL     1      29.597 -22.879 -16.301  0.00  0.00    +0.026 C 
ATOM     25  C   UNL     1      27.456 -22.743 -17.051  0.00  0.00    +0.136 C 
ATOM     26  C   UNL     1      27.994 -22.177 -14.850  0.00  0.00    +0.194 C 
ATOM     27  C   UNL     1      27.019 -22.302 -15.819  0.00  0.00    +0.163 C 
ENDBRANCH  19  24
ENDBRANCH   2  19
TORSDOF 2
ENDMDL
MODEL 8
REMARK VINA RESULT:      -7.7      3.392      6.049
REMARK  Name = 16659841
REMARK  2 active torsions:
REMARK  status: ('A' for Active; 'I' for Inactive)
REMARK    1  A    between atoms: N_2  and  C_19
REMARK    2  A    between atoms: C_19  and  C_24
REMARK                            x       y       z     vdW  Elec       q    Type
REMARK                         _______ _______ _______ _____ _____    ______ ____
ROOT
ATOM      1 CL   UNL     1      36.913 -23.895 -13.189  0.00  0.00    -0.076 Cl
ATOM      2  N   UNL     1      31.365 -23.595 -14.744  0.00  0.00    -0.257 N 
ATOM      3  N   UNL     1      35.851 -22.859 -15.829  0.00  0.00    -0.271 N 
ATOM      4  N   UNL     1      33.577 -23.227 -15.298  0.00  0.00    -0.321 NA
ATOM      5  N   UNL     1      32.952 -24.159 -13.164  0.00  0.00    -0.169 NA
ATOM      6  N   UNL     1      34.919 -21.552 -19.082  0.00  0.00    -0.239 N 
ATOM      7  N   UNL     1      34.653 -22.078 -17.874  0.00  0.00    -0.166 NA
ATOM      8  C   UNL     1      32.685 -23.665 -14.387  0.00  0.00    +0.147 C 
ATOM      9  C   UNL     1      34.867 -23.307 -14.912  0.00  0.00    +0.210 C 
ATOM     10  C   UNL     1      35.766 -22.323 -17.124  0.00  0.00    +0.152 C 
ATOM     11  C   UNL     1      36.252 -21.465 -19.089  0.00  0.00    +0.046 C 
ATOM     12  C   UNL     1      36.832 -21.931 -17.894  0.00  0.00    +0.048 C 
ATOM     13  C   UNL     1      35.273 -23.793 -13.686  0.00  0.00    +0.122 C 
ATOM     14  C   UNL     1      34.262 -24.210 -12.844  0.00  0.00    +0.127 C 
ATOM     15  C   UNL     1      36.945 -20.922 -20.278  0.00  0.00    +0.049 C 
ATOM     16  H   UNL     1      30.686 -23.906 -14.102  0.00  0.00    +0.160 HD
ATOM     17  H   UNL     1      36.772 -22.942 -15.493  0.00  0.00    +0.156 HD
ATOM     18  H   UNL     1      34.285 -21.295 -19.791  0.00  0.00    +0.174 HD
ENDROOT
BRANCH   2  19
ATOM     19  C   UNL     1      30.920 -23.075 -16.050  0.00  0.00    +0.164 C 
ATOM     20  C   UNL     1      31.282 -24.113 -17.128  0.00  0.00    +0.038 C 
BRANCH  19  24
ATOM     21  F   UNL     1      25.570 -21.747 -16.079  0.00  0.00    -0.205 F 
ATOM     22  N   UNL     1      28.841 -22.788 -17.246  0.00  0.00    -0.193 NA
ATOM     23  N   UNL     1      28.936 -22.353 -14.877  0.00  0.00    -0.215 NA
ATOM     24  C   UNL     1      29.473 -22.716 -16.058  0.00  0.00    +0.026 C 
ATOM     25  C   UNL     1      27.534 -22.457 -17.216  0.00  0.00    +0.136 C 
ATOM     26  C   UNL     1      27.626 -22.035 -14.921  0.00  0.00    +0.194 C 
ATOM     27  C   UNL     1      26.867 -22.069 -16.073  0.00  0.00    +0.163 C 
ENDBRANCH  19  24
ENDBRANCH   2  19
TORSDOF 2
ENDMDL
