MODEL 1
REMARK VINA RESULT:     -10.2      0.000      0.000
REMARK  Name = 5287596
REMARK  10 active torsions:
REMARK  status: ('A' for Active; 'I' for Inactive)
REMARK    1  A    between atoms: C_1  and  N_3
REMARK    2  A    between atoms: C_1  and  C_17
REMARK    3  A    between atoms: C_1  and  C_27
REMARK    4  A    between atoms: C_4  and  C_8
REMARK    5  A    between atoms: C_10  and  O_14
REMARK    6  A    between atoms: C_17  and  C_20
REMARK    7  A    between atoms: C_27  and  C_28
REMARK    8  A    between atoms: C_28  and  C_29
REMARK    9  A    between atoms: C_29  and  N_30
REMARK   10  A    between atoms: N_30  and  C_33
REMARK                            x       y       z     vdW  Elec       q    Type
REMARK                         _______ _______ _______ _____ _____    ______ ____
ROOT
ATOM      1  C   UNL     1      33.076 -23.432 -17.126  0.00  0.00    +0.137 C 
ENDROOT
BRANCH   1   3
ATOM      2  O   UNL     1      34.972 -25.061 -15.649  0.00  0.00    -0.273 OA
ATOM      3  N   UNL     1      34.141 -22.975 -16.262  0.00  0.00    -0.298 N 
ATOM      4  C   UNL     1      34.999 -23.834 -15.597  0.00  0.00    +0.241 C 
ATOM      5  H   UNL     1      34.262 -22.006 -16.141  0.00  0.00    +0.150 HD
BRANCH   4   8
ATOM      6  O   UNL     1      34.504 -23.548 -12.398  0.00  0.00    -0.275 OA
ATOM      7  N   UNL     1      36.390 -23.960 -13.674  0.00  0.00    -0.270 N 
ATOM      8  C   UNL     1      36.026 -23.099 -14.790  0.00  0.00    +0.154 C 
ATOM      9  C   UNL     1      37.322 -22.904 -15.563  0.00  0.00    +0.060 C 
ATOM     10  C   UNL     1      38.094 -24.196 -15.301  0.00  0.00    +0.132 C 
ATOM     11  C   UNL     1      37.709 -24.557 -13.873  0.00  0.00    +0.123 C 
ATOM     12  C   UNL     1      35.614 -24.068 -12.531  0.00  0.00    +0.227 C 
ATOM     13  C   UNL     1      36.209 -24.888 -11.414  0.00  0.00    +0.095 C 
BRANCH  10  14
ATOM     14  O   UNL     1      39.486 -23.978 -15.431  0.00  0.00    -0.383 OA
ATOM     15  H   UNL     1      39.927 -24.202 -14.597  0.00  0.00    +0.210 HD
ENDBRANCH  10  14
ENDBRANCH   4   8
ENDBRANCH   1   3
BRANCH   1  17
ATOM     16  O   UNL     1      33.650 -24.597 -19.132  0.00  0.00    -0.286 OA
ATOM     17  C   UNL     1      33.619 -23.505 -18.557  0.00  0.00    +0.226 C 
BRANCH  17  20
ATOM     18  S   UNL     1      35.726 -21.859 -19.276  0.00  0.00    -0.069 S 
ATOM     19  N   UNL     1      33.237 -21.425 -19.795  0.00  0.00    -0.396 NA
ATOM     20  C   UNL     1      34.065 -22.266 -19.221  0.00  0.00    +0.193 C 
ATOM     21  C   UNL     1      35.335 -20.422 -20.145  0.00  0.00    +0.128 C 
ATOM     22  C   UNL     1      33.950 -20.362 -20.329  0.00  0.00    +0.124 C 
ATOM     23  C   UNL     1      36.192 -19.420 -20.629  0.00  0.00    -0.008 C 
ATOM     24  C   UNL     1      33.406 -19.259 -21.023  0.00  0.00    +0.029 C 
ATOM     25  C   UNL     1      35.627 -18.340 -21.312  0.00  0.00    -0.003 C 
ATOM     26  C   UNL     1      34.254 -18.259 -21.508  0.00  0.00    +0.002 C 
ENDBRANCH  17  20
ENDBRANCH   1  17
BRANCH   1  27
ATOM     27  C   UNL     1      31.828 -22.547 -17.004  0.00  0.00    +0.030 C 
BRANCH  27  28
ATOM     28  C   UNL     1      30.623 -23.236 -16.343  0.00  0.00    +0.029 C 
BRANCH  28  29
ATOM     29  C   UNL     1      30.372 -22.727 -14.927  0.00  0.00    +0.129 C 
BRANCH  29  30
ATOM     30  N   UNL     1      31.454 -23.162 -14.042  0.00  0.00    -0.240 NA
BRANCH  30  33
ATOM     31  N   UNL     1      32.474 -25.320 -13.769  0.00  0.00    -0.370 N 
ATOM     32  N   UNL     1      30.316 -24.963 -13.130  0.00  0.00    -0.370 N 
ATOM     33  C   UNL     1      31.446 -24.407 -13.680  0.00  0.00    +0.189 C 
ATOM     34  H   UNL     1      33.342 -25.049 -14.146  0.00  0.00    +0.159 HD
ATOM     35  H   UNL     1      32.341 -26.244 -13.456  0.00  0.00    +0.159 HD
ATOM     36  H   UNL     1      29.507 -24.415 -13.009  0.00  0.00    +0.159 HD
ATOM     37  H   UNL     1      30.316 -25.909 -12.856  0.00  0.00    +0.159 HD
ENDBRANCH  30  33
ENDBRANCH  29  30
ENDBRANCH  28  29
ENDBRANCH  27  28
ENDBRANCH   1  27
TORSDOF 10
ENDMDL
MODEL 2
REMARK VINA RESULT:      -9.5      1.670      2.035
REMARK  Name = 5287596
REMARK  10 active torsions:
REMARK  status: ('A' for Active; 'I' for Inactive)
REMARK    1  A    between atoms: C_1  and  N_3
REMARK    2  A    between atoms: C_1  and  C_17
REMARK    3  A    between atoms: C_1  and  C_27
REMARK    4  A    between atoms: C_4  and  C_8
REMARK    5  A    between atoms: C_10  and  O_14
REMARK    6  A    between atoms: C_17  and  C_20
REMARK    7  A    between atoms: C_27  and  C_28
REMARK    8  A    between atoms: C_28  and  C_29
REMARK    9  A    between atoms: C_29  and  N_30
REMARK   10  A    between atoms: N_30  and  C_33
REMARK                            x       y       z     vdW  Elec       q    Type
REMARK                         _______ _______ _______ _____ _____    ______ ____
ROOT
ATOM      1  C   UNL     1      33.103 -23.539 -17.225  0.00  0.00    +0.137 C 
ENDROOT
BRANCH   1   3
ATOM      2  O   UNL     1      34.999 -25.112 -15.688  0.00  0.00    -0.273 OA
ATOM      3  N   UNL     1      34.152 -23.050 -16.359  0.00  0.00    -0.298 N 
ATOM      4  C   UNL     1      35.011 -23.883 -15.664  0.00  0.00    +0.241 C 
ATOM      5  H   UNL     1      34.260 -22.077 -16.259  0.00  0.00    +0.150 HD
BRANCH   4   8
ATOM      6  O   UNL     1      34.458 -23.507 -12.483  0.00  0.00    -0.275 OA
ATOM      7  N   UNL     1      36.369 -23.944 -13.714  0.00  0.00    -0.270 N 
ATOM      8  C   UNL     1      36.019 -23.118 -14.861  0.00  0.00    +0.154 C 
ATOM      9  C   UNL     1      37.327 -22.936 -15.617  0.00  0.00    +0.060 C 
ATOM     10  C   UNL     1      38.103 -24.215 -15.304  0.00  0.00    +0.132 C 
ATOM     11  C   UNL     1      37.694 -24.537 -13.872  0.00  0.00    +0.123 C 
ATOM     12  C   UNL     1      35.573 -24.023 -12.582  0.00  0.00    +0.227 C 
ATOM     13  C   UNL     1      36.154 -24.806 -11.431  0.00  0.00    +0.095 C 
BRANCH  10  14
ATOM     14  O   UNL     1      39.495 -23.991 -15.416  0.00  0.00    -0.383 OA
ATOM     15  H   UNL     1      39.691 -23.605 -16.283  0.00  0.00    +0.210 HD
ENDBRANCH  10  14
ENDBRANCH   4   8
ENDBRANCH   1   3
BRANCH   1  17
ATOM     16  O   UNL     1      33.687 -24.617 -19.278  0.00  0.00    -0.286 OA
ATOM     17  C   UNL     1      33.636 -23.548 -18.662  0.00  0.00    +0.226 C 
BRANCH  17  20
ATOM     18  S   UNL     1      35.700 -21.844 -19.368  0.00  0.00    -0.069 S 
ATOM     19  N   UNL     1      33.193 -21.422 -19.798  0.00  0.00    -0.396 NA
ATOM     20  C   UNL     1      34.047 -22.276 -19.284  0.00  0.00    +0.193 C 
ATOM     21  C   UNL     1      35.267 -20.376 -20.162  0.00  0.00    +0.128 C 
ATOM     22  C   UNL     1      33.877 -20.328 -20.306  0.00  0.00    +0.124 C 
ATOM     23  C   UNL     1      36.097 -19.343 -20.626  0.00  0.00    -0.008 C 
ATOM     24  C   UNL     1      33.300 -19.203 -20.936  0.00  0.00    +0.029 C 
ATOM     25  C   UNL     1      35.500 -18.242 -21.246  0.00  0.00    -0.003 C 
ATOM     26  C   UNL     1      34.121 -18.172 -21.400  0.00  0.00    +0.002 C 
ENDBRANCH  17  20
ENDBRANCH   1  17
BRANCH   1  27
ATOM     27  C   UNL     1      31.813 -22.724 -17.070  0.00  0.00    +0.030 C 
BRANCH  27  28
ATOM     28  C   UNL     1      31.135 -22.862 -15.697  0.00  0.00    +0.029 C 
BRANCH  28  29
ATOM     29  C   UNL     1      29.651 -23.194 -15.817  0.00  0.00    +0.129 C 
BRANCH  29  30
ATOM     30  N   UNL     1      29.059 -22.436 -16.921  0.00  0.00    -0.240 NA
BRANCH  30  33
ATOM     31  N   UNL     1      26.940 -22.329 -18.047  0.00  0.00    -0.370 N 
ATOM     32  N   UNL     1      27.053 -22.277 -15.771  0.00  0.00    -0.370 N 
ATOM     33  C   UNL     1      27.765 -22.353 -16.944  0.00  0.00    +0.189 C 
ATOM     34  H   UNL     1      27.324 -22.377 -18.951  0.00  0.00    +0.159 HD
ATOM     35  H   UNL     1      25.964 -22.263 -17.930  0.00  0.00    +0.159 HD
ATOM     36  H   UNL     1      27.526 -22.285 -14.907  0.00  0.00    +0.159 HD
ATOM     37  H   UNL     1      26.071 -22.213 -15.795  0.00  0.00    +0.159 HD
ENDBRANCH  30  33
ENDBRANCH  29  30
ENDBRANCH  28  29
ENDBRANCH  27  28
ENDBRANCH   1  27
TORSDOF 10
ENDMDL
MODEL 3
REMARK VINA RESULT:      -9.2      2.131      5.451
REMARK  Name = 5287596
REMARK  10 active torsions:
REMARK  status: ('A' for Active; 'I' for Inactive)
REMARK    1  A    between atoms: C_1  and  N_3
REMARK    2  A    between atoms: C_1  and  C_17
REMARK    3  A    between atoms: C_1  and  C_27
REMARK    4  A    between atoms: C_4  and  C_8
REMARK    5  A    between atoms: C_10  and  O_14
REMARK    6  A    between atoms: C_17  and  C_20
REMARK    7  A    between atoms: C_27  and  C_28
REMARK    8  A    between atoms: C_28  and  C_29
REMARK    9  A    between atoms: C_29  and  N_30
REMARK   10  A    between atoms: N_30  and  C_33
REMARK                            x       y       z     vdW  Elec       q    Type
REMARK                         _______ _______ _______ _____ _____    ______ ____
ROOT
ATOM      1  C   UNL     1      33.627 -23.046 -16.789  0.00  0.00    +0.137 C 
ENDROOT
BRANCH   1   3
ATOM      2  O   UNL     1      30.933 -22.082 -17.281  0.00  0.00    -0.273 OA
ATOM      3  N   UNL     1      32.385 -23.697 -16.441  0.00  0.00    -0.298 N 
ATOM      4  C   UNL     1      31.142 -23.155 -16.718  0.00  0.00    +0.241 C 
ATOM      5  H   UNL     1      32.424 -24.567 -15.982  0.00  0.00    +0.150 HD
BRANCH   4   8
ATOM      6  O   UNL     1      31.644 -25.058 -14.132  0.00  0.00    -0.275 OA
ATOM      7  N   UNL     1      29.829 -23.812 -14.849  0.00  0.00    -0.270 N 
ATOM      8  C   UNL     1      30.021 -24.045 -16.273  0.00  0.00    +0.154 C 
ATOM      9  C   UNL     1      28.696 -23.651 -16.909  0.00  0.00    +0.060 C 
ATOM     10  C   UNL     1      28.158 -22.568 -15.975  0.00  0.00    +0.132 C 
ATOM     11  C   UNL     1      28.626 -23.021 -14.598  0.00  0.00    +0.123 C 
ATOM     12  C   UNL     1      30.635 -24.395 -13.883  0.00  0.00    +0.227 C 
ATOM     13  C   UNL     1      30.208 -24.165 -12.455  0.00  0.00    +0.095 C 
BRANCH  10  14
ATOM     14  O   UNL     1      26.747 -22.501 -16.054  0.00  0.00    -0.383 OA
ATOM     15  H   UNL     1      26.361 -22.810 -15.220  0.00  0.00    +0.210 HD
ENDBRANCH  10  14
ENDBRANCH   4   8
ENDBRANCH   1   3
BRANCH   1  17
ATOM     16  O   UNL     1      33.665 -24.329 -18.806  0.00  0.00    -0.286 OA
ATOM     17  C   UNL     1      33.851 -23.220 -18.296  0.00  0.00    +0.226 C 
BRANCH  17  20
ATOM     18  S   UNL     1      35.909 -21.661 -19.293  0.00  0.00    -0.069 S 
ATOM     19  N   UNL     1      33.394 -21.268 -19.705  0.00  0.00    -0.396 NA
ATOM     20  C   UNL     1      34.255 -22.054 -19.102  0.00  0.00    +0.193 C 
ATOM     21  C   UNL     1      35.466 -20.313 -20.273  0.00  0.00    +0.128 C 
ATOM     22  C   UNL     1      34.073 -20.266 -20.381  0.00  0.00    +0.124 C 
ATOM     23  C   UNL     1      36.291 -19.367 -20.901  0.00  0.00    -0.008 C 
ATOM     24  C   UNL     1      33.487 -19.233 -21.146  0.00  0.00    +0.029 C 
ATOM     25  C   UNL     1      35.686 -18.355 -21.652  0.00  0.00    -0.003 C 
ATOM     26  C   UNL     1      34.303 -18.288 -21.774  0.00  0.00    +0.002 C 
ENDBRANCH  17  20
ENDBRANCH   1  17
BRANCH   1  27
ATOM     27  C   UNL     1      34.798 -23.570 -15.946  0.00  0.00    +0.030 C 
BRANCH  27  28
ATOM     28  C   UNL     1      35.854 -22.510 -15.598  0.00  0.00    +0.029 C 
BRANCH  28  29
ATOM     29  C   UNL     1      37.276 -23.009 -15.841  0.00  0.00    +0.129 C 
BRANCH  29  30
ATOM     30  N   UNL     1      37.873 -23.443 -14.576  0.00  0.00    -0.240 NA
BRANCH  30  33
ATOM     31  N   UNL     1      37.797 -25.729 -15.308  0.00  0.00    -0.370 N 
ATOM     32  N   UNL     1      38.963 -25.143 -13.440  0.00  0.00    -0.370 N 
ATOM     33  C   UNL     1      38.174 -24.700 -14.475  0.00  0.00    +0.189 C 
ATOM     34  H   UNL     1      37.229 -25.547 -16.091  0.00  0.00    +0.159 HD
ATOM     35  H   UNL     1      38.095 -26.649 -15.121  0.00  0.00    +0.159 HD
ATOM     36  H   UNL     1      39.302 -24.505 -12.771  0.00  0.00    +0.159 HD
ATOM     37  H   UNL     1      39.188 -26.099 -13.368  0.00  0.00    +0.159 HD
ENDBRANCH  30  33
ENDBRANCH  29  30
ENDBRANCH  28  29
ENDBRANCH  27  28
ENDBRANCH   1  27
TORSDOF 10
ENDMDL
MODEL 4
REMARK VINA RESULT:      -8.8      1.946      3.114
REMARK  Name = 5287596
REMARK  10 active torsions:
REMARK  status: ('A' for Active; 'I' for Inactive)
REMARK    1  A    between atoms: C_1  and  N_3
REMARK    2  A    between atoms: C_1  and  C_17
REMARK    3  A    between atoms: C_1  and  C_27
REMARK    4  A    between atoms: C_4  and  C_8
REMARK    5  A    between atoms: C_10  and  O_14
REMARK    6  A    between atoms: C_17  and  C_20
REMARK    7  A    between atoms: C_27  and  C_28
REMARK    8  A    between atoms: C_28  and  C_29
REMARK    9  A    between atoms: C_29  and  N_30
REMARK   10  A    between atoms: N_30  and  C_33
REMARK                            x       y       z     vdW  Elec       q    Type
REMARK                         _______ _______ _______ _____ _____    ______ ____
ROOT
ATOM      1  C   UNL     1      35.424 -23.486 -15.952  0.00  0.00    +0.137 C 
ENDROOT
BRANCH   1   3
ATOM      2  O   UNL     1      35.873 -26.304 -15.417  0.00  0.00    -0.273 OA
ATOM      3  N   UNL     1      36.049 -24.069 -14.787  0.00  0.00    -0.298 N 
ATOM      4  C   UNL     1      36.219 -25.433 -14.622  0.00  0.00    +0.241 C 
ATOM      5  H   UNL     1      36.369 -23.468 -14.077  0.00  0.00    +0.150 HD
BRANCH   4   8
ATOM      6  O   UNL     1      39.051 -27.020 -14.796  0.00  0.00    -0.275 OA
ATOM      7  N   UNL     1      38.288 -25.290 -13.460  0.00  0.00    -0.270 N 
ATOM      8  C   UNL     1      36.918 -25.767 -13.338  0.00  0.00    +0.154 C 
ATOM      9  C   UNL     1      36.344 -24.992 -12.161  0.00  0.00    +0.060 C 
ATOM     10  C   UNL     1      37.112 -23.672 -12.193  0.00  0.00    +0.132 C 
ATOM     11  C   UNL     1      38.500 -24.079 -12.671  0.00  0.00    +0.123 C 
ATOM     12  C   UNL     1      39.266 -25.998 -14.140  0.00  0.00    +0.227 C 
ATOM     13  C   UNL     1      40.662 -25.436 -14.045  0.00  0.00    +0.095 C 
BRANCH  10  14
ATOM     14  O   UNL     1      37.151 -23.089 -10.905  0.00  0.00    -0.383 OA
ATOM     15  H   UNL     1      38.049 -23.155 -10.546  0.00  0.00    +0.210 HD
ENDBRANCH  10  14
ENDBRANCH   4   8
ENDBRANCH   1   3
BRANCH   1  17
ATOM     16  O   UNL     1      37.573 -22.455 -16.141  0.00  0.00    -0.286 OA
ATOM     17  C   UNL     1      36.443 -22.561 -16.628  0.00  0.00    +0.226 C 
BRANCH  17  20
ATOM     18  S   UNL     1      34.541 -22.134 -18.594  0.00  0.00    -0.069 S 
ATOM     19  N   UNL     1      36.835 -20.964 -18.445  0.00  0.00    -0.396 NA
ATOM     20  C   UNL     1      36.058 -21.844 -17.858  0.00  0.00    +0.193 C 
ATOM     21  C   UNL     1      34.929 -20.987 -19.822  0.00  0.00    +0.128 C 
ATOM     22  C   UNL     1      36.201 -20.463 -19.572  0.00  0.00    +0.124 C 
ATOM     23  C   UNL     1      34.162 -20.579 -20.925  0.00  0.00    -0.008 C 
ATOM     24  C   UNL     1      36.722 -19.497 -20.461  0.00  0.00    +0.029 C 
ATOM     25  C   UNL     1      34.701 -19.622 -21.788  0.00  0.00    -0.003 C 
ATOM     26  C   UNL     1      35.964 -19.087 -21.561  0.00  0.00    +0.002 C 
ENDBRANCH  17  20
ENDBRANCH   1  17
BRANCH   1  27
ATOM     27  C   UNL     1      34.114 -22.772 -15.595  0.00  0.00    +0.030 C 
BRANCH  27  28
ATOM     28  C   UNL     1      32.855 -23.641 -15.747  0.00  0.00    +0.029 C 
BRANCH  28  29
ATOM     29  C   UNL     1      31.675 -23.094 -14.950  0.00  0.00    +0.129 C 
BRANCH  29  30
ATOM     30  N   UNL     1      30.469 -23.865 -15.255  0.00  0.00    -0.240 NA
BRANCH  30  33
ATOM     31  N   UNL     1      30.650 -24.980 -13.135  0.00  0.00    -0.370 N 
ATOM     32  N   UNL     1      28.865 -25.359 -14.501  0.00  0.00    -0.370 N 
ATOM     33  C   UNL     1      30.048 -24.678 -14.336  0.00  0.00    +0.189 C 
ATOM     34  H   UNL     1      31.506 -24.558 -12.893  0.00  0.00    +0.159 HD
ATOM     35  H   UNL     1      30.225 -25.619 -12.518  0.00  0.00    +0.159 HD
ATOM     36  H   UNL     1      28.334 -25.232 -15.320  0.00  0.00    +0.159 HD
ATOM     37  H   UNL     1      28.551 -25.976 -13.800  0.00  0.00    +0.159 HD
ENDBRANCH  30  33
ENDBRANCH  29  30
ENDBRANCH  28  29
ENDBRANCH  27  28
ENDBRANCH   1  27
TORSDOF 10
ENDMDL
MODEL 5
REMARK VINA RESULT:      -8.4      2.239      6.015
REMARK  Name = 5287596
REMARK  10 active torsions:
REMARK  status: ('A' for Active; 'I' for Inactive)
REMARK    1  A    between atoms: C_1  and  N_3
REMARK    2  A    between atoms: C_1  and  C_17
REMARK    3  A    between atoms: C_1  and  C_27
REMARK    4  A    between atoms: C_4  and  C_8
REMARK    5  A    between atoms: C_10  and  O_14
REMARK    6  A    between atoms: C_17  and  C_20
REMARK    7  A    between atoms: C_27  and  C_28
REMARK    8  A    between atoms: C_28  and  C_29
REMARK    9  A    between atoms: C_29  and  N_30
REMARK   10  A    between atoms: N_30  and  C_33
REMARK                            x       y       z     vdW  Elec       q    Type
REMARK                         _______ _______ _______ _____ _____    ______ ____
ROOT
ATOM      1  C   UNL     1      35.345 -22.426 -16.928  0.00  0.00    +0.137 C 
ENDROOT
BRANCH   1   3
ATOM      2  O   UNL     1      37.566 -22.410 -15.058  0.00  0.00    -0.273 OA
ATOM      3  N   UNL     1      35.564 -23.324 -15.817  0.00  0.00    -0.298 N 
ATOM      4  C   UNL     1      36.660 -23.236 -14.976  0.00  0.00    +0.241 C 
ATOM      5  H   UNL     1      34.902 -24.033 -15.650  0.00  0.00    +0.150 HD
BRANCH   4   8
ATOM      6  O   UNL     1      38.408 -25.943 -15.406  0.00  0.00    -0.275 OA
ATOM      7  N   UNL     1      38.013 -24.592 -13.569  0.00  0.00    -0.270 N 
ATOM      8  C   UNL     1      36.630 -24.272 -13.893  0.00  0.00    +0.154 C 
ATOM      9  C   UNL     1      36.049 -23.722 -12.598  0.00  0.00    +0.060 C 
ATOM     10  C   UNL     1      37.254 -23.086 -11.906  0.00  0.00    +0.132 C 
ATOM     11  C   UNL     1      38.410 -23.999 -12.294  0.00  0.00    +0.123 C 
ATOM     12  C   UNL     1      38.777 -25.460 -14.334  0.00  0.00    +0.227 C 
ATOM     13  C   UNL     1      40.137 -25.794 -13.776  0.00  0.00    +0.095 C 
BRANCH  10  14
ATOM     14  O   UNL     1      37.059 -23.049 -10.506  0.00  0.00    -0.383 OA
ATOM     15  H   UNL     1      37.736 -23.591 -10.071  0.00  0.00    +0.210 HD
ENDBRANCH  10  14
ENDBRANCH   4   8
ENDBRANCH   1   3
BRANCH   1  17
ATOM     16  O   UNL     1      34.238 -23.176 -18.909  0.00  0.00    -0.286 OA
ATOM     17  C   UNL     1      34.121 -22.920 -17.707  0.00  0.00    +0.226 C 
BRANCH  17  20
ATOM     18  S   UNL     1      32.803 -23.861 -15.462  0.00  0.00    -0.069 S 
ATOM     19  N   UNL     1      31.689 -22.711 -17.484  0.00  0.00    -0.396 NA
ATOM     20  C   UNL     1      32.842 -23.105 -16.996  0.00  0.00    +0.193 C 
ATOM     21  C   UNL     1      31.091 -23.659 -15.417  0.00  0.00    +0.128 C 
ATOM     22  C   UNL     1      30.676 -23.021 -16.590  0.00  0.00    +0.124 C 
ATOM     23  C   UNL     1      30.182 -24.036 -14.415  0.00  0.00    -0.008 C 
ATOM     24  C   UNL     1      29.300 -22.753 -16.765  0.00  0.00    +0.029 C 
ATOM     25  C   UNL     1      28.827 -23.758 -14.614  0.00  0.00    -0.003 C 
ATOM     26  C   UNL     1      28.390 -23.125 -15.771  0.00  0.00    +0.002 C 
ENDBRANCH  17  20
ENDBRANCH   1  17
BRANCH   1  27
ATOM     27  C   UNL     1      36.597 -22.291 -17.804  0.00  0.00    +0.030 C 
BRANCH  27  28
ATOM     28  C   UNL     1      36.762 -20.915 -18.468  0.00  0.00    +0.029 C 
BRANCH  28  29
ATOM     29  C   UNL     1      36.451 -20.952 -19.961  0.00  0.00    +0.129 C 
BRANCH  29  30
ATOM     30  N   UNL     1      35.737 -19.735 -20.351  0.00  0.00    -0.240 NA
BRANCH  30  33
ATOM     31  N   UNL     1      33.453 -20.463 -20.203  0.00  0.00    -0.370 N 
ATOM     32  N   UNL     1      34.232 -19.446 -22.089  0.00  0.00    -0.370 N 
ATOM     33  C   UNL     1      34.539 -19.887 -20.823  0.00  0.00    +0.189 C 
ATOM     34  H   UNL     1      33.539 -20.821 -19.290  0.00  0.00    +0.159 HD
ATOM     35  H   UNL     1      32.589 -20.518 -20.674  0.00  0.00    +0.159 HD
ATOM     36  H   UNL     1      34.922 -19.013 -22.640  0.00  0.00    +0.159 HD
ATOM     37  H   UNL     1      33.320 -19.564 -22.443  0.00  0.00    +0.159 HD
ENDBRANCH  30  33
ENDBRANCH  29  30
ENDBRANCH  28  29
ENDBRANCH  27  28
ENDBRANCH   1  27
TORSDOF 10
ENDMDL
MODEL 6
REMARK VINA RESULT:      -8.3      2.031      2.778
REMARK  Name = 5287596
REMARK  10 active torsions:
REMARK  status: ('A' for Active; 'I' for Inactive)
REMARK    1  A    between atoms: C_1  and  N_3
REMARK    2  A    between atoms: C_1  and  C_17
REMARK    3  A    between atoms: C_1  and  C_27
REMARK    4  A    between atoms: C_4  and  C_8
REMARK    5  A    between atoms: C_10  and  O_14
REMARK    6  A    between atoms: C_17  and  C_20
REMARK    7  A    between atoms: C_27  and  C_28
REMARK    8  A    between atoms: C_28  and  C_29
REMARK    9  A    between atoms: C_29  and  N_30
REMARK   10  A    between atoms: N_30  and  C_33
REMARK                            x       y       z     vdW  Elec       q    Type
REMARK                         _______ _______ _______ _____ _____    ______ ____
ROOT
ATOM      1  C   UNL     1      33.294 -23.762 -17.128  0.00  0.00    +0.137 C 
ENDROOT
BRANCH   1   3
ATOM      2  O   UNL     1      34.715 -25.030 -14.937  0.00  0.00    -0.273 OA
ATOM      3  N   UNL     1      34.385 -23.214 -16.355  0.00  0.00    -0.298 N 
ATOM      4  C   UNL     1      35.002 -23.899 -15.323  0.00  0.00    +0.241 C 
ATOM      5  H   UNL     1      34.704 -22.309 -16.572  0.00  0.00    +0.150 HD
BRANCH   4   8
ATOM      6  O   UNL     1      37.286 -25.528 -13.681  0.00  0.00    -0.275 OA
ATOM      7  N   UNL     1      37.365 -23.729 -15.136  0.00  0.00    -0.270 N 
ATOM      8  C   UNL     1      36.118 -23.113 -14.706  0.00  0.00    +0.154 C 
ATOM      9  C   UNL     1      36.183 -21.694 -15.251  0.00  0.00    +0.060 C 
ATOM     10  C   UNL     1      37.029 -21.834 -16.516  0.00  0.00    +0.132 C 
ATOM     11  C   UNL     1      38.033 -22.920 -16.153  0.00  0.00    +0.123 C 
ATOM     12  C   UNL     1      37.879 -24.869 -14.538  0.00  0.00    +0.227 C 
ATOM     13  C   UNL     1      39.249 -25.290 -15.008  0.00  0.00    +0.095 C 
BRANCH  10  14
ATOM     14  O   UNL     1      37.667 -20.610 -16.824  0.00  0.00    -0.383 OA
ATOM     15  H   UNL     1      37.472 -20.365 -17.741  0.00  0.00    +0.210 HD
ENDBRANCH  10  14
ENDBRANCH   4   8
ENDBRANCH   1   3
BRANCH   1  17
ATOM     16  O   UNL     1      33.624 -24.803 -19.255  0.00  0.00    -0.286 OA
ATOM     17  C   UNL     1      33.705 -23.756 -18.605  0.00  0.00    +0.226 C 
BRANCH  17  20
ATOM     18  S   UNL     1      33.024 -21.359 -19.810  0.00  0.00    -0.069 S 
ATOM     19  N   UNL     1      35.426 -22.177 -19.347  0.00  0.00    -0.396 NA
ATOM     20  C   UNL     1      34.159 -22.495 -19.219  0.00  0.00    +0.193 C 
ATOM     21  C   UNL     1      34.321 -20.328 -20.291  0.00  0.00    +0.128 C 
ATOM     22  C   UNL     1      35.535 -20.938 -19.959  0.00  0.00    +0.124 C 
ATOM     23  C   UNL     1      34.268 -19.072 -20.915  0.00  0.00    -0.008 C 
ATOM     24  C   UNL     1      36.737 -20.263 -20.264  0.00  0.00    +0.029 C 
ATOM     25  C   UNL     1      35.472 -18.426 -21.206  0.00  0.00    -0.003 C 
ATOM     26  C   UNL     1      36.691 -19.011 -20.885  0.00  0.00    +0.002 C 
ENDBRANCH  17  20
ENDBRANCH   1  17
BRANCH   1  27
ATOM     27  C   UNL     1      31.981 -23.011 -16.869  0.00  0.00    +0.030 C 
BRANCH  27  28
ATOM     28  C   UNL     1      31.004 -23.743 -15.936  0.00  0.00    +0.029 C 
BRANCH  28  29
ATOM     29  C   UNL     1      29.940 -22.810 -15.366  0.00  0.00    +0.129 C 
BRANCH  29  30
ATOM     30  N   UNL     1      28.619 -23.430 -15.484  0.00  0.00    -0.240 NA
BRANCH  30  33
ATOM     31  N   UNL     1      26.649 -22.092 -15.802  0.00  0.00    -0.370 N 
ATOM     32  N   UNL     1      27.861 -22.823 -17.589  0.00  0.00    -0.370 N 
ATOM     33  C   UNL     1      27.748 -22.811 -16.219  0.00  0.00    +0.189 C 
ATOM     34  H   UNL     1      26.453 -22.005 -14.841  0.00  0.00    +0.159 HD
ATOM     35  H   UNL     1      26.060 -21.665 -16.465  0.00  0.00    +0.159 HD
ATOM     36  H   UNL     1      28.607 -23.302 -18.017  0.00  0.00    +0.159 HD
ATOM     37  H   UNL     1      27.196 -22.351 -18.141  0.00  0.00    +0.159 HD
ENDBRANCH  30  33
ENDBRANCH  29  30
ENDBRANCH  28  29
ENDBRANCH  27  28
ENDBRANCH   1  27
TORSDOF 10
ENDMDL
MODEL 7
REMARK VINA RESULT:      -8.3      2.356      7.398
REMARK  Name = 5287596
REMARK  10 active torsions:
REMARK  status: ('A' for Active; 'I' for Inactive)
REMARK    1  A    between atoms: C_1  and  N_3
REMARK    2  A    between atoms: C_1  and  C_17
REMARK    3  A    between atoms: C_1  and  C_27
REMARK    4  A    between atoms: C_4  and  C_8
REMARK    5  A    between atoms: C_10  and  O_14
REMARK    6  A    between atoms: C_17  and  C_20
REMARK    7  A    between atoms: C_27  and  C_28
REMARK    8  A    between atoms: C_28  and  C_29
REMARK    9  A    between atoms: C_29  and  N_30
REMARK   10  A    between atoms: N_30  and  C_33
REMARK                            x       y       z     vdW  Elec       q    Type
REMARK                         _______ _______ _______ _____ _____    ______ ____
ROOT
ATOM      1  C   UNL     1      34.109 -23.150 -17.610  0.00  0.00    +0.137 C 
ENDROOT
BRANCH   1   3
ATOM      2  O   UNL     1      32.937 -24.710 -15.460  0.00  0.00    -0.273 OA
ATOM      3  N   UNL     1      33.055 -22.748 -16.707  0.00  0.00    -0.298 N 
ATOM      4  C   UNL     1      32.560 -23.567 -15.707  0.00  0.00    +0.241 C 
ATOM      5  H   UNL     1      32.670 -21.847 -16.808  0.00  0.00    +0.150 HD
BRANCH   4   8
ATOM      6  O   UNL     1      30.096 -22.171 -17.303  0.00  0.00    -0.275 OA
ATOM      7  N   UNL     1      30.213 -23.422 -15.359  0.00  0.00    -0.270 N 
ATOM      8  C   UNL     1      31.490 -22.896 -14.900  0.00  0.00    +0.154 C 
ATOM      9  C   UNL     1      31.560 -23.284 -13.430  0.00  0.00    +0.060 C 
ATOM     10  C   UNL     1      30.749 -24.577 -13.362  0.00  0.00    +0.132 C 
ATOM     11  C   UNL     1      29.648 -24.360 -14.392  0.00  0.00    +0.123 C 
ATOM     12  C   UNL     1      29.588 -22.966 -16.509  0.00  0.00    +0.227 C 
ATOM     13  C   UNL     1      28.205 -23.512 -16.759  0.00  0.00    +0.095 C 
BRANCH  10  14
ATOM     14  O   UNL     1      30.223 -24.765 -12.062  0.00  0.00    -0.383 OA
ATOM     15  H   UNL     1      29.717 -23.980 -11.802  0.00  0.00    +0.210 HD
ENDBRANCH  10  14
ENDBRANCH   4   8
ENDBRANCH   1   3
BRANCH   1  17
ATOM     16  O   UNL     1      35.975 -21.656 -17.595  0.00  0.00    -0.286 OA
ATOM     17  C   UNL     1      35.439 -22.628 -17.055  0.00  0.00    +0.226 C 
BRANCH  17  20
ATOM     18  S   UNL     1      36.736 -22.348 -14.626  0.00  0.00    -0.069 S 
ATOM     19  N   UNL     1      36.051 -24.585 -15.711  0.00  0.00    -0.396 NA
ATOM     20  C   UNL     1      36.031 -23.282 -15.873  0.00  0.00    +0.193 C 
ATOM     21  C   UNL     1      37.116 -23.796 -13.769  0.00  0.00    +0.128 C 
ATOM     22  C   UNL     1      36.669 -24.895 -14.510  0.00  0.00    +0.124 C 
ATOM     23  C   UNL     1      37.761 -23.948 -12.532  0.00  0.00    -0.008 C 
ATOM     24  C   UNL     1      36.878 -26.191 -13.991  0.00  0.00    +0.029 C 
ATOM     25  C   UNL     1      37.955 -25.242 -12.041  0.00  0.00    -0.003 C 
ATOM     26  C   UNL     1      37.520 -26.349 -12.759  0.00  0.00    +0.002 C 
ENDBRANCH  17  20
ENDBRANCH   1  17
BRANCH   1  27
ATOM     27  C   UNL     1      33.835 -22.681 -19.046  0.00  0.00    +0.030 C 
BRANCH  27  28
ATOM     28  C   UNL     1      32.852 -21.505 -19.153  0.00  0.00    +0.029 C 
BRANCH  28  29
ATOM     29  C   UNL     1      33.215 -20.551 -20.288  0.00  0.00    +0.129 C 
BRANCH  29  30
ATOM     30  N   UNL     1      34.669 -20.503 -20.452  0.00  0.00    -0.240 NA
BRANCH  30  33
ATOM     31  N   UNL     1      34.894 -19.365 -22.555  0.00  0.00    -0.370 N 
ATOM     32  N   UNL     1      35.992 -18.617 -20.702  0.00  0.00    -0.370 N 
ATOM     33  C   UNL     1      35.139 -19.566 -21.214  0.00  0.00    +0.189 C 
ATOM     34  H   UNL     1      34.298 -19.976 -23.044  0.00  0.00    +0.159 HD
ATOM     35  H   UNL     1      35.316 -18.609 -23.024  0.00  0.00    +0.159 HD
ATOM     36  H   UNL     1      36.248 -18.647 -19.752  0.00  0.00    +0.159 HD
ATOM     37  H   UNL     1      36.346 -17.907 -21.287  0.00  0.00    +0.159 HD
ENDBRANCH  30  33
ENDBRANCH  29  30
ENDBRANCH  28  29
ENDBRANCH  27  28
ENDBRANCH   1  27
TORSDOF 10
ENDMDL
MODEL 8
REMARK VINA RESULT:      -8.2      8.112     12.758
REMARK  Name = 5287596
REMARK  10 active torsions:
REMARK  status: ('A' for Active; 'I' for Inactive)
REMARK    1  A    between atoms: C_1  and  N_3
REMARK    2  A    between atoms: C_1  and  C_17
REMARK    3  A    between atoms: C_1  and  C_27
REMARK    4  A    between atoms: C_4  and  C_8
REMARK    5  A    between atoms: C_10  and  O_14
REMARK    6  A    between atoms: C_17  and  C_20
REMARK    7  A    between atoms: C_27  and  C_28
REMARK    8  A    between atoms: C_28  and  C_29
REMARK    9  A    between atoms: C_29  and  N_30
REMARK   10  A    between atoms: N_30  and  C_33
REMARK                            x       y       z     vdW  Elec       q    Type
REMARK                         _______ _______ _______ _____ _____    ______ ____
ROOT
ATOM      1  C   UNL     1      32.379 -13.843 -22.825  0.00  0.00    +0.137 C 
ENDROOT
BRANCH   1   3
ATOM      2  O   UNL     1      33.545 -11.288 -23.559  0.00  0.00    -0.273 OA
ATOM      3  N   UNL     1      31.804 -12.530 -22.642  0.00  0.00    -0.298 N 
ATOM      4  C   UNL     1      32.441 -11.363 -23.027  0.00  0.00    +0.241 C 
ATOM      5  H   UNL     1      30.916 -12.463 -22.222  0.00  0.00    +0.150 HD
BRANCH   4   8
ATOM      6  O   UNL     1      30.545 -11.386 -20.387  0.00  0.00    -0.275 OA
ATOM      7  N   UNL     1      31.872  -9.762 -21.364  0.00  0.00    -0.270 N 
ATOM      8  C   UNL     1      31.614 -10.145 -22.745  0.00  0.00    +0.154 C 
ATOM      9  C   UNL     1      32.066  -8.948 -23.568  0.00  0.00    +0.060 C 
ATOM     10  C   UNL     1      33.186  -8.337 -22.726  0.00  0.00    +0.132 C 
ATOM     11  C   UNL     1      32.726  -8.578 -21.294  0.00  0.00    +0.123 C 
ATOM     12  C   UNL     1      31.261 -10.387 -20.289  0.00  0.00    +0.227 C 
ATOM     13  C   UNL     1      31.528  -9.771 -18.939  0.00  0.00    +0.095 C 
BRANCH  10  14
ATOM     14  O   UNL     1      33.325  -6.959 -23.009  0.00  0.00    -0.383 OA
ATOM     15  H   UNL     1      32.471  -6.601 -23.298  0.00  0.00    +0.210 HD
ENDBRANCH  10  14
ENDBRANCH   4   8
ENDBRANCH   1   3
BRANCH   1  17
ATOM     16  O   UNL     1      33.106 -13.464 -20.580  0.00  0.00    -0.286 OA
ATOM     17  C   UNL     1      32.987 -14.289 -21.491  0.00  0.00    +0.226 C 
BRANCH  17  20
ATOM     18  S   UNL     1      32.216 -16.899 -20.986  0.00  0.00    -0.069 S 
ATOM     19  N   UNL     1      34.633 -16.103 -21.406  0.00  0.00    -0.396 NA
ATOM     20  C   UNL     1      33.387 -15.697 -21.318  0.00  0.00    +0.193 C 
ATOM     21  C   UNL     1      33.462 -18.091 -20.950  0.00  0.00    +0.128 C 
ATOM     22  C   UNL     1      34.692 -17.473 -21.199  0.00  0.00    +0.124 C 
ATOM     23  C   UNL     1      33.359 -19.472 -20.721  0.00  0.00    -0.008 C 
ATOM     24  C   UNL     1      35.858 -18.268 -21.216  0.00  0.00    +0.029 C 
ATOM     25  C   UNL     1      34.529 -20.236 -20.744  0.00  0.00    -0.003 C 
ATOM     26  C   UNL     1      35.762 -19.644 -20.989  0.00  0.00    +0.002 C 
ENDBRANCH  17  20
ENDBRANCH   1  17
BRANCH   1  27
ATOM     27  C   UNL     1      33.390 -13.863 -23.980  0.00  0.00    +0.030 C 
BRANCH  27  28
ATOM     28  C   UNL     1      32.835 -14.421 -25.300  0.00  0.00    +0.029 C 
BRANCH  28  29
ATOM     29  C   UNL     1      33.847 -15.303 -26.025  0.00  0.00    +0.129 C 
BRANCH  29  30
ATOM     30  N   UNL     1      33.555 -16.714 -25.764  0.00  0.00    -0.240 NA
BRANCH  30  33
ATOM     31  N   UNL     1      34.389 -18.694 -24.690  0.00  0.00    -0.370 N 
ATOM     32  N   UNL     1      35.452 -16.694 -24.433  0.00  0.00    -0.370 N 
ATOM     33  C   UNL     1      34.396 -17.355 -25.013  0.00  0.00    +0.189 C 
ATOM     34  H   UNL     1      33.683 -19.283 -25.042  0.00  0.00    +0.159 HD
ATOM     35  H   UNL     1      35.091 -19.063 -24.105  0.00  0.00    +0.159 HD
ATOM     36  H   UNL     1      35.573 -15.729 -24.585  0.00  0.00    +0.159 HD
ATOM     37  H   UNL     1      36.088 -17.186 -23.863  0.00  0.00    +0.159 HD
ENDBRANCH  30  33
ENDBRANCH  29  30
ENDBRANCH  28  29
ENDBRANCH  27  28
ENDBRANCH   1  27
TORSDOF 10
ENDMDL
MODEL 9
REMARK VINA RESULT:      -8.1      9.874     14.228
REMARK  Name = 5287596
REMARK  10 active torsions:
REMARK  status: ('A' for Active; 'I' for Inactive)
REMARK    1  A    between atoms: C_1  and  N_3
REMARK    2  A    between atoms: C_1  and  C_17
REMARK    3  A    between atoms: C_1  and  C_27
REMARK    4  A    between atoms: C_4  and  C_8
REMARK    5  A    between atoms: C_10  and  O_14
REMARK    6  A    between atoms: C_17  and  C_20
REMARK    7  A    between atoms: C_27  and  C_28
REMARK    8  A    between atoms: C_28  and  C_29
REMARK    9  A    between atoms: C_29  and  N_30
REMARK   10  A    between atoms: N_30  and  C_33
REMARK                            x       y       z     vdW  Elec       q    Type
REMARK                         _______ _______ _______ _____ _____    ______ ____
ROOT
ATOM      1  C   UNL     1      33.067 -11.865 -23.137  0.00  0.00    +0.137 C 
ENDROOT
BRANCH   1   3
ATOM      2  O   UNL     1      34.776 -13.777 -21.776  0.00  0.00    -0.273 OA
ATOM      3  N   UNL     1      32.899 -13.299 -23.068  0.00  0.00    -0.298 N 
ATOM      4  C   UNL     1      33.773 -14.132 -22.391  0.00  0.00    +0.241 C 
ATOM      5  H   UNL     1      32.127 -13.702 -23.526  0.00  0.00    +0.150 HD
BRANCH   4   8
ATOM      6  O   UNL     1      33.148 -15.405 -25.315  0.00  0.00    -0.275 OA
ATOM      7  N   UNL     1      34.214 -16.223 -23.431  0.00  0.00    -0.270 N 
ATOM      8  C   UNL     1      33.353 -15.569 -22.456  0.00  0.00    +0.154 C 
ATOM      9  C   UNL     1      33.625 -16.301 -21.150  0.00  0.00    +0.060 C 
ATOM     10  C   UNL     1      35.077 -16.757 -21.291  0.00  0.00    +0.132 C 
ATOM     11  C   UNL     1      35.209 -17.069 -22.776  0.00  0.00    +0.123 C 
ATOM     12  C   UNL     1      33.999 -16.130 -24.797  0.00  0.00    +0.227 C 
ATOM     13  C   UNL     1      34.895 -16.986 -25.656  0.00  0.00    +0.095 C 
BRANCH  10  14
ATOM     14  O   UNL     1      35.319 -17.897 -20.490  0.00  0.00    -0.383 OA
ATOM     15  H   UNL     1      34.487 -18.195 -20.092  0.00  0.00    +0.210 HD
ENDBRANCH  10  14
ENDBRANCH   4   8
ENDBRANCH   1   3
BRANCH   1  17
ATOM     16  O   UNL     1      31.207 -11.929 -21.638  0.00  0.00    -0.286 OA
ATOM     17  C   UNL     1      31.946 -11.213 -22.320  0.00  0.00    +0.226 C 
BRANCH  17  20
ATOM     18  S   UNL     1      32.104  -8.816 -20.946  0.00  0.00    -0.069 S 
ATOM     19  N   UNL     1      31.427  -9.085 -23.419  0.00  0.00    -0.396 NA
ATOM     20  C   UNL     1      31.795  -9.747 -22.347  0.00  0.00    +0.193 C 
ATOM     21  C   UNL     1      31.715  -7.383 -21.823  0.00  0.00    +0.128 C 
ATOM     22  C   UNL     1      31.376  -7.729 -23.135  0.00  0.00    +0.124 C 
ATOM     23  C   UNL     1      31.711  -6.050 -21.383  0.00  0.00    -0.008 C 
ATOM     24  C   UNL     1      31.020  -6.701 -24.036  0.00  0.00    +0.029 C 
ATOM     25  C   UNL     1      31.356  -5.053 -22.295  0.00  0.00    -0.003 C 
ATOM     26  C   UNL     1      31.015  -5.372 -23.604  0.00  0.00    +0.002 C 
ENDBRANCH  17  20
ENDBRANCH   1  17
BRANCH   1  27
ATOM     27  C   UNL     1      33.116 -11.369 -24.588  0.00  0.00    +0.030 C 
BRANCH  27  28
ATOM     28  C   UNL     1      34.504 -11.452 -25.242  0.00  0.00    +0.029 C 
BRANCH  28  29
ATOM     29  C   UNL     1      35.161 -10.082 -25.381  0.00  0.00    +0.129 C 
BRANCH  29  30
ATOM     30  N   UNL     1      35.219  -9.423 -24.075  0.00  0.00    -0.240 NA
BRANCH  30  33
ATOM     31  N   UNL     1      34.441  -7.383 -25.076  0.00  0.00    -0.370 N 
ATOM     32  N   UNL     1      34.950  -7.471 -22.856  0.00  0.00    -0.370 N 
ATOM     33  C   UNL     1      34.885  -8.171 -24.037  0.00  0.00    +0.189 C 
ATOM     34  H   UNL     1      34.348  -7.764 -25.979  0.00  0.00    +0.159 HD
ATOM     35  H   UNL     1      34.217  -6.438 -24.916  0.00  0.00    +0.159 HD
ATOM     36  H   UNL     1      35.252  -7.919 -22.033  0.00  0.00    +0.159 HD
ATOM     37  H   UNL     1      34.695  -6.520 -22.833  0.00  0.00    +0.159 HD
ENDBRANCH  30  33
ENDBRANCH  29  30
ENDBRANCH  28  29
ENDBRANCH  27  28
ENDBRANCH   1  27
TORSDOF 10
ENDMDL
