MODEL 1
REMARK VINA RESULT:     -10.5      0.000      0.000
REMARK  Name = 6540277
REMARK  8 active torsions:
REMARK  status: ('A' for Active; 'I' for Inactive)
REMARK    1  A    between atoms: N_1  and  C_22
REMARK    2  A    between atoms: C_2  and  O_8
REMARK    3  A    between atoms: O_8  and  C_9
REMARK    4  A    between atoms: C_9  and  C_10
REMARK    5  A    between atoms: C_9  and  C_16
REMARK    6  A    between atoms: C_22  and  C_23
REMARK    7  A    between atoms: C_23  and  C_24
REMARK    8  A    between atoms: C_24  and  C_29
REMARK                            x       y       z     vdW  Elec       q    Type
REMARK                         _______ _______ _______ _____ _____    ______ ____
ROOT
ATOM      1  N   UNL     1      30.071 -24.306 -14.489  0.00  0.00    +0.387 N 
ATOM      2  C   UNL     1      32.905 -23.754 -13.973  0.00  0.00    +0.112 C 
ATOM      3  C   UNL     1      31.896 -22.647 -14.272  0.00  0.00    +0.007 C 
ATOM      4  C   UNL     1      32.207 -25.008 -13.451  0.00  0.00    +0.007 C 
ATOM      5  C   UNL     1      30.718 -23.146 -15.116  0.00  0.00    -0.075 C 
ATOM      6  C   UNL     1      31.018 -25.418 -14.325  0.00  0.00    -0.075 C 
ATOM      7  H   UNL     1      29.753 -24.026 -13.561  0.00  0.00    -0.080 HD
ENDROOT
BRANCH   2   8
ATOM      8  O   UNL     1      33.658 -24.062 -15.144  0.00  0.00    -0.350 OA
BRANCH   8   9
ATOM      9  C   UNL     1      34.930 -23.430 -15.127  0.00  0.00    +0.160 C 
BRANCH   9  10
ATOM     10  C   UNL     1      35.985 -24.397 -14.632  0.00  0.00    +0.009 C 
ATOM     11  C   UNL     1      36.738 -24.063 -13.520  0.00  0.00    -0.002 C 
ATOM     12  C   UNL     1      36.172 -25.594 -15.301  0.00  0.00    -0.002 C 
ATOM     13  C   UNL     1      37.709 -24.954 -13.063  0.00  0.00    -0.000 C 
ATOM     14  C   UNL     1      37.142 -26.485 -14.844  0.00  0.00    -0.000 C 
ATOM     15  C   UNL     1      37.911 -26.165 -13.725  0.00  0.00    -0.000 C 
ENDBRANCH   9  10
BRANCH   9  16
ATOM     16  C   UNL     1      35.274 -22.821 -16.473  0.00  0.00    +0.009 C 
ATOM     17  C   UNL     1      34.330 -22.848 -17.483  0.00  0.00    -0.002 C 
ATOM     18  C   UNL     1      36.522 -22.255 -16.656  0.00  0.00    -0.002 C 
ATOM     19  C   UNL     1      34.646 -22.289 -18.722  0.00  0.00    -0.000 C 
ATOM     20  C   UNL     1      36.837 -21.696 -17.894  0.00  0.00    -0.000 C 
ATOM     21  C   UNL     1      35.899 -21.712 -18.927  0.00  0.00    -0.000 C 
ENDBRANCH   9  16
ENDBRANCH   8   9
ENDBRANCH   2   8
BRANCH   1  22
ATOM     22  C   UNL     1      28.912 -24.732 -15.274  0.00  0.00    -0.076 C 
BRANCH  22  23
ATOM     23  C   UNL     1      28.606 -23.707 -16.365  0.00  0.00    -0.007 C 
BRANCH  23  24
ATOM     24  C   UNL     1      27.541 -22.707 -15.901  0.00  0.00    +0.100 C 
BRANCH  24  29
ATOM     25  N   UNL     1      25.860 -21.188 -16.860  0.00  0.00    -0.114 NA
ATOM     26  N   UNL     1      27.118 -22.368 -18.328  0.00  0.00    -0.091 NA
ATOM     27  N   UNL     1      25.569 -20.947 -18.146  0.00  0.00    -0.140 N 
ATOM     28  N   UNL     1      26.290 -21.624 -19.051  0.00  0.00    -0.022 NA
ATOM     29  C   UNL     1      26.819 -22.070 -17.051  0.00  0.00    +0.050 C 
ATOM     30  H   UNL     1      24.867 -20.309 -18.412  0.00  0.00    +0.197 HD
ENDBRANCH  24  29
ENDBRANCH  23  24
ENDBRANCH  22  23
ENDBRANCH   1  22
TORSDOF 8
ENDMDL
MODEL 2
REMARK VINA RESULT:     -10.2      8.761     12.224
REMARK  Name = 6540277
REMARK  8 active torsions:
REMARK  status: ('A' for Active; 'I' for Inactive)
REMARK    1  A    between atoms: N_1  and  C_22
REMARK    2  A    between atoms: C_2  and  O_8
REMARK    3  A    between atoms: O_8  and  C_9
REMARK    4  A    between atoms: C_9  and  C_10
REMARK    5  A    between atoms: C_9  and  C_16
REMARK    6  A    between atoms: C_22  and  C_23
REMARK    7  A    between atoms: C_23  and  C_24
REMARK    8  A    between atoms: C_24  and  C_29
REMARK                            x       y       z     vdW  Elec       q    Type
REMARK                         _______ _______ _______ _____ _____    ______ ____
ROOT
ATOM      1  N   UNL     1      34.618 -18.347 -21.964  0.00  0.00    +0.387 N 
ATOM      2  C   UNL     1      34.833 -15.433 -22.214  0.00  0.00    +0.112 C 
ATOM      3  C   UNL     1      34.725 -16.133 -20.861  0.00  0.00    +0.007 C 
ATOM      4  C   UNL     1      35.351 -16.388 -23.287  0.00  0.00    +0.007 C 
ATOM      5  C   UNL     1      33.995 -17.477 -20.958  0.00  0.00    -0.075 C 
ATOM      6  C   UNL     1      34.598 -17.721 -23.293  0.00  0.00    -0.075 C 
ATOM      7  H   UNL     1      35.592 -18.488 -21.697  0.00  0.00    -0.080 HD
ENDROOT
BRANCH   2   8
ATOM      8  O   UNL     1      33.564 -14.906 -22.597  0.00  0.00    -0.350 OA
BRANCH   8   9
ATOM      9  C   UNL     1      33.658 -13.534 -22.957  0.00  0.00    +0.160 C 
BRANCH   9  10
ATOM     10  C   UNL     1      33.491 -13.377 -24.455  0.00  0.00    +0.009 C 
ATOM     11  C   UNL     1      33.937 -12.218 -25.065  0.00  0.00    -0.002 C 
ATOM     12  C   UNL     1      32.898 -14.397 -25.179  0.00  0.00    -0.002 C 
ATOM     13  C   UNL     1      33.784 -12.073 -26.443  0.00  0.00    -0.000 C 
ATOM     14  C   UNL     1      32.746 -14.252 -26.557  0.00  0.00    -0.000 C 
ATOM     15  C   UNL     1      33.189 -13.090 -27.190  0.00  0.00    -0.000 C 
ENDBRANCH   9  10
BRANCH   9  16
ATOM     16  C   UNL     1      32.690 -12.677 -22.163  0.00  0.00    +0.009 C 
ATOM     17  C   UNL     1      32.444 -12.993 -20.840  0.00  0.00    -0.002 C 
ATOM     18  C   UNL     1      32.080 -11.603 -22.783  0.00  0.00    -0.002 C 
ATOM     19  C   UNL     1      31.553 -12.205 -20.110  0.00  0.00    -0.000 C 
ATOM     20  C   UNL     1      31.190 -10.816 -22.052  0.00  0.00    -0.000 C 
ATOM     21  C   UNL     1      30.927 -11.117 -20.715  0.00  0.00    -0.000 C 
ENDBRANCH   9  16
ENDBRANCH   8   9
ENDBRANCH   2   8
BRANCH   1  22
ATOM     22  C   UNL     1      33.947 -19.647 -22.000  0.00  0.00    -0.076 C 
BRANCH  22  23
ATOM     23  C   UNL     1      33.508 -20.057 -20.596  0.00  0.00    -0.007 C 
BRANCH  23  24
ATOM     24  C   UNL     1      34.565 -20.938 -19.920  0.00  0.00    +0.100 C 
BRANCH  24  29
ATOM     25  N   UNL     1      32.656 -21.996 -18.784  0.00  0.00    -0.114 NA
ATOM     26  N   UNL     1      34.712 -22.805 -18.285  0.00  0.00    -0.091 NA
ATOM     27  N   UNL     1      32.647 -23.000 -17.896  0.00  0.00    -0.140 N 
ATOM     28  N   UNL     1      33.843 -23.510 -17.571  0.00  0.00    -0.022 NA
ATOM     29  C   UNL     1      33.957 -21.933 -18.976  0.00  0.00    +0.050 C 
ATOM     30  H   UNL     1      31.810 -23.343 -17.505  0.00  0.00    +0.197 HD
ENDBRANCH  24  29
ENDBRANCH  23  24
ENDBRANCH  22  23
ENDBRANCH   1  22
TORSDOF 8
ENDMDL
MODEL 3
REMARK VINA RESULT:     -10.2      8.772     12.256
REMARK  Name = 6540277
REMARK  8 active torsions:
REMARK  status: ('A' for Active; 'I' for Inactive)
REMARK    1  A    between atoms: N_1  and  C_22
REMARK    2  A    between atoms: C_2  and  O_8
REMARK    3  A    between atoms: O_8  and  C_9
REMARK    4  A    between atoms: C_9  and  C_10
REMARK    5  A    between atoms: C_9  and  C_16
REMARK    6  A    between atoms: C_22  and  C_23
REMARK    7  A    between atoms: C_23  and  C_24
REMARK    8  A    between atoms: C_24  and  C_29
REMARK                            x       y       z     vdW  Elec       q    Type
REMARK                         _______ _______ _______ _____ _____    ______ ____
ROOT
ATOM      1  N   UNL     1      34.669 -18.332 -22.001  0.00  0.00    +0.387 N 
ATOM      2  C   UNL     1      34.848 -15.414 -22.239  0.00  0.00    +0.112 C 
ATOM      3  C   UNL     1      34.765 -16.122 -20.888  0.00  0.00    +0.007 C 
ATOM      4  C   UNL     1      35.365 -16.357 -23.323  0.00  0.00    +0.007 C 
ATOM      5  C   UNL     1      34.049 -17.474 -20.984  0.00  0.00    -0.075 C 
ATOM      6  C   UNL     1      34.626 -17.699 -23.327  0.00  0.00    -0.075 C 
ATOM      7  H   UNL     1      35.648 -18.463 -21.748  0.00  0.00    -0.080 HD
ENDROOT
BRANCH   2   8
ATOM      8  O   UNL     1      33.569 -14.900 -22.603  0.00  0.00    -0.350 OA
BRANCH   8   9
ATOM      9  C   UNL     1      33.644 -13.527 -22.964  0.00  0.00    +0.160 C 
BRANCH   9  10
ATOM     10  C   UNL     1      33.460 -13.371 -24.459  0.00  0.00    +0.009 C 
ATOM     11  C   UNL     1      32.843 -14.384 -25.172  0.00  0.00    -0.002 C 
ATOM     12  C   UNL     1      33.911 -12.219 -25.079  0.00  0.00    -0.002 C 
ATOM     13  C   UNL     1      32.673 -14.241 -26.549  0.00  0.00    -0.000 C 
ATOM     14  C   UNL     1      33.741 -12.076 -26.455  0.00  0.00    -0.000 C 
ATOM     15  C   UNL     1      33.122 -13.087 -27.191  0.00  0.00    -0.000 C 
ENDBRANCH   9  10
BRANCH   9  16
ATOM     16  C   UNL     1      32.675 -12.681 -22.160  0.00  0.00    +0.009 C 
ATOM     17  C   UNL     1      32.030 -11.627 -22.779  0.00  0.00    -0.002 C 
ATOM     18  C   UNL     1      32.461 -12.986 -20.829  0.00  0.00    -0.002 C 
ATOM     19  C   UNL     1      31.139 -10.847 -22.040  0.00  0.00    -0.000 C 
ATOM     20  C   UNL     1      31.570 -12.207 -20.090  0.00  0.00    -0.000 C 
ATOM     21  C   UNL     1      30.908 -11.138 -20.696  0.00  0.00    -0.000 C 
ENDBRANCH   9  16
ENDBRANCH   8   9
ENDBRANCH   2   8
BRANCH   1  22
ATOM     22  C   UNL     1      34.014 -19.639 -22.037  0.00  0.00    -0.076 C 
BRANCH  22  23
ATOM     23  C   UNL     1      33.561 -20.044 -20.635  0.00  0.00    -0.007 C 
BRANCH  23  24
ATOM     24  C   UNL     1      34.603 -20.938 -19.954  0.00  0.00    +0.100 C 
BRANCH  24  29
ATOM     25  N   UNL     1      32.674 -21.983 -18.840  0.00  0.00    -0.114 NA
ATOM     26  N   UNL     1      34.722 -22.772 -18.279  0.00  0.00    -0.091 NA
ATOM     27  N   UNL     1      32.649 -22.969 -17.933  0.00  0.00    -0.140 N 
ATOM     28  N   UNL     1      33.840 -23.467 -17.571  0.00  0.00    -0.022 NA
ATOM     29  C   UNL     1      33.979 -21.917 -19.004  0.00  0.00    +0.050 C 
ATOM     30  H   UNL     1      31.806 -23.309 -17.554  0.00  0.00    +0.197 HD
ENDBRANCH  24  29
ENDBRANCH  23  24
ENDBRANCH  22  23
ENDBRANCH   1  22
TORSDOF 8
ENDMDL
MODEL 4
REMARK VINA RESULT:     -10.0      5.121      7.474
REMARK  Name = 6540277
REMARK  8 active torsions:
REMARK  status: ('A' for Active; 'I' for Inactive)
REMARK    1  A    between atoms: N_1  and  C_22
REMARK    2  A    between atoms: C_2  and  O_8
REMARK    3  A    between atoms: O_8  and  C_9
REMARK    4  A    between atoms: C_9  and  C_10
REMARK    5  A    between atoms: C_9  and  C_16
REMARK    6  A    between atoms: C_22  and  C_23
REMARK    7  A    between atoms: C_23  and  C_24
REMARK    8  A    between atoms: C_24  and  C_29
REMARK                            x       y       z     vdW  Elec       q    Type
REMARK                         _______ _______ _______ _____ _____    ______ ____
ROOT
ATOM      1  N   UNL     1      34.554 -20.035 -20.831  0.00  0.00    +0.387 N 
ATOM      2  C   UNL     1      34.237 -22.472 -19.229  0.00  0.00    +0.112 C 
ATOM      3  C   UNL     1      33.068 -21.816 -19.963  0.00  0.00    +0.007 C 
ATOM      4  C   UNL     1      35.572 -22.068 -19.850  0.00  0.00    +0.007 C 
ATOM      5  C   UNL     1      33.277 -20.311 -20.160  0.00  0.00    -0.075 C 
ATOM      6  C   UNL     1      35.687 -20.554 -20.051  0.00  0.00    -0.075 C 
ATOM      7  H   UNL     1      34.547 -20.516 -21.731  0.00  0.00    -0.080 HD
ENDROOT
BRANCH   2   8
ATOM      8  O   UNL     1      34.210 -22.118 -17.848  0.00  0.00    -0.350 OA
BRANCH   8   9
ATOM      9  C   UNL     1      34.023 -23.259 -17.022  0.00  0.00    +0.160 C 
BRANCH   9  10
ATOM     10  C   UNL     1      35.263 -23.504 -16.186  0.00  0.00    +0.009 C 
ATOM     11  C   UNL     1      36.269 -22.555 -16.178  0.00  0.00    -0.002 C 
ATOM     12  C   UNL     1      35.361 -24.672 -15.450  0.00  0.00    -0.002 C 
ATOM     13  C   UNL     1      37.410 -22.780 -15.408  0.00  0.00    -0.000 C 
ATOM     14  C   UNL     1      36.502 -24.897 -14.680  0.00  0.00    -0.000 C 
ATOM     15  C   UNL     1      37.527 -23.951 -14.659  0.00  0.00    -0.000 C 
ENDBRANCH   9  10
BRANCH   9  16
ATOM     16  C   UNL     1      32.762 -23.148 -16.187  0.00  0.00    +0.009 C 
ATOM     17  C   UNL     1      31.537 -23.090 -16.825  0.00  0.00    -0.002 C 
ATOM     18  C   UNL     1      32.869 -23.110 -14.809  0.00  0.00    -0.002 C 
ATOM     19  C   UNL     1      30.377 -22.987 -16.057  0.00  0.00    -0.000 C 
ATOM     20  C   UNL     1      31.709 -23.008 -14.042  0.00  0.00    -0.000 C 
ATOM     21  C   UNL     1      30.462 -22.947 -14.666  0.00  0.00    -0.000 C 
ENDBRANCH   9  16
ENDBRANCH   8   9
ENDBRANCH   2   8
BRANCH   1  22
ATOM     22  C   UNL     1      34.710 -18.600 -21.066  0.00  0.00    -0.076 C 
BRANCH  22  23
ATOM     23  C   UNL     1      35.773 -18.349 -22.134  0.00  0.00    -0.007 C 
BRANCH  23  24
ATOM     24  C   UNL     1      35.259 -18.732 -23.527  0.00  0.00    +0.100 C 
BRANCH  24  29
ATOM     25  N   UNL     1      34.570 -16.377 -23.709  0.00  0.00    -0.114 NA
ATOM     26  N   UNL     1      34.438 -17.623 -25.595  0.00  0.00    -0.091 NA
ATOM     27  N   UNL     1      34.118 -15.704 -24.777  0.00  0.00    -0.140 N 
ATOM     28  N   UNL     1      34.024 -16.403 -25.917  0.00  0.00    -0.022 NA
ATOM     29  C   UNL     1      34.744 -17.547 -24.288  0.00  0.00    +0.050 C 
ATOM     30  H   UNL     1      33.871 -14.752 -24.728  0.00  0.00    +0.197 HD
ENDBRANCH  24  29
ENDBRANCH  23  24
ENDBRANCH  22  23
ENDBRANCH   1  22
TORSDOF 8
ENDMDL
MODEL 5
REMARK VINA RESULT:      -9.6     12.814     15.385
REMARK  Name = 6540277
REMARK  8 active torsions:
REMARK  status: ('A' for Active; 'I' for Inactive)
REMARK    1  A    between atoms: N_1  and  C_22
REMARK    2  A    between atoms: C_2  and  O_8
REMARK    3  A    between atoms: O_8  and  C_9
REMARK    4  A    between atoms: C_9  and  C_10
REMARK    5  A    between atoms: C_9  and  C_16
REMARK    6  A    between atoms: C_22  and  C_23
REMARK    7  A    between atoms: C_23  and  C_24
REMARK    8  A    between atoms: C_24  and  C_29
REMARK                            x       y       z     vdW  Elec       q    Type
REMARK                         _______ _______ _______ _____ _____    ______ ____
ROOT
ATOM      1  N   UNL     1      31.714  -9.118 -20.653  0.00  0.00    +0.387 N 
ATOM      2  C   UNL     1      31.473 -11.856 -21.676  0.00  0.00    +0.112 C 
ATOM      3  C   UNL     1      31.452 -11.535 -20.183  0.00  0.00    +0.007 C 
ATOM      4  C   UNL     1      31.086 -10.634 -22.506  0.00  0.00    +0.007 C 
ATOM      5  C   UNL     1      32.213 -10.246 -19.855  0.00  0.00    -0.075 C 
ATOM      6  C   UNL     1      31.861  -9.380 -22.091  0.00  0.00    -0.075 C 
ATOM      7  H   UNL     1      30.720  -9.007 -20.453  0.00  0.00    -0.080 HD
ENDROOT
BRANCH   2   8
ATOM      8  O   UNL     1      32.764 -12.322 -22.060  0.00  0.00    -0.350 OA
BRANCH   8   9
ATOM      9  C   UNL     1      32.681 -13.524 -22.813  0.00  0.00    +0.160 C 
BRANCH   9  10
ATOM     10  C   UNL     1      33.029 -13.254 -24.263  0.00  0.00    +0.009 C 
ATOM     11  C   UNL     1      33.714 -12.097 -24.587  0.00  0.00    -0.002 C 
ATOM     12  C   UNL     1      32.656 -14.172 -25.229  0.00  0.00    -0.002 C 
ATOM     13  C   UNL     1      34.035 -11.848 -25.921  0.00  0.00    -0.000 C 
ATOM     14  C   UNL     1      32.978 -13.924 -26.563  0.00  0.00    -0.000 C 
ATOM     15  C   UNL     1      33.668 -12.761 -26.910  0.00  0.00    -0.000 C 
ENDBRANCH   9  10
BRANCH   9  16
ATOM     16  C   UNL     1      33.519 -14.631 -22.202  0.00  0.00    +0.009 C 
ATOM     17  C   UNL     1      34.206 -15.492 -23.038  0.00  0.00    -0.002 C 
ATOM     18  C   UNL     1      33.574 -14.750 -20.826  0.00  0.00    -0.002 C 
ATOM     19  C   UNL     1      34.977 -16.511 -22.476  0.00  0.00    -0.000 C 
ATOM     20  C   UNL     1      34.345 -15.769 -20.265  0.00  0.00    -0.000 C 
ATOM     21  C   UNL     1      35.047 -16.649 -21.090  0.00  0.00    -0.000 C 
ENDBRANCH   9  16
ENDBRANCH   8   9
ENDBRANCH   2   8
BRANCH   1  22
ATOM     22  C   UNL     1      32.408  -7.884 -20.283  0.00  0.00    -0.076 C 
BRANCH  22  23
ATOM     23  C   UNL     1      32.431  -6.915 -21.464  0.00  0.00    -0.007 C 
BRANCH  23  24
ATOM     24  C   UNL     1      31.304  -5.882 -21.354  0.00  0.00    +0.100 C 
BRANCH  24  29
ATOM     25  N   UNL     1      31.057  -5.894 -23.802  0.00  0.00    -0.114 NA
ATOM     26  N   UNL     1      30.666  -3.927 -22.751  0.00  0.00    -0.091 NA
ATOM     27  N   UNL     1      30.720  -4.893 -24.627  0.00  0.00    -0.140 N 
ATOM     28  N   UNL     1      30.478  -3.708 -24.047  0.00  0.00    -0.022 NA
ATOM     29  C   UNL     1      31.004  -5.225 -22.669  0.00  0.00    +0.050 C 
ATOM     30  H   UNL     1      30.652  -5.019 -25.601  0.00  0.00    +0.197 HD
ENDBRANCH  24  29
ENDBRANCH  23  24
ENDBRANCH  22  23
ENDBRANCH   1  22
TORSDOF 8
ENDMDL
MODEL 6
REMARK VINA RESULT:      -9.5     10.968     14.064
REMARK  Name = 6540277
REMARK  8 active torsions:
REMARK  status: ('A' for Active; 'I' for Inactive)
REMARK    1  A    between atoms: N_1  and  C_22
REMARK    2  A    between atoms: C_2  and  O_8
REMARK    3  A    between atoms: O_8  and  C_9
REMARK    4  A    between atoms: C_9  and  C_10
REMARK    5  A    between atoms: C_9  and  C_16
REMARK    6  A    between atoms: C_22  and  C_23
REMARK    7  A    between atoms: C_23  and  C_24
REMARK    8  A    between atoms: C_24  and  C_29
REMARK                            x       y       z     vdW  Elec       q    Type
REMARK                         _______ _______ _______ _____ _____    ______ ____
ROOT
ATOM      1  N   UNL     1      33.678 -15.483 -22.110  0.00  0.00    +0.387 N 
ATOM      2  C   UNL     1      32.178 -12.964 -22.205  0.00  0.00    +0.112 C 
ATOM      3  C   UNL     1      32.274 -13.906 -23.404  0.00  0.00    +0.007 C 
ATOM      4  C   UNL     1      32.449 -13.707 -20.899  0.00  0.00    +0.007 C 
ATOM      5  C   UNL     1      33.551 -14.752 -23.378  0.00  0.00    -0.075 C 
ATOM      6  C   UNL     1      33.720 -14.560 -20.967  0.00  0.00    -0.075 C 
ATOM      7  H   UNL     1      32.855 -16.075 -22.005  0.00  0.00    -0.080 HD
ENDROOT
BRANCH   2   8
ATOM      8  O   UNL     1      33.096 -11.883 -22.356  0.00  0.00    -0.350 OA
BRANCH   8   9
ATOM      9  C   UNL     1      32.682 -10.987 -23.378  0.00  0.00    +0.160 C 
BRANCH   9  10
ATOM     10  C   UNL     1      32.283  -9.657 -22.772  0.00  0.00    +0.009 C 
ATOM     11  C   UNL     1      32.465  -9.452 -21.416  0.00  0.00    -0.002 C 
ATOM     12  C   UNL     1      31.746  -8.677 -23.589  0.00  0.00    -0.002 C 
ATOM     13  C   UNL     1      32.097  -8.228 -20.858  0.00  0.00    -0.000 C 
ATOM     14  C   UNL     1      31.379  -7.453 -23.031  0.00  0.00    -0.000 C 
ATOM     15  C   UNL     1      31.555  -7.228 -21.665  0.00  0.00    -0.000 C 
ENDBRANCH   9  10
BRANCH   9  16
ATOM     16  C   UNL     1      33.732 -10.848 -24.463  0.00  0.00    +0.009 C 
ATOM     17  C   UNL     1      34.707  -9.877 -24.334  0.00  0.00    -0.002 C 
ATOM     18  C   UNL     1      33.688 -11.696 -25.554  0.00  0.00    -0.002 C 
ATOM     19  C   UNL     1      35.673  -9.748 -25.333  0.00  0.00    -0.000 C 
ATOM     20  C   UNL     1      34.654 -11.568 -26.552  0.00  0.00    -0.000 C 
ATOM     21  C   UNL     1      35.647 -10.594 -26.441  0.00  0.00    -0.000 C 
ENDBRANCH   9  16
ENDBRANCH   8   9
ENDBRANCH   2   8
BRANCH   1  22
ATOM     22  C   UNL     1      34.869 -16.332 -22.126  0.00  0.00    -0.076 C 
BRANCH  22  23
ATOM     23  C   UNL     1      34.734 -17.455 -21.100  0.00  0.00    -0.007 C 
BRANCH  23  24
ATOM     24  C   UNL     1      34.397 -18.787 -21.780  0.00  0.00    +0.100 C 
BRANCH  24  29
ATOM     25  N   UNL     1      34.832 -20.637 -20.217  0.00  0.00    -0.114 NA
ATOM     26  N   UNL     1      32.672 -20.001 -20.463  0.00  0.00    -0.091 NA
ATOM     27  N   UNL     1      33.967 -21.341 -19.473  0.00  0.00    -0.140 N 
ATOM     28  N   UNL     1      32.676 -20.998 -19.587  0.00  0.00    -0.022 NA
ATOM     29  C   UNL     1      33.964 -19.834 -20.797  0.00  0.00    +0.050 C 
ATOM     30  H   UNL     1      34.263 -22.067 -18.876  0.00  0.00    +0.197 HD
ENDBRANCH  24  29
ENDBRANCH  23  24
ENDBRANCH  22  23
ENDBRANCH   1  22
TORSDOF 8
ENDMDL
MODEL 7
REMARK VINA RESULT:      -9.5     12.771     15.999
REMARK  Name = 6540277
REMARK  8 active torsions:
REMARK  status: ('A' for Active; 'I' for Inactive)
REMARK    1  A    between atoms: N_1  and  C_22
REMARK    2  A    between atoms: C_2  and  O_8
REMARK    3  A    between atoms: O_8  and  C_9
REMARK    4  A    between atoms: C_9  and  C_10
REMARK    5  A    between atoms: C_9  and  C_16
REMARK    6  A    between atoms: C_22  and  C_23
REMARK    7  A    between atoms: C_23  and  C_24
REMARK    8  A    between atoms: C_24  and  C_29
REMARK                            x       y       z     vdW  Elec       q    Type
REMARK                         _______ _______ _______ _____ _____    ______ ____
ROOT
ATOM      1  N   UNL     1      33.546 -13.648 -25.606  0.00  0.00    +0.387 N 
ATOM      2  C   UNL     1      34.070 -11.166 -24.133  0.00  0.00    +0.112 C 
ATOM      3  C   UNL     1      33.950 -12.521 -23.438  0.00  0.00    +0.007 C 
ATOM      4  C   UNL     1      34.428 -11.334 -25.608  0.00  0.00    +0.007 C 
ATOM      5  C   UNL     1      33.072 -13.501 -24.223  0.00  0.00    -0.075 C 
ATOM      6  C   UNL     1      33.533 -12.359 -26.311  0.00  0.00    -0.075 C 
ATOM      7  H   UNL     1      34.511 -13.978 -25.574  0.00  0.00    -0.080 HD
ENDROOT
BRANCH   2   8
ATOM      8  O   UNL     1      32.851 -10.438 -24.004  0.00  0.00    -0.350 OA
BRANCH   8   9
ATOM      9  C   UNL     1      32.960  -9.409 -23.030  0.00  0.00    +0.160 C 
BRANCH   9  10
ATOM     10  C   UNL     1      32.509  -8.087 -23.617  0.00  0.00    +0.009 C 
ATOM     11  C   UNL     1      31.155  -7.824 -23.726  0.00  0.00    -0.002 C 
ATOM     12  C   UNL     1      33.461  -7.172 -24.031  0.00  0.00    -0.002 C 
ATOM     13  C   UNL     1      30.739  -6.608 -24.267  0.00  0.00    -0.000 C 
ATOM     14  C   UNL     1      33.046  -5.955 -24.571  0.00  0.00    -0.000 C 
ATOM     15  C   UNL     1      31.685  -5.673 -24.689  0.00  0.00    -0.000 C 
ENDBRANCH   9  10
BRANCH   9  16
ATOM     16  C   UNL     1      32.227  -9.765 -21.751  0.00  0.00    +0.009 C 
ATOM     17  C   UNL     1      31.392 -10.867 -21.740  0.00  0.00    -0.002 C 
ATOM     18  C   UNL     1      32.414  -8.981 -20.628  0.00  0.00    -0.002 C 
ATOM     19  C   UNL     1      30.717 -11.195 -20.563  0.00  0.00    -0.000 C 
ATOM     20  C   UNL     1      31.740  -9.309 -19.452  0.00  0.00    -0.000 C 
ATOM     21  C   UNL     1      30.891 -10.417 -19.419  0.00  0.00    -0.000 C 
ENDBRANCH   9  16
ENDBRANCH   8   9
ENDBRANCH   2   8
BRANCH   1  22
ATOM     22  C   UNL     1      32.736 -14.632 -26.323  0.00  0.00    -0.076 C 
BRANCH  22  23
ATOM     23  C   UNL     1      33.096 -16.046 -25.871  0.00  0.00    -0.007 C 
BRANCH  23  24
ATOM     24  C   UNL     1      34.594 -16.164 -25.566  0.00  0.00    +0.100 C 
BRANCH  24  29
ATOM     25  N   UNL     1      35.271 -16.126 -23.201  0.00  0.00    -0.114 NA
ATOM     26  N   UNL     1      34.674 -18.137 -24.055  0.00  0.00    -0.091 NA
ATOM     27  N   UNL     1      35.342 -17.136 -22.322  0.00  0.00    -0.140 N 
ATOM     28  N   UNL     1      34.997 -18.346 -22.784  0.00  0.00    -0.022 NA
ATOM     29  C   UNL     1      34.854 -16.818 -24.241  0.00  0.00    +0.050 C 
ATOM     30  H   UNL     1      35.631 -16.997 -21.390  0.00  0.00    +0.197 HD
ENDBRANCH  24  29
ENDBRANCH  23  24
ENDBRANCH  22  23
ENDBRANCH   1  22
TORSDOF 8
ENDMDL
MODEL 8
REMARK VINA RESULT:      -9.4     10.066     13.161
REMARK  Name = 6540277
REMARK  8 active torsions:
REMARK  status: ('A' for Active; 'I' for Inactive)
REMARK    1  A    between atoms: N_1  and  C_22
REMARK    2  A    between atoms: C_2  and  O_8
REMARK    3  A    between atoms: O_8  and  C_9
REMARK    4  A    between atoms: C_9  and  C_10
REMARK    5  A    between atoms: C_9  and  C_16
REMARK    6  A    between atoms: C_22  and  C_23
REMARK    7  A    between atoms: C_23  and  C_24
REMARK    8  A    between atoms: C_24  and  C_29
REMARK                            x       y       z     vdW  Elec       q    Type
REMARK                         _______ _______ _______ _____ _____    ______ ____
ROOT
ATOM      1  N   UNL     1      34.202 -16.625 -21.679  0.00  0.00    +0.387 N 
ATOM      2  C   UNL     1      32.712 -14.363 -22.805  0.00  0.00    +0.112 C 
ATOM      3  C   UNL     1      33.533 -15.316 -23.672  0.00  0.00    +0.007 C 
ATOM      4  C   UNL     1      32.329 -15.018 -21.479  0.00  0.00    +0.007 C 
ATOM      5  C   UNL     1      34.687 -15.960 -22.896  0.00  0.00    -0.075 C 
ATOM      6  C   UNL     1      33.528 -15.673 -20.786  0.00  0.00    -0.075 C 
ATOM      7  H   UNL     1      33.520 -17.331 -21.957  0.00  0.00    -0.080 HD
ENDROOT
BRANCH   2   8
ATOM      8  O   UNL     1      33.443 -13.162 -22.567  0.00  0.00    -0.350 OA
BRANCH   8   9
ATOM      9  C   UNL     1      32.841 -12.050 -23.214  0.00  0.00    +0.160 C 
BRANCH   9  10
ATOM     10  C   UNL     1      32.381 -11.037 -22.186  0.00  0.00    +0.009 C 
ATOM     11  C   UNL     1      31.965 -11.479 -20.943  0.00  0.00    -0.002 C 
ATOM     12  C   UNL     1      32.388  -9.692 -22.512  0.00  0.00    -0.002 C 
ATOM     13  C   UNL     1      31.541 -10.547 -19.996  0.00  0.00    -0.000 C 
ATOM     14  C   UNL     1      31.965  -8.760 -21.565  0.00  0.00    -0.000 C 
ATOM     15  C   UNL     1      31.542  -9.187 -20.307  0.00  0.00    -0.000 C 
ENDBRANCH   9  10
BRANCH   9  16
ATOM     16  C   UNL     1      33.755 -11.449 -24.265  0.00  0.00    +0.009 C 
ATOM     17  C   UNL     1      34.500 -10.329 -23.946  0.00  0.00    -0.002 C 
ATOM     18  C   UNL     1      33.819 -12.036 -25.515  0.00  0.00    -0.002 C 
ATOM     19  C   UNL     1      35.340  -9.775 -24.913  0.00  0.00    -0.000 C 
ATOM     20  C   UNL     1      34.659 -11.483 -26.481  0.00  0.00    -0.000 C 
ATOM     21  C   UNL     1      35.420 -10.352 -26.180  0.00  0.00    -0.000 C 
ENDBRANCH   9  16
ENDBRANCH   8   9
ENDBRANCH   2   8
BRANCH   1  22
ATOM     22  C   UNL     1      35.306 -17.286 -20.983  0.00  0.00    -0.076 C 
BRANCH  22  23
ATOM     23  C   UNL     1      35.323 -18.778 -21.312  0.00  0.00    -0.007 C 
BRANCH  23  24
ATOM     24  C   UNL     1      33.907 -19.365 -21.289  0.00  0.00    +0.100 C 
BRANCH  24  29
ATOM     25  N   UNL     1      32.601 -20.899 -19.877  0.00  0.00    -0.114 NA
ATOM     26  N   UNL     1      34.851 -21.149 -19.836  0.00  0.00    -0.091 NA
ATOM     27  N   UNL     1      33.026 -21.881 -19.070  0.00  0.00    -0.140 N 
ATOM     28  N   UNL     1      34.353 -22.065 -19.015  0.00  0.00    -0.022 NA
ATOM     29  C   UNL     1      33.777 -20.496 -20.312  0.00  0.00    +0.050 C 
ATOM     30  H   UNL     1      32.402 -22.436 -18.549  0.00  0.00    +0.197 HD
ENDBRANCH  24  29
ENDBRANCH  23  24
ENDBRANCH  22  23
ENDBRANCH   1  22
TORSDOF 8
ENDMDL
MODEL 9
REMARK VINA RESULT:      -9.4      9.247     12.417
REMARK  Name = 6540277
REMARK  8 active torsions:
REMARK  status: ('A' for Active; 'I' for Inactive)
REMARK    1  A    between atoms: N_1  and  C_22
REMARK    2  A    between atoms: C_2  and  O_8
REMARK    3  A    between atoms: O_8  and  C_9
REMARK    4  A    between atoms: C_9  and  C_10
REMARK    5  A    between atoms: C_9  and  C_16
REMARK    6  A    between atoms: C_22  and  C_23
REMARK    7  A    between atoms: C_23  and  C_24
REMARK    8  A    between atoms: C_24  and  C_29
REMARK                            x       y       z     vdW  Elec       q    Type
REMARK                         _______ _______ _______ _____ _____    ______ ____
ROOT
ATOM      1  N   UNL     1      35.387 -17.050 -21.551  0.00  0.00    +0.387 N 
ATOM      2  C   UNL     1      34.193 -14.552 -22.521  0.00  0.00    +0.112 C 
ATOM      3  C   UNL     1      34.786 -14.686 -21.120  0.00  0.00    +0.007 C 
ATOM      4  C   UNL     1      34.768 -15.605 -23.465  0.00  0.00    +0.007 C 
ATOM      5  C   UNL     1      34.742 -16.129 -20.605  0.00  0.00    -0.075 C 
ATOM      6  C   UNL     1      34.724 -17.013 -22.863  0.00  0.00    -0.075 C 
ATOM      7  H   UNL     1      36.352 -16.745 -21.678  0.00  0.00    -0.080 HD
ENDROOT
BRANCH   2   8
ATOM      8  O   UNL     1      32.772 -14.665 -22.465  0.00  0.00    -0.350 OA
BRANCH   8   9
ATOM      9  C   UNL     1      32.137 -13.520 -23.015  0.00  0.00    +0.160 C 
BRANCH   9  10
ATOM     10  C   UNL     1      31.934 -12.471 -21.941  0.00  0.00    +0.009 C 
ATOM     11  C   UNL     1      31.685 -11.163 -22.314  0.00  0.00    -0.002 C 
ATOM     12  C   UNL     1      32.002 -12.846 -20.610  0.00  0.00    -0.002 C 
ATOM     13  C   UNL     1      31.499 -10.197 -21.325  0.00  0.00    -0.000 C 
ATOM     14  C   UNL     1      31.814 -11.881 -19.621  0.00  0.00    -0.000 C 
ATOM     15  C   UNL     1      31.563 -10.556 -19.979  0.00  0.00    -0.000 C 
ENDBRANCH   9  10
BRANCH   9  16
ATOM     16  C   UNL     1      32.883 -12.988 -24.224  0.00  0.00    +0.009 C 
ATOM     17  C   UNL     1      33.684 -11.870 -24.080  0.00  0.00    -0.002 C 
ATOM     18  C   UNL     1      32.746 -13.635 -25.437  0.00  0.00    -0.002 C 
ATOM     19  C   UNL     1      34.370 -11.380 -25.192  0.00  0.00    -0.000 C 
ATOM     20  C   UNL     1      33.433 -13.146 -26.548  0.00  0.00    -0.000 C 
ATOM     21  C   UNL     1      34.245 -12.018 -26.425  0.00  0.00    -0.000 C 
ENDBRANCH   9  16
ENDBRANCH   8   9
ENDBRANCH   2   8
BRANCH   1  22
ATOM     22  C   UNL     1      35.390 -18.412 -21.018  0.00  0.00    -0.076 C 
BRANCH  22  23
ATOM     23  C   UNL     1      34.304 -19.248 -21.691  0.00  0.00    -0.007 C 
BRANCH  23  24
ATOM     24  C   UNL     1      33.263 -19.726 -20.672  0.00  0.00    +0.100 C 
BRANCH  24  29
ATOM     25  N   UNL     1      32.803 -21.780 -19.397  0.00  0.00    -0.114 NA
ATOM     26  N   UNL     1      34.966 -21.384 -19.940  0.00  0.00    -0.091 NA
ATOM     27  N   UNL     1      33.655 -22.720 -18.965  0.00  0.00    -0.140 N 
ATOM     28  N   UNL     1      34.947 -22.527 -19.264  0.00  0.00    -0.022 NA
ATOM     29  C   UNL     1      33.680 -20.993 -19.985  0.00  0.00    +0.050 C 
ATOM     30  H   UNL     1      33.350 -23.507 -18.458  0.00  0.00    +0.197 HD
ENDBRANCH  24  29
ENDBRANCH  23  24
ENDBRANCH  22  23
ENDBRANCH   1  22
TORSDOF 8
ENDMDL
