MODEL 1
REMARK VINA RESULT:      -8.3      0.000      0.000
REMARK  Name = 445340
REMARK  8 active torsions:
REMARK  status: ('A' for Active; 'I' for Inactive)
REMARK    1  A    between atoms: C_2  and  O_7
REMARK    2  A    between atoms: C_3  and  O_9
REMARK    3  A    between atoms: C_4  and  O_11
REMARK    4  A    between atoms: C_5  and  C_23
REMARK    5  A    between atoms: C_6  and  O_13
REMARK    6  A    between atoms: O_13  and  C_14
REMARK    7  A    between atoms: C_19  and  N_20
REMARK    8  A    between atoms: C_23  and  O_24
REMARK                            x       y       z     vdW  Elec       q    Type
REMARK                         _______ _______ _______ _____ _____    ______ ____
ROOT
ATOM      1  O   UNL     1      36.759 -25.293 -14.435  0.00  0.00    -0.316 OA
ATOM      2  C   UNL     1      36.709 -23.893 -11.922  0.00  0.00    +0.173 C 
ATOM      3  C   UNL     1      37.926 -24.705 -12.370  0.00  0.00    +0.169 C 
ATOM      4  C   UNL     1      35.440 -24.436 -12.578  0.00  0.00    +0.210 C 
ATOM      5  C   UNL     1      37.986 -24.772 -13.902  0.00  0.00    +0.177 C 
ATOM      6  C   UNL     1      35.609 -24.512 -14.098  0.00  0.00    +0.318 C 
ENDROOT
BRANCH   2   7
ATOM      7  O   UNL     1      36.571 -23.961 -10.505  0.00  0.00    -0.379 OA
ATOM      8  H   UNL     1      36.339 -23.084 -10.161  0.00  0.00    +0.211 HD
ENDBRANCH   2   7
BRANCH   3   9
ATOM      9  O   UNL     1      37.831 -26.034 -11.852  0.00  0.00    -0.379 OA
ATOM     10  H   UNL     1      37.015 -26.448 -12.174  0.00  0.00    +0.211 HD
ENDBRANCH   3   9
BRANCH   4  11
ATOM     11  O   UNL     1      34.328 -23.603 -12.270  0.00  0.00    -0.377 OA
ATOM     12  H   UNL     1      33.775 -24.036 -11.601  0.00  0.00    +0.211 HD
ENDBRANCH   4  11
BRANCH   6  13
ATOM     13  O   UNL     1      35.679 -23.199 -14.652  0.00  0.00    -0.451 OA
BRANCH  13  14
ATOM     14  C   UNL     1      35.065 -23.010 -15.859  0.00  0.00    +0.141 C 
ATOM     15  C   UNL     1      35.777 -22.449 -16.916  0.00  0.00    +0.038 C 
ATOM     16  C   UNL     1      33.733 -23.379 -16.022  0.00  0.00    +0.038 C 
ATOM     17  C   UNL     1      35.150 -22.255 -18.147  0.00  0.00    +0.017 C 
ATOM     18  C   UNL     1      33.107 -23.184 -17.253  0.00  0.00    +0.017 C 
ATOM     19  C   UNL     1      33.815 -22.622 -18.315  0.00  0.00    +0.042 C 
BRANCH  19  20
ATOM     20  N   UNL     1      33.182 -22.427 -19.561  0.00  0.00    -0.357 N 
ATOM     21  H   UNL     1      33.693 -22.535 -20.395  0.00  0.00    +0.142 HD
ATOM     22  H   UNL     1      32.229 -22.182 -19.595  0.00  0.00    +0.142 HD
ENDBRANCH  19  20
ENDBRANCH  13  14
ENDBRANCH   6  13
BRANCH   5  23
ATOM     23  C   UNL     1      39.113 -25.671 -14.400  0.00  0.00    +0.169 C 
BRANCH  23  24
ATOM     24  O   UNL     1      38.595 -26.973 -14.606  0.00  0.00    -0.379 OA
ATOM     25  H   UNL     1      38.470 -27.410 -13.749  0.00  0.00    +0.211 HD
ENDBRANCH  23  24
ENDBRANCH   5  23
TORSDOF 8
ENDMDL
MODEL 2
REMARK VINA RESULT:      -7.9      1.987      3.268
REMARK  Name = 445340
REMARK  8 active torsions:
REMARK  status: ('A' for Active; 'I' for Inactive)
REMARK    1  A    between atoms: C_2  and  O_7
REMARK    2  A    between atoms: C_3  and  O_9
REMARK    3  A    between atoms: C_4  and  O_11
REMARK    4  A    between atoms: C_5  and  C_23
REMARK    5  A    between atoms: C_6  and  O_13
REMARK    6  A    between atoms: O_13  and  C_14
REMARK    7  A    between atoms: C_19  and  N_20
REMARK    8  A    between atoms: C_23  and  O_24
REMARK                            x       y       z     vdW  Elec       q    Type
REMARK                         _______ _______ _______ _____ _____    ______ ____
ROOT
ATOM      1  O   UNL     1      36.261 -23.156 -13.523  0.00  0.00    -0.316 OA
ATOM      2  C   UNL     1      37.012 -25.932 -13.643  0.00  0.00    +0.173 C 
ATOM      3  C   UNL     1      37.558 -24.993 -12.565  0.00  0.00    +0.169 C 
ATOM      4  C   UNL     1      36.625 -25.136 -14.890  0.00  0.00    +0.210 C 
ATOM      5  C   UNL     1      36.568 -23.850 -12.304  0.00  0.00    +0.177 C 
ATOM      6  C   UNL     1      35.676 -23.991 -14.527  0.00  0.00    +0.318 C 
ENDROOT
BRANCH   2   7
ATOM      7  O   UNL     1      37.997 -26.901 -13.992  0.00  0.00    -0.379 OA
ATOM      8  H   UNL     1      37.705 -27.778 -13.696  0.00  0.00    +0.211 HD
ENDBRANCH   2   7
BRANCH   3   9
ATOM      9  O   UNL     1      38.801 -24.437 -13.000  0.00  0.00    -0.379 OA
ATOM     10  H   UNL     1      38.933 -23.573 -12.580  0.00  0.00    +0.211 HD
ENDBRANCH   3   9
BRANCH   4  11
ATOM     11  O   UNL     1      35.994 -25.985 -15.843  0.00  0.00    -0.377 OA
ATOM     12  H   UNL     1      36.609 -26.167 -16.571  0.00  0.00    +0.211 HD
ENDBRANCH   4  11
BRANCH   6  13
ATOM     13  O   UNL     1      34.413 -24.511 -14.115  0.00  0.00    -0.451 OA
BRANCH  13  14
ATOM     14  C   UNL     1      33.313 -24.051 -14.786  0.00  0.00    +0.141 C 
ATOM     15  C   UNL     1      33.457 -23.511 -16.061  0.00  0.00    +0.038 C 
ATOM     16  C   UNL     1      32.058 -24.126 -14.189  0.00  0.00    +0.038 C 
ATOM     17  C   UNL     1      32.336 -23.042 -16.744  0.00  0.00    +0.017 C 
ATOM     18  C   UNL     1      30.937 -23.656 -14.873  0.00  0.00    +0.017 C 
ATOM     19  C   UNL     1      31.076 -23.114 -16.150  0.00  0.00    +0.042 C 
BRANCH  19  20
ATOM     20  N   UNL     1      29.942 -22.640 -16.842  0.00  0.00    -0.357 N 
ATOM     21  H   UNL     1      29.051 -23.007 -16.638  0.00  0.00    +0.142 HD
ATOM     22  H   UNL     1      30.041 -21.942 -17.530  0.00  0.00    +0.142 HD
ENDBRANCH  19  20
ENDBRANCH  13  14
ENDBRANCH   6  13
BRANCH   5  23
ATOM     23  C   UNL     1      37.117 -22.818 -11.323  0.00  0.00    +0.169 C 
BRANCH  23  24
ATOM     24  O   UNL     1      38.034 -21.986 -12.010  0.00  0.00    -0.379 OA
ATOM     25  H   UNL     1      38.371 -21.308 -11.405  0.00  0.00    +0.211 HD
ENDBRANCH  23  24
ENDBRANCH   5  23
TORSDOF 8
ENDMDL
MODEL 3
REMARK VINA RESULT:      -7.9      2.699      3.904
REMARK  Name = 445340
REMARK  8 active torsions:
REMARK  status: ('A' for Active; 'I' for Inactive)
REMARK    1  A    between atoms: C_2  and  O_7
REMARK    2  A    between atoms: C_3  and  O_9
REMARK    3  A    between atoms: C_4  and  O_11
REMARK    4  A    between atoms: C_5  and  C_23
REMARK    5  A    between atoms: C_6  and  O_13
REMARK    6  A    between atoms: O_13  and  C_14
REMARK    7  A    between atoms: C_19  and  N_20
REMARK    8  A    between atoms: C_23  and  O_24
REMARK                            x       y       z     vdW  Elec       q    Type
REMARK                         _______ _______ _______ _____ _____    ______ ____
ROOT
ATOM      1  O   UNL     1      35.485 -23.877 -16.084  0.00  0.00    -0.316 OA
ATOM      2  C   UNL     1      37.063 -23.578 -13.696  0.00  0.00    +0.173 C 
ATOM      3  C   UNL     1      37.408 -22.836 -14.990  0.00  0.00    +0.169 C 
ATOM      4  C   UNL     1      36.294 -24.860 -14.010  0.00  0.00    +0.210 C 
ATOM      5  C   UNL     1      36.144 -22.625 -15.834  0.00  0.00    +0.177 C 
ATOM      6  C   UNL     1      35.080 -24.559 -14.893  0.00  0.00    +0.318 C 
ENDROOT
BRANCH   2   7
ATOM      7  O   UNL     1      38.256 -23.907 -12.989  0.00  0.00    -0.379 OA
ATOM      8  H   UNL     1      38.998 -23.399 -13.354  0.00  0.00    +0.211 HD
ENDBRANCH   2   7
BRANCH   3   9
ATOM      9  O   UNL     1      38.346 -23.606 -15.746  0.00  0.00    -0.379 OA
ATOM     10  H   UNL     1      38.642 -23.090 -16.513  0.00  0.00    +0.211 HD
ENDBRANCH   3   9
BRANCH   4  11
ATOM     11  O   UNL     1      35.856 -25.482 -12.807  0.00  0.00    -0.377 OA
ATOM     12  H   UNL     1      35.290 -24.869 -12.312  0.00  0.00    +0.211 HD
ENDBRANCH   4  11
BRANCH   6  13
ATOM     13  O   UNL     1      34.109 -23.815 -14.159  0.00  0.00    -0.451 OA
BRANCH  13  14
ATOM     14  C   UNL     1      32.801 -23.993 -14.518  0.00  0.00    +0.141 C 
ATOM     15  C   UNL     1      32.242 -23.189 -15.508  0.00  0.00    +0.038 C 
ATOM     16  C   UNL     1      32.041 -24.975 -13.893  0.00  0.00    +0.038 C 
ATOM     17  C   UNL     1      30.908 -23.369 -15.873  0.00  0.00    +0.017 C 
ATOM     18  C   UNL     1      30.707 -25.155 -14.258  0.00  0.00    +0.017 C 
ATOM     19  C   UNL     1      30.140 -24.352 -15.248  0.00  0.00    +0.042 C 
BRANCH  19  20
ATOM     20  N   UNL     1      28.791 -24.535 -15.619  0.00  0.00    -0.357 N 
ATOM     21  H   UNL     1      28.364 -25.415 -15.504  0.00  0.00    +0.142 HD
ATOM     22  H   UNL     1      28.278 -23.784 -15.993  0.00  0.00    +0.142 HD
ENDBRANCH  19  20
ENDBRANCH  13  14
ENDBRANCH   6  13
BRANCH   5  23
ATOM     23  C   UNL     1      36.450 -21.997 -17.190  0.00  0.00    +0.169 C 
BRANCH  23  24
ATOM     24  O   UNL     1      37.289 -20.874 -16.989  0.00  0.00    -0.379 OA
ATOM     25  H   UNL     1      37.416 -20.411 -17.830  0.00  0.00    +0.211 HD
ENDBRANCH  23  24
ENDBRANCH   5  23
TORSDOF 8
ENDMDL
MODEL 4
REMARK VINA RESULT:      -7.8      1.781      3.241
REMARK  Name = 445340
REMARK  8 active torsions:
REMARK  status: ('A' for Active; 'I' for Inactive)
REMARK    1  A    between atoms: C_2  and  O_7
REMARK    2  A    between atoms: C_3  and  O_9
REMARK    3  A    between atoms: C_4  and  O_11
REMARK    4  A    between atoms: C_5  and  C_23
REMARK    5  A    between atoms: C_6  and  O_13
REMARK    6  A    between atoms: O_13  and  C_14
REMARK    7  A    between atoms: C_19  and  N_20
REMARK    8  A    between atoms: C_23  and  O_24
REMARK                            x       y       z     vdW  Elec       q    Type
REMARK                         _______ _______ _______ _____ _____    ______ ____
ROOT
ATOM      1  O   UNL     1      35.940 -23.063 -12.705  0.00  0.00    -0.316 OA
ATOM      2  C   UNL     1      38.107 -24.686 -13.679  0.00  0.00    +0.173 C 
ATOM      3  C   UNL     1      37.831 -24.521 -12.183  0.00  0.00    +0.169 C 
ATOM      4  C   UNL     1      37.585 -23.474 -14.449  0.00  0.00    +0.210 C 
ATOM      5  C   UNL     1      36.346 -24.214 -11.947  0.00  0.00    +0.177 C 
ATOM      6  C   UNL     1      36.113 -23.216 -14.117  0.00  0.00    +0.318 C 
ENDROOT
BRANCH   2   7
ATOM      7  O   UNL     1      39.508 -24.819 -13.905  0.00  0.00    -0.379 OA
ATOM      8  H   UNL     1      39.921 -25.236 -13.132  0.00  0.00    +0.211 HD
ENDBRANCH   2   7
BRANCH   3   9
ATOM      9  O   UNL     1      38.614 -23.442 -11.668  0.00  0.00    -0.379 OA
ATOM     10  H   UNL     1      39.493 -23.457 -12.078  0.00  0.00    +0.211 HD
ENDBRANCH   3   9
BRANCH   4  11
ATOM     11  O   UNL     1      37.720 -23.683 -15.851  0.00  0.00    -0.377 OA
ATOM     12  H   UNL     1      36.857 -23.571 -16.280  0.00  0.00    +0.211 HD
ENDBRANCH   4  11
BRANCH   6  13
ATOM     13  O   UNL     1      35.298 -24.262 -14.642  0.00  0.00    -0.451 OA
BRANCH  13  14
ATOM     14  C   UNL     1      34.097 -23.891 -15.182  0.00  0.00    +0.141 C 
ATOM     15  C   UNL     1      34.031 -23.502 -16.517  0.00  0.00    +0.038 C 
ATOM     16  C   UNL     1      32.951 -23.906 -14.393  0.00  0.00    +0.038 C 
ATOM     17  C   UNL     1      32.807 -23.123 -17.067  0.00  0.00    +0.017 C 
ATOM     18  C   UNL     1      31.727 -23.526 -14.943  0.00  0.00    +0.017 C 
ATOM     19  C   UNL     1      31.655 -23.134 -16.280  0.00  0.00    +0.042 C 
BRANCH  19  20
ATOM     20  N   UNL     1      30.417 -22.752 -16.837  0.00  0.00    -0.357 N 
ATOM     21  H   UNL     1      29.969 -23.337 -17.491  0.00  0.00    +0.142 HD
ATOM     22  H   UNL     1      30.000 -21.900 -16.573  0.00  0.00    +0.142 HD
ENDBRANCH  19  20
ENDBRANCH  13  14
ENDBRANCH   6  13
BRANCH   5  23
ATOM     23  C   UNL     1      36.038 -23.921 -10.482  0.00  0.00    +0.169 C 
BRANCH  23  24
ATOM     24  O   UNL     1      35.263 -24.987  -9.962  0.00  0.00    -0.379 OA
ATOM     25  H   UNL     1      35.500 -25.136  -9.034  0.00  0.00    +0.211 HD
ENDBRANCH  23  24
ENDBRANCH   5  23
TORSDOF 8
ENDMDL
MODEL 5
REMARK VINA RESULT:      -7.8      2.001      3.818
REMARK  Name = 445340
REMARK  8 active torsions:
REMARK  status: ('A' for Active; 'I' for Inactive)
REMARK    1  A    between atoms: C_2  and  O_7
REMARK    2  A    between atoms: C_3  and  O_9
REMARK    3  A    between atoms: C_4  and  O_11
REMARK    4  A    between atoms: C_5  and  C_23
REMARK    5  A    between atoms: C_6  and  O_13
REMARK    6  A    between atoms: O_13  and  C_14
REMARK    7  A    between atoms: C_19  and  N_20
REMARK    8  A    between atoms: C_23  and  O_24
REMARK                            x       y       z     vdW  Elec       q    Type
REMARK                         _______ _______ _______ _____ _____    ______ ____
ROOT
ATOM      1  O   UNL     1      34.397 -22.642 -15.191  0.00  0.00    -0.316 OA
ATOM      2  C   UNL     1      36.508 -24.591 -15.033  0.00  0.00    +0.173 C 
ATOM      3  C   UNL     1      35.240 -24.704 -14.183  0.00  0.00    +0.169 C 
ATOM      4  C   UNL     1      36.771 -23.131 -15.399  0.00  0.00    +0.210 C 
ATOM      5  C   UNL     1      34.067 -24.006 -14.885  0.00  0.00    +0.177 C 
ATOM      6  C   UNL     1      35.534 -22.506 -16.048  0.00  0.00    +0.318 C 
ENDROOT
BRANCH   2   7
ATOM      7  O   UNL     1      37.626 -25.103 -14.312  0.00  0.00    -0.379 OA
ATOM      8  H   UNL     1      37.832 -25.997 -14.628  0.00  0.00    +0.211 HD
ENDBRANCH   2   7
BRANCH   3   9
ATOM      9  O   UNL     1      35.457 -24.080 -12.915  0.00  0.00    -0.379 OA
ATOM     10  H   UNL     1      35.171 -23.153 -12.958  0.00  0.00    +0.211 HD
ENDBRANCH   3   9
BRANCH   4  11
ATOM     11  O   UNL     1      37.871 -23.037 -16.297  0.00  0.00    -0.377 OA
ATOM     12  H   UNL     1      37.902 -22.146 -16.680  0.00  0.00    +0.211 HD
ENDBRANCH   4  11
BRANCH   6  13
ATOM     13  O   UNL     1      35.304 -23.086 -17.331  0.00  0.00    -0.451 OA
BRANCH  13  14
ATOM     14  C   UNL     1      35.036 -22.221 -18.356  0.00  0.00    +0.141 C 
ATOM     15  C   UNL     1      36.080 -21.543 -18.978  0.00  0.00    +0.038 C 
ATOM     16  C   UNL     1      33.722 -22.026 -18.769  0.00  0.00    +0.038 C 
ATOM     17  C   UNL     1      35.806 -20.660 -20.022  0.00  0.00    +0.017 C 
ATOM     18  C   UNL     1      33.448 -21.143 -19.813  0.00  0.00    +0.017 C 
ATOM     19  C   UNL     1      34.491 -20.459 -20.440  0.00  0.00    +0.042 C 
BRANCH  19  20
ATOM     20  N   UNL     1      34.214 -19.567 -21.497  0.00  0.00    -0.357 N 
ATOM     21  H   UNL     1      34.918 -19.341 -22.147  0.00  0.00    +0.142 HD
ATOM     22  H   UNL     1      33.318 -19.170 -21.584  0.00  0.00    +0.142 HD
ENDBRANCH  19  20
ENDBRANCH  13  14
ENDBRANCH   6  13
BRANCH   5  23
ATOM     23  C   UNL     1      32.806 -23.984 -14.026  0.00  0.00    +0.169 C 
BRANCH  23  24
ATOM     24  O   UNL     1      32.806 -25.132 -13.195  0.00  0.00    -0.379 OA
ATOM     25  H   UNL     1      33.401 -25.800 -13.568  0.00  0.00    +0.211 HD
ENDBRANCH  23  24
ENDBRANCH   5  23
TORSDOF 8
ENDMDL
MODEL 6
REMARK VINA RESULT:      -7.7      1.376      1.732
REMARK  Name = 445340
REMARK  8 active torsions:
REMARK  status: ('A' for Active; 'I' for Inactive)
REMARK    1  A    between atoms: C_2  and  O_7
REMARK    2  A    between atoms: C_3  and  O_9
REMARK    3  A    between atoms: C_4  and  O_11
REMARK    4  A    between atoms: C_5  and  C_23
REMARK    5  A    between atoms: C_6  and  O_13
REMARK    6  A    between atoms: O_13  and  C_14
REMARK    7  A    between atoms: C_19  and  N_20
REMARK    8  A    between atoms: C_23  and  O_24
REMARK                            x       y       z     vdW  Elec       q    Type
REMARK                         _______ _______ _______ _____ _____    ______ ____
ROOT
ATOM      1  O   UNL     1      36.311 -25.419 -14.198  0.00  0.00    -0.316 OA
ATOM      2  C   UNL     1      36.854 -23.572 -12.059  0.00  0.00    +0.173 C 
ATOM      3  C   UNL     1      37.958 -24.423 -12.691  0.00  0.00    +0.169 C 
ATOM      4  C   UNL     1      35.499 -24.261 -12.219  0.00  0.00    +0.210 C 
ATOM      5  C   UNL     1      37.594 -24.775 -14.139  0.00  0.00    +0.177 C 
ATOM      6  C   UNL     1      35.244 -24.617 -13.685  0.00  0.00    +0.318 C 
ENDROOT
BRANCH   2   7
ATOM      7  O   UNL     1      37.121 -23.377 -10.673  0.00  0.00    -0.379 OA
ATOM      8  H   UNL     1      36.366 -23.692 -10.151  0.00  0.00    +0.211 HD
ENDBRANCH   2   7
BRANCH   3   9
ATOM      9  O   UNL     1      38.115 -25.633 -11.946  0.00  0.00    -0.379 OA
ATOM     10  H   UNL     1      38.951 -25.603 -11.455  0.00  0.00    +0.211 HD
ENDBRANCH   3   9
BRANCH   4  11
ATOM     11  O   UNL     1      34.455 -23.414 -11.752  0.00  0.00    -0.377 OA
ATOM     12  H   UNL     1      33.865 -23.191 -12.489  0.00  0.00    +0.211 HD
ENDBRANCH   4  11
BRANCH   6  13
ATOM     13  O   UNL     1      35.054 -23.430 -14.454  0.00  0.00    -0.451 OA
BRANCH  13  14
ATOM     14  C   UNL     1      33.846 -23.293 -15.082  0.00  0.00    +0.141 C 
ATOM     15  C   UNL     1      33.790 -23.268 -16.473  0.00  0.00    +0.038 C 
ATOM     16  C   UNL     1      32.684 -23.180 -14.325  0.00  0.00    +0.038 C 
ATOM     17  C   UNL     1      32.558 -23.126 -17.112  0.00  0.00    +0.017 C 
ATOM     18  C   UNL     1      31.453 -23.039 -14.965  0.00  0.00    +0.017 C 
ATOM     19  C   UNL     1      31.390 -23.012 -16.358  0.00  0.00    +0.042 C 
BRANCH  19  20
ATOM     20  N   UNL     1      30.144 -22.870 -17.006  0.00  0.00    -0.357 N 
ATOM     21  H   UNL     1      29.419 -22.363 -16.573  0.00  0.00    +0.142 HD
ATOM     22  H   UNL     1      30.000 -23.279 -17.889  0.00  0.00    +0.142 HD
ENDBRANCH  19  20
ENDBRANCH  13  14
ENDBRANCH   6  13
BRANCH   5  23
ATOM     23  C   UNL     1      38.605 -25.723 -14.778  0.00  0.00    +0.169 C 
BRANCH  23  24
ATOM     24  O   UNL     1      38.146 -27.052 -14.609  0.00  0.00    -0.379 OA
ATOM     25  H   UNL     1      37.613 -27.310 -15.376  0.00  0.00    +0.211 HD
ENDBRANCH  23  24
ENDBRANCH   5  23
TORSDOF 8
ENDMDL
MODEL 7
REMARK VINA RESULT:      -7.7      1.719      2.971
REMARK  Name = 445340
REMARK  8 active torsions:
REMARK  status: ('A' for Active; 'I' for Inactive)
REMARK    1  A    between atoms: C_2  and  O_7
REMARK    2  A    between atoms: C_3  and  O_9
REMARK    3  A    between atoms: C_4  and  O_11
REMARK    4  A    between atoms: C_5  and  C_23
REMARK    5  A    between atoms: C_6  and  O_13
REMARK    6  A    between atoms: O_13  and  C_14
REMARK    7  A    between atoms: C_19  and  N_20
REMARK    8  A    between atoms: C_23  and  O_24
REMARK                            x       y       z     vdW  Elec       q    Type
REMARK                         _______ _______ _______ _____ _____    ______ ____
ROOT
ATOM      1  O   UNL     1      37.533 -23.294 -13.875  0.00  0.00    -0.316 OA
ATOM      2  C   UNL     1      36.454 -25.945 -13.570  0.00  0.00    +0.173 C 
ATOM      3  C   UNL     1      36.851 -25.091 -12.364  0.00  0.00    +0.169 C 
ATOM      4  C   UNL     1      37.258 -25.527 -14.801  0.00  0.00    +0.210 C 
ATOM      5  C   UNL     1      36.749 -23.600 -12.711  0.00  0.00    +0.177 C 
ATOM      6  C   UNL     1      37.134 -24.020 -15.041  0.00  0.00    +0.318 C 
ENDROOT
BRANCH   2   7
ATOM      7  O   UNL     1      36.697 -27.322 -13.295  0.00  0.00    -0.379 OA
ATOM      8  H   UNL     1      36.630 -27.831 -14.118  0.00  0.00    +0.211 HD
ENDBRANCH   2   7
BRANCH   3   9
ATOM      9  O   UNL     1      38.200 -25.387 -11.992  0.00  0.00    -0.379 OA
ATOM     10  H   UNL     1      38.716 -25.593 -12.788  0.00  0.00    +0.211 HD
ENDBRANCH   3   9
BRANCH   4  11
ATOM     11  O   UNL     1      36.798 -26.225 -15.953  0.00  0.00    -0.377 OA
ATOM     12  H   UNL     1      36.948 -27.177 -15.837  0.00  0.00    +0.211 HD
ENDBRANCH   4  11
BRANCH   6  13
ATOM     13  O   UNL     1      35.805 -23.693 -15.442  0.00  0.00    -0.451 OA
BRANCH  13  14
ATOM     14  C   UNL     1      35.673 -22.991 -16.609  0.00  0.00    +0.141 C 
ATOM     15  C   UNL     1      34.464 -23.021 -17.300  0.00  0.00    +0.038 C 
ATOM     16  C   UNL     1      36.746 -22.252 -17.097  0.00  0.00    +0.038 C 
ATOM     17  C   UNL     1      34.330 -22.307 -18.490  0.00  0.00    +0.017 C 
ATOM     18  C   UNL     1      36.611 -21.539 -18.287  0.00  0.00    +0.017 C 
ATOM     19  C   UNL     1      35.403 -21.566 -18.984  0.00  0.00    +0.042 C 
BRANCH  19  20
ATOM     20  N   UNL     1      35.266 -20.842 -20.187  0.00  0.00    -0.357 N 
ATOM     21  H   UNL     1      35.414 -19.869 -20.196  0.00  0.00    +0.142 HD
ATOM     22  H   UNL     1      35.022 -21.310 -21.018  0.00  0.00    +0.142 HD
ENDBRANCH  19  20
ENDBRANCH  13  14
ENDBRANCH   6  13
BRANCH   5  23
ATOM     23  C   UNL     1      37.249 -22.704 -11.581  0.00  0.00    +0.169 C 
BRANCH  23  24
ATOM     24  O   UNL     1      38.666 -22.730 -11.579  0.00  0.00    -0.379 OA
ATOM     25  H   UNL     1      38.982 -23.121 -12.407  0.00  0.00    +0.211 HD
ENDBRANCH  23  24
ENDBRANCH   5  23
TORSDOF 8
ENDMDL
MODEL 8
REMARK VINA RESULT:      -7.7      8.763     11.977
REMARK  Name = 445340
REMARK  8 active torsions:
REMARK  status: ('A' for Active; 'I' for Inactive)
REMARK    1  A    between atoms: C_2  and  O_7
REMARK    2  A    between atoms: C_3  and  O_9
REMARK    3  A    between atoms: C_4  and  O_11
REMARK    4  A    between atoms: C_5  and  C_23
REMARK    5  A    between atoms: C_6  and  O_13
REMARK    6  A    between atoms: O_13  and  C_14
REMARK    7  A    between atoms: C_19  and  N_20
REMARK    8  A    between atoms: C_23  and  O_24
REMARK                            x       y       z     vdW  Elec       q    Type
REMARK                         _______ _______ _______ _____ _____    ______ ____
ROOT
ATOM      1  O   UNL     1      34.915 -15.986 -23.867  0.00  0.00    -0.316 OA
ATOM      2  C   UNL     1      33.266 -14.609 -21.952  0.00  0.00    +0.173 C 
ATOM      3  C   UNL     1      33.183 -14.311 -23.451  0.00  0.00    +0.169 C 
ATOM      4  C   UNL     1      34.649 -15.153 -21.596  0.00  0.00    +0.210 C 
ATOM      5  C   UNL     1      33.607 -15.543 -24.262  0.00  0.00    +0.177 C 
ATOM      6  C   UNL     1      35.005 -16.347 -22.486  0.00  0.00    +0.318 C 
ENDROOT
BRANCH   2   7
ATOM      7  O   UNL     1      33.021 -13.422 -21.203  0.00  0.00    -0.379 OA
ATOM      8  H   UNL     1      32.278 -13.570 -20.597  0.00  0.00    +0.211 HD
ENDBRANCH   2   7
BRANCH   3   9
ATOM      9  O   UNL     1      34.056 -13.225 -23.770  0.00  0.00    -0.379 OA
ATOM     10  H   UNL     1      33.813 -12.449 -23.241  0.00  0.00    +0.211 HD
ENDBRANCH   3   9
BRANCH   4  11
ATOM     11  O   UNL     1      34.687 -15.556 -20.232  0.00  0.00    -0.377 OA
ATOM     12  H   UNL     1      35.608 -15.606 -19.934  0.00  0.00    +0.211 HD
ENDBRANCH   4  11
BRANCH   6  13
ATOM     13  O   UNL     1      34.170 -17.460 -22.173  0.00  0.00    -0.451 OA
BRANCH  13  14
ATOM     14  C   UNL     1      34.753 -18.490 -21.486  0.00  0.00    +0.141 C 
ATOM     15  C   UNL     1      33.957 -19.488 -20.930  0.00  0.00    +0.038 C 
ATOM     16  C   UNL     1      36.137 -18.531 -21.348  0.00  0.00    +0.038 C 
ATOM     17  C   UNL     1      34.553 -20.536 -20.228  0.00  0.00    +0.017 C 
ATOM     18  C   UNL     1      36.732 -19.580 -20.645  0.00  0.00    +0.017 C 
ATOM     19  C   UNL     1      35.939 -20.582 -20.086  0.00  0.00    +0.042 C 
BRANCH  19  20
ATOM     20  N   UNL     1      36.541 -21.643 -19.377  0.00  0.00    -0.357 N 
ATOM     21  H   UNL     1      37.161 -22.254 -19.838  0.00  0.00    +0.142 HD
ATOM     22  H   UNL     1      36.340 -21.774 -18.423  0.00  0.00    +0.142 HD
ENDBRANCH  19  20
ENDBRANCH  13  14
ENDBRANCH   6  13
BRANCH   5  23
ATOM     23  C   UNL     1      33.659 -15.262 -25.761  0.00  0.00    +0.169 C 
BRANCH  23  24
ATOM     24  O   UNL     1      32.493 -14.544 -26.126  0.00  0.00    -0.379 OA
ATOM     25  H   UNL     1      32.683 -13.594 -26.119  0.00  0.00    +0.211 HD
ENDBRANCH  23  24
ENDBRANCH   5  23
TORSDOF 8
ENDMDL
MODEL 9
REMARK VINA RESULT:      -7.4      2.680      4.210
REMARK  Name = 445340
REMARK  8 active torsions:
REMARK  status: ('A' for Active; 'I' for Inactive)
REMARK    1  A    between atoms: C_2  and  O_7
REMARK    2  A    between atoms: C_3  and  O_9
REMARK    3  A    between atoms: C_4  and  O_11
REMARK    4  A    between atoms: C_5  and  C_23
REMARK    5  A    between atoms: C_6  and  O_13
REMARK    6  A    between atoms: O_13  and  C_14
REMARK    7  A    between atoms: C_19  and  N_20
REMARK    8  A    between atoms: C_23  and  O_24
REMARK                            x       y       z     vdW  Elec       q    Type
REMARK                         _______ _______ _______ _____ _____    ______ ____
ROOT
ATOM      1  O   UNL     1      35.010 -23.416 -12.791  0.00  0.00    -0.316 OA
ATOM      2  C   UNL     1      36.370 -25.205 -14.589  0.00  0.00    +0.173 C 
ATOM      3  C   UNL     1      36.888 -24.932 -13.175  0.00  0.00    +0.169 C 
ATOM      4  C   UNL     1      35.545 -24.018 -15.087  0.00  0.00    +0.210 C 
ATOM      5  C   UNL     1      35.729 -24.536 -12.251  0.00  0.00    +0.177 C 
ATOM      6  C   UNL     1      34.446 -23.665 -14.082  0.00  0.00    +0.318 C 
ENDROOT
BRANCH   2   7
ATOM      7  O   UNL     1      37.464 -25.422 -15.477  0.00  0.00    -0.379 OA
ATOM      8  H   UNL     1      37.211 -26.078 -16.145  0.00  0.00    +0.211 HD
ENDBRANCH   2   7
BRANCH   3   9
ATOM      9  O   UNL     1      37.837 -23.864 -13.211  0.00  0.00    -0.379 OA
ATOM     10  H   UNL     1      38.025 -23.568 -12.306  0.00  0.00    +0.211 HD
ENDBRANCH   3   9
BRANCH   4  11
ATOM     11  O   UNL     1      34.952 -24.321 -16.345  0.00  0.00    -0.377 OA
ATOM     12  H   UNL     1      35.644 -24.563 -16.980  0.00  0.00    +0.211 HD
ENDBRANCH   4  11
BRANCH   6  13
ATOM     13  O   UNL     1      33.465 -24.700 -14.042  0.00  0.00    -0.451 OA
BRANCH  13  14
ATOM     14  C   UNL     1      32.196 -24.357 -14.421  0.00  0.00    +0.141 C 
ATOM     15  C   UNL     1      31.126 -25.179 -14.077  0.00  0.00    +0.038 C 
ATOM     16  C   UNL     1      31.984 -23.189 -15.147  0.00  0.00    +0.038 C 
ATOM     17  C   UNL     1      29.833 -24.829 -14.465  0.00  0.00    +0.017 C 
ATOM     18  C   UNL     1      30.691 -22.840 -15.535  0.00  0.00    +0.017 C 
ATOM     19  C   UNL     1      29.615 -23.660 -15.194  0.00  0.00    +0.042 C 
BRANCH  19  20
ATOM     20  N   UNL     1      28.307 -23.306 -15.585  0.00  0.00    -0.357 N 
ATOM     21  H   UNL     1      28.157 -22.836 -16.437  0.00  0.00    +0.142 HD
ATOM     22  H   UNL     1      27.543 -23.527 -15.005  0.00  0.00    +0.142 HD
ENDBRANCH  19  20
ENDBRANCH  13  14
ENDBRANCH   6  13
BRANCH   5  23
ATOM     23  C   UNL     1      36.206 -24.137 -10.858  0.00  0.00    +0.169 C 
BRANCH  23  24
ATOM     24  O   UNL     1      35.293 -24.650  -9.904  0.00  0.00    -0.379 OA
ATOM     25  H   UNL     1      35.424 -25.606  -9.814  0.00  0.00    +0.211 HD
ENDBRANCH  23  24
ENDBRANCH   5  23
TORSDOF 8
ENDMDL
