MODEL 1
REMARK VINA RESULT:      -8.7      0.000      0.000
REMARK  Name = 9600398
REMARK  15 active torsions:
REMARK  status: ('A' for Active; 'I' for Inactive)
REMARK    1  A    between atoms: N_1  and  C_6
REMARK    2  A    between atoms: N_1  and  C_21
REMARK    3  A    between atoms: N_5  and  C_11
REMARK    4  A    between atoms: C_7  and  S_9
REMARK    5  A    between atoms: C_11  and  C_13
REMARK    6  A    between atoms: C_11  and  C_16
REMARK    7  A    between atoms: C_13  and  O_14
REMARK    8  A    between atoms: C_16  and  S_17
REMARK    9  A    between atoms: C_21  and  C_22
REMARK   10  A    between atoms: C_22  and  C_23
REMARK   11  A    between atoms: C_23  and  C_24
REMARK   12  A    between atoms: C_24  and  C_25
REMARK   13  A    between atoms: C_25  and  N_26
REMARK   14  A    between atoms: C_25  and  C_31
REMARK   15  A    between atoms: C_31  and  O_32
REMARK                            x       y       z     vdW  Elec       q    Type
REMARK                         _______ _______ _______ _____ _____    ______ ____
ROOT
ATOM      1  N   UNK A   1      32.977 -23.446 -14.196  0.00  0.00    -0.362 NA
ATOM      2  H   UNK A   1      33.239 -22.546 -14.496  0.00  0.00    +0.127 HD
ATOM      3  H   UNK A   1      33.415 -23.638 -15.056  0.00  0.00    +0.127 HD
ENDROOT
BRANCH   1   6
ATOM      4  O   UNK A   1      34.717 -24.386 -11.635  0.00  0.00    -0.273 OA
ATOM      5  N   UNK A   2      35.999 -24.201 -13.602  0.00  0.00    -0.260 N 
ATOM      6  C   UNK A   1      34.014 -24.487 -14.084  0.00  0.00    +0.161 C 
ATOM      7  C   UNK A   1      35.313 -24.302 -14.880  0.00  0.00    +0.146 C 
ATOM      8  C   UNK A   1      34.888 -24.350 -12.832  0.00  0.00    +0.246 C 
BRANCH   7   9
ATOM      9  S   UNK A   1      35.472 -22.745 -15.820  0.00  0.00    -0.147 S 
ATOM     10  H   UNK A   1      34.257 -22.143 -15.909  0.00  0.00    +0.104 HD
ENDBRANCH   7   9
BRANCH   5  11
ATOM     11  C   UNK A   2      37.390 -24.150 -13.282  0.00  0.00    +0.189 C 
BRANCH  11  13
ATOM     12  O   UNK A   2      37.925 -22.248 -11.888  0.00  0.00    -0.248 OA
ATOM     13  C   UNK A   2      37.620 -23.435 -11.961  0.00  0.00    +0.333 C 
BRANCH  13  14
ATOM     14  O   UNK A   2      37.457 -24.206 -10.860  0.00  0.00    -0.479 OA
ATOM     15  H   UNK A   2      36.753 -24.032 -10.266  0.00  0.00    +0.295 HD
ENDBRANCH  13  14
ENDBRANCH  11  13
BRANCH  11  16
ATOM     16  C   UNK A   2      38.000 -25.549 -13.230  0.00  0.00    +0.123 C 
BRANCH  16  17
ATOM     17  S   UNK A   2      39.629 -25.599 -14.044  0.00  0.00    +0.045 S 
ATOM     18  O   UNK A   2      39.751 -26.939 -14.696  0.00  0.00    -0.256 OA
ATOM     19  C   UNK A   2      39.212 -24.397 -15.330  0.00  0.00    +0.106 C 
ENDBRANCH  16  17
ENDBRANCH  11  16
ENDBRANCH   5  11
ENDBRANCH   1   6
BRANCH   1  21
ATOM     20  O   UNK A   1      31.145 -23.562 -12.778  0.00  0.00    -0.277 OA
ATOM     21  C   UNK A   1      31.641 -23.687 -13.895  0.00  0.00    +0.207 C 
BRANCH  21  22
ATOM     22  C   UNK A   1      30.862 -24.153 -15.113  0.00  0.00    +0.083 C 
BRANCH  22  23
ATOM     23  C   UNK A   1      30.457 -23.017 -16.053  0.00  0.00    +0.008 C 
BRANCH  23  24
ATOM     24  C   UNK A   1      29.157 -22.330 -15.603  0.00  0.00    -0.011 C 
BRANCH  24  25
ATOM     25  C   UNK A   1      27.867 -23.022 -16.069  0.00  0.00    +0.036 C 
BRANCH  25  26
ATOM     26  N   UNK A   1      28.068 -23.849 -17.260  0.00  0.00    +0.389 N 
ATOM     27  H   UNK A   1      28.341 -23.255 -18.043  0.00  0.00    -0.088 HD
ATOM     28  H   UNK A   1      27.199 -24.333 -17.488  0.00  0.00    -0.088 HD
ATOM     29  H   UNK A   1      28.802 -24.533 -17.079  0.00  0.00    -0.088 HD
ENDBRANCH  25  26
BRANCH  25  31
ATOM     30  O   UNK A   1      26.747 -21.230 -17.291  0.00  0.00    -0.253 OA
ATOM     31  C   UNK A   1      26.756 -22.031 -16.366  0.00  0.00    +0.293 C 
BRANCH  31  32
ATOM     32  O   UNK A   1      25.737 -22.127 -15.471  0.00  0.00    -0.482 OA
ATOM     33  H   UNK A   1      25.923 -22.212 -14.556  0.00  0.00    +0.295 HD
ENDBRANCH  31  32
ENDBRANCH  25  31
ENDBRANCH  24  25
ENDBRANCH  23  24
ENDBRANCH  22  23
ENDBRANCH  21  22
ENDBRANCH   1  21
TORSDOF 15
ENDMDL
MODEL 2
REMARK VINA RESULT:      -8.7      5.503      6.799
REMARK  Name = 9600398
REMARK  15 active torsions:
REMARK  status: ('A' for Active; 'I' for Inactive)
REMARK    1  A    between atoms: N_1  and  C_6
REMARK    2  A    between atoms: N_1  and  C_21
REMARK    3  A    between atoms: N_5  and  C_11
REMARK    4  A    between atoms: C_7  and  S_9
REMARK    5  A    between atoms: C_11  and  C_13
REMARK    6  A    between atoms: C_11  and  C_16
REMARK    7  A    between atoms: C_13  and  O_14
REMARK    8  A    between atoms: C_16  and  S_17
REMARK    9  A    between atoms: C_21  and  C_22
REMARK   10  A    between atoms: C_22  and  C_23
REMARK   11  A    between atoms: C_23  and  C_24
REMARK   12  A    between atoms: C_24  and  C_25
REMARK   13  A    between atoms: C_25  and  N_26
REMARK   14  A    between atoms: C_25  and  C_31
REMARK   15  A    between atoms: C_31  and  O_32
REMARK                            x       y       z     vdW  Elec       q    Type
REMARK                         _______ _______ _______ _____ _____    ______ ____
ROOT
ATOM      1  N   UNK A   1      36.269 -22.311 -17.683  0.00  0.00    -0.362 NA
ATOM      2  H   UNK A   1      35.874 -23.133 -18.054  0.00  0.00    +0.127 HD
ATOM      3  H   UNK A   1      35.460 -22.414 -17.133  0.00  0.00    +0.127 HD
ENDROOT
BRANCH   1   6
ATOM      4  O   UNK A   1      38.763 -23.502 -16.000  0.00  0.00    -0.273 OA
ATOM      5  N   UNK A   2      36.687 -23.847 -14.941  0.00  0.00    -0.260 N 
ATOM      6  C   UNK A   1      36.554 -22.250 -16.240  0.00  0.00    +0.161 C 
ATOM      7  C   UNK A   1      35.588 -22.959 -15.281  0.00  0.00    +0.146 C 
ATOM      8  C   UNK A   1      37.595 -23.274 -15.776  0.00  0.00    +0.246 C 
BRANCH   7   9
ATOM      9  S   UNK A   1      34.222 -23.891 -16.052  0.00  0.00    -0.147 S 
ATOM     10  H   UNK A   1      33.252 -23.027 -16.453  0.00  0.00    +0.104 HD
ENDBRANCH   7   9
BRANCH   5  11
ATOM     11  C   UNK A   2      36.807 -24.854 -13.935  0.00  0.00    +0.189 C 
BRANCH  11  13
ATOM     12  O   UNK A   2      38.208 -26.715 -14.586  0.00  0.00    -0.248 OA
ATOM     13  C   UNK A   2      37.088 -26.214 -14.555  0.00  0.00    +0.333 C 
BRANCH  13  14
ATOM     14  O   UNK A   2      36.003 -26.840 -15.068  0.00  0.00    -0.479 OA
ATOM     15  H   UNK A   2      35.784 -26.730 -15.973  0.00  0.00    +0.295 HD
ENDBRANCH  13  14
ENDBRANCH  11  13
BRANCH  11  16
ATOM     16  C   UNK A   2      37.899 -24.506 -12.928  0.00  0.00    +0.123 C 
BRANCH  16  17
ATOM     17  S   UNK A   2      37.198 -23.819 -11.392  0.00  0.00    +0.045 S 
ATOM     18  O   UNK A   2      37.301 -22.330 -11.492  0.00  0.00    -0.256 OA
ATOM     19  C   UNK A   2      35.490 -24.280 -11.766  0.00  0.00    +0.106 C 
ENDBRANCH  16  17
ENDBRANCH  11  16
ENDBRANCH   5  11
ENDBRANCH   1   6
BRANCH   1  21
ATOM     20  O   UNK A   1      37.234 -20.281 -18.259  0.00  0.00    -0.277 OA
ATOM     21  C   UNK A   1      36.537 -21.252 -18.543  0.00  0.00    +0.207 C 
BRANCH  21  22
ATOM     22  C   UNK A   1      35.838 -21.420 -19.882  0.00  0.00    +0.083 C 
BRANCH  22  23
ATOM     23  C   UNK A   1      34.385 -20.942 -19.879  0.00  0.00    +0.008 C 
BRANCH  23  24
ATOM     24  C   UNK A   1      34.127 -19.872 -20.953  0.00  0.00    -0.011 C 
BRANCH  24  25
ATOM     25  C   UNK A   1      35.372 -19.092 -21.399  0.00  0.00    +0.036 C 
BRANCH  25  26
ATOM     26  N   UNK A   1      35.553 -17.844 -20.656  0.00  0.00    +0.389 N 
ATOM     27  H   UNK A   1      36.454 -17.862 -20.176  0.00  0.00    -0.088 HD
ATOM     28  H   UNK A   1      34.806 -17.746 -19.969  0.00  0.00    -0.088 HD
ATOM     29  H   UNK A   1      35.528 -17.057 -21.303  0.00  0.00    -0.088 HD
ENDBRANCH  25  26
BRANCH  25  31
ATOM     30  O   UNK A   1      34.861 -19.462 -23.758  0.00  0.00    -0.253 OA
ATOM     31  C   UNK A   1      35.343 -18.758 -22.880  0.00  0.00    +0.293 C 
BRANCH  31  32
ATOM     32  O   UNK A   1      35.924 -17.557 -23.142  0.00  0.00    -0.482 OA
ATOM     33  H   UNK A   1      35.693 -16.805 -22.634  0.00  0.00    +0.295 HD
ENDBRANCH  31  32
ENDBRANCH  25  31
ENDBRANCH  24  25
ENDBRANCH  23  24
ENDBRANCH  22  23
ENDBRANCH  21  22
ENDBRANCH   1  21
TORSDOF 15
ENDMDL
MODEL 3
REMARK VINA RESULT:      -8.7      5.400      6.338
REMARK  Name = 9600398
REMARK  15 active torsions:
REMARK  status: ('A' for Active; 'I' for Inactive)
REMARK    1  A    between atoms: N_1  and  C_6
REMARK    2  A    between atoms: N_1  and  C_21
REMARK    3  A    between atoms: N_5  and  C_11
REMARK    4  A    between atoms: C_7  and  S_9
REMARK    5  A    between atoms: C_11  and  C_13
REMARK    6  A    between atoms: C_11  and  C_16
REMARK    7  A    between atoms: C_13  and  O_14
REMARK    8  A    between atoms: C_16  and  S_17
REMARK    9  A    between atoms: C_21  and  C_22
REMARK   10  A    between atoms: C_22  and  C_23
REMARK   11  A    between atoms: C_23  and  C_24
REMARK   12  A    between atoms: C_24  and  C_25
REMARK   13  A    between atoms: C_25  and  N_26
REMARK   14  A    between atoms: C_25  and  C_31
REMARK   15  A    between atoms: C_31  and  O_32
REMARK                            x       y       z     vdW  Elec       q    Type
REMARK                         _______ _______ _______ _____ _____    ______ ____
ROOT
ATOM      1  N   UNK A   1      36.066 -22.381 -17.664  0.00  0.00    -0.362 NA
ATOM      2  H   UNK A   1      35.772 -23.304 -17.843  0.00  0.00    +0.127 HD
ATOM      3  H   UNK A   1      35.322 -22.485 -17.027  0.00  0.00    +0.127 HD
ENDROOT
BRANCH   1   6
ATOM      4  O   UNK A   1      38.676 -23.184 -15.928  0.00  0.00    -0.273 OA
ATOM      5  N   UNK A   2      36.677 -23.290 -14.688  0.00  0.00    -0.260 N 
ATOM      6  C   UNK A   1      36.441 -22.010 -16.288  0.00  0.00    +0.161 C 
ATOM      7  C   UNK A   1      35.547 -22.495 -15.139  0.00  0.00    +0.146 C 
ATOM      8  C   UNK A   1      37.523 -22.912 -15.683  0.00  0.00    +0.246 C 
BRANCH   7   9
ATOM      9  S   UNK A   1      34.147 -23.570 -15.600  0.00  0.00    -0.147 S 
ATOM     10  H   UNK A   1      34.260 -24.762 -14.957  0.00  0.00    +0.104 HD
ENDBRANCH   7   9
BRANCH   5  11
ATOM     11  C   UNK A   2      36.874 -24.056 -13.499  0.00  0.00    +0.189 C 
BRANCH  11  13
ATOM     12  O   UNK A   2      37.078 -22.541 -11.625  0.00  0.00    -0.248 OA
ATOM     13  C   UNK A   2      36.372 -23.305 -12.276  0.00  0.00    +0.333 C 
BRANCH  13  14
ATOM     14  O   UNK A   2      35.076 -23.535 -11.958  0.00  0.00    -0.479 OA
ATOM     15  H   UNK A   2      34.601 -22.910 -11.447  0.00  0.00    +0.295 HD
ENDBRANCH  13  14
ENDBRANCH  11  13
BRANCH  11  16
ATOM     16  C   UNK A   2      36.185 -25.415 -13.593  0.00  0.00    +0.123 C 
BRANCH  16  17
ATOM     17  S   UNK A   2      37.326 -26.702 -14.193  0.00  0.00    +0.045 S 
ATOM     18  O   UNK A   2      37.276 -26.669 -15.688  0.00  0.00    -0.256 OA
ATOM     19  C   UNK A   2      38.833 -25.848 -13.674  0.00  0.00    +0.106 C 
ENDBRANCH  16  17
ENDBRANCH  11  16
ENDBRANCH   5  11
ENDBRANCH   1   6
BRANCH   1  21
ATOM     20  O   UNK A   1      36.887 -20.528 -18.794  0.00  0.00    -0.277 OA
ATOM     21  C   UNK A   1      36.110 -21.478 -18.719  0.00  0.00    +0.207 C 
BRANCH  21  22
ATOM     22  C   UNK A   1      35.058 -21.786 -19.771  0.00  0.00    +0.083 C 
BRANCH  22  23
ATOM     23  C   UNK A   1      33.890 -20.798 -19.777  0.00  0.00    +0.008 C 
BRANCH  23  24
ATOM     24  C   UNK A   1      33.864 -19.942 -21.054  0.00  0.00    -0.011 C 
BRANCH  24  25
ATOM     25  C   UNK A   1      35.233 -19.409 -21.501  0.00  0.00    +0.036 C 
BRANCH  25  26
ATOM     26  N   UNK A   1      35.731 -18.336 -20.639  0.00  0.00    +0.389 N 
ATOM     27  H   UNK A   1      35.439 -18.510 -19.677  0.00  0.00    -0.088 HD
ATOM     28  H   UNK A   1      35.349 -17.444 -20.953  0.00  0.00    -0.088 HD
ATOM     29  H   UNK A   1      36.748 -18.307 -20.686  0.00  0.00    -0.088 HD
ENDBRANCH  25  26
BRANCH  25  31
ATOM     30  O   UNK A   1      34.532 -19.350 -23.839  0.00  0.00    -0.253 OA
ATOM     31  C   UNK A   1      35.213 -18.895 -22.930  0.00  0.00    +0.293 C 
BRANCH  31  32
ATOM     32  O   UNK A   1      36.053 -17.840 -23.102  0.00  0.00    -0.482 OA
ATOM     33  H   UNK A   1      36.745 -17.890 -23.732  0.00  0.00    +0.295 HD
ENDBRANCH  31  32
ENDBRANCH  25  31
ENDBRANCH  24  25
ENDBRANCH  23  24
ENDBRANCH  22  23
ENDBRANCH  21  22
ENDBRANCH   1  21
TORSDOF 15
ENDMDL
MODEL 4
REMARK VINA RESULT:      -8.7      1.889      2.132
REMARK  Name = 9600398
REMARK  15 active torsions:
REMARK  status: ('A' for Active; 'I' for Inactive)
REMARK    1  A    between atoms: N_1  and  C_6
REMARK    2  A    between atoms: N_1  and  C_21
REMARK    3  A    between atoms: N_5  and  C_11
REMARK    4  A    between atoms: C_7  and  S_9
REMARK    5  A    between atoms: C_11  and  C_13
REMARK    6  A    between atoms: C_11  and  C_16
REMARK    7  A    between atoms: C_13  and  O_14
REMARK    8  A    between atoms: C_16  and  S_17
REMARK    9  A    between atoms: C_21  and  C_22
REMARK   10  A    between atoms: C_22  and  C_23
REMARK   11  A    between atoms: C_23  and  C_24
REMARK   12  A    between atoms: C_24  and  C_25
REMARK   13  A    between atoms: C_25  and  N_26
REMARK   14  A    between atoms: C_25  and  C_31
REMARK   15  A    between atoms: C_31  and  O_32
REMARK                            x       y       z     vdW  Elec       q    Type
REMARK                         _______ _______ _______ _____ _____    ______ ____
ROOT
ATOM      1  N   UNK A   1      34.010 -23.122 -15.728  0.00  0.00    -0.362 NA
ATOM      2  H   UNK A   1      33.826 -22.368 -15.122  0.00  0.00    +0.127 HD
ATOM      3  H   UNK A   1      34.914 -22.772 -15.557  0.00  0.00    +0.127 HD
ENDROOT
BRANCH   1   6
ATOM      4  O   UNK A   1      34.521 -24.368 -12.786  0.00  0.00    -0.273 OA
ATOM      5  N   UNK A   2      36.515 -23.948 -13.968  0.00  0.00    -0.260 N 
ATOM      6  C   UNK A   1      34.949 -24.169 -15.292  0.00  0.00    +0.161 C 
ATOM      7  C   UNK A   1      36.453 -23.891 -15.419  0.00  0.00    +0.146 C 
ATOM      8  C   UNK A   1      35.189 -24.187 -13.779  0.00  0.00    +0.246 C 
BRANCH   7   9
ATOM      9  S   UNK A   1      36.922 -22.233 -16.019  0.00  0.00    -0.147 S 
ATOM     10  H   UNK A   1      36.501 -22.079 -17.303  0.00  0.00    +0.104 HD
ENDBRANCH   7   9
BRANCH   5  11
ATOM     11  C   UNK A   2      37.627 -23.938 -13.072  0.00  0.00    +0.189 C 
BRANCH  11  13
ATOM     12  O   UNK A   2      37.221 -22.242 -11.397  0.00  0.00    -0.248 OA
ATOM     13  C   UNK A   2      37.218 -23.432 -11.699  0.00  0.00    +0.333 C 
BRANCH  13  14
ATOM     14  O   UNK A   2      36.839 -24.396 -10.826  0.00  0.00    -0.479 OA
ATOM     15  H   UNK A   2      36.694 -25.270 -11.129  0.00  0.00    +0.295 HD
ENDBRANCH  13  14
ENDBRANCH  11  13
BRANCH  11  16
ATOM     16  C   UNK A   2      38.254 -25.325 -12.950  0.00  0.00    +0.123 C 
BRANCH  16  17
ATOM     17  S   UNK A   2      38.738 -25.985 -14.578  0.00  0.00    +0.045 S 
ATOM     18  O   UNK A   2      40.022 -26.729 -14.383  0.00  0.00    -0.256 OA
ATOM     19  C   UNK A   2      37.405 -27.203 -14.669  0.00  0.00    +0.106 C 
ENDBRANCH  16  17
ENDBRANCH  11  16
ENDBRANCH   5  11
ENDBRANCH   1   6
BRANCH   1  21
ATOM     20  O   UNK A   1      33.951 -23.243 -18.044  0.00  0.00    -0.277 OA
ATOM     21  C   UNK A   1      33.373 -23.155 -16.963  0.00  0.00    +0.207 C 
BRANCH  21  22
ATOM     22  C   UNK A   1      31.864 -23.042 -16.825  0.00  0.00    +0.083 C 
BRANCH  22  23
ATOM     23  C   UNK A   1      31.346 -23.418 -15.436  0.00  0.00    +0.008 C 
BRANCH  23  24
ATOM     24  C   UNK A   1      30.037 -22.690 -15.091  0.00  0.00    -0.011 C 
BRANCH  24  25
ATOM     25  C   UNK A   1      28.758 -23.494 -15.375  0.00  0.00    +0.036 C 
BRANCH  25  26
ATOM     26  N   UNK A   1      28.952 -24.936 -15.222  0.00  0.00    +0.389 N 
ATOM     27  H   UNK A   1      28.055 -25.381 -15.025  0.00  0.00    -0.088 HD
ATOM     28  H   UNK A   1      29.595 -25.113 -14.450  0.00  0.00    -0.088 HD
ATOM     29  H   UNK A   1      29.340 -25.320 -16.083  0.00  0.00    -0.088 HD
ENDBRANCH  25  26
BRANCH  25  31
ATOM     30  O   UNK A   1      27.754 -24.086 -17.520  0.00  0.00    -0.253 OA
ATOM     31  C   UNK A   1      28.214 -23.236 -16.769  0.00  0.00    +0.293 C 
BRANCH  31  32
ATOM     32  O   UNK A   1      28.290 -21.922 -17.109  0.00  0.00    -0.482 OA
ATOM     33  H   UNK A   1      29.004 -21.399 -16.802  0.00  0.00    +0.295 HD
ENDBRANCH  31  32
ENDBRANCH  25  31
ENDBRANCH  24  25
ENDBRANCH  23  24
ENDBRANCH  22  23
ENDBRANCH  21  22
ENDBRANCH   1  21
TORSDOF 15
ENDMDL
MODEL 5
REMARK VINA RESULT:      -8.5      2.440      3.136
REMARK  Name = 9600398
REMARK  15 active torsions:
REMARK  status: ('A' for Active; 'I' for Inactive)
REMARK    1  A    between atoms: N_1  and  C_6
REMARK    2  A    between atoms: N_1  and  C_21
REMARK    3  A    between atoms: N_5  and  C_11
REMARK    4  A    between atoms: C_7  and  S_9
REMARK    5  A    between atoms: C_11  and  C_13
REMARK    6  A    between atoms: C_11  and  C_16
REMARK    7  A    between atoms: C_13  and  O_14
REMARK    8  A    between atoms: C_16  and  S_17
REMARK    9  A    between atoms: C_21  and  C_22
REMARK   10  A    between atoms: C_22  and  C_23
REMARK   11  A    between atoms: C_23  and  C_24
REMARK   12  A    between atoms: C_24  and  C_25
REMARK   13  A    between atoms: C_25  and  N_26
REMARK   14  A    between atoms: C_25  and  C_31
REMARK   15  A    between atoms: C_31  and  O_32
REMARK                            x       y       z     vdW  Elec       q    Type
REMARK                         _______ _______ _______ _____ _____    ______ ____
ROOT
ATOM      1  N   UNK A   1      34.010 -23.195 -15.698  0.00  0.00    -0.362 NA
ATOM      2  H   UNK A   1      33.773 -22.460 -15.086  0.00  0.00    +0.127 HD
ATOM      3  H   UNK A   1      34.893 -22.818 -15.481  0.00  0.00    +0.127 HD
ENDROOT
BRANCH   1   6
ATOM      4  O   UNK A   1      34.528 -24.385 -12.734  0.00  0.00    -0.273 OA
ATOM      5  N   UNK A   2      36.520 -23.945 -13.911  0.00  0.00    -0.260 N 
ATOM      6  C   UNK A   1      34.967 -24.217 -15.240  0.00  0.00    +0.161 C 
ATOM      7  C   UNK A   1      36.466 -23.912 -15.363  0.00  0.00    +0.146 C 
ATOM      8  C   UNK A   1      35.199 -24.207 -13.725  0.00  0.00    +0.246 C 
BRANCH   7   9
ATOM      9  S   UNK A   1      36.906 -22.254 -15.987  0.00  0.00    -0.147 S 
ATOM     10  H   UNK A   1      37.685 -22.378 -17.094  0.00  0.00    +0.104 HD
ENDBRANCH   7   9
BRANCH   5  11
ATOM     11  C   UNK A   2      37.627 -23.899 -13.009  0.00  0.00    +0.189 C 
BRANCH  11  13
ATOM     12  O   UNK A   2      37.239 -22.166 -11.368  0.00  0.00    -0.248 OA
ATOM     13  C   UNK A   2      37.204 -23.359 -11.652  0.00  0.00    +0.333 C 
BRANCH  13  14
ATOM     14  O   UNK A   2      36.776 -24.297 -10.775  0.00  0.00    -0.479 OA
ATOM     15  H   UNK A   2      36.174 -24.960 -11.054  0.00  0.00    +0.295 HD
ENDBRANCH  13  14
ENDBRANCH  11  13
BRANCH  11  16
ATOM     16  C   UNK A   2      38.266 -25.275 -12.845  0.00  0.00    +0.123 C 
BRANCH  16  17
ATOM     17  S   UNK A   2      39.174 -25.774 -14.344  0.00  0.00    +0.045 S 
ATOM     18  O   UNK A   2      40.411 -26.483 -13.891  0.00  0.00    -0.256 OA
ATOM     19  C   UNK A   2      37.977 -27.028 -14.857  0.00  0.00    +0.106 C 
ENDBRANCH  16  17
ENDBRANCH  11  16
ENDBRANCH   5  11
ENDBRANCH   1   6
BRANCH   1  21
ATOM     20  O   UNK A   1      34.008 -23.571 -17.987  0.00  0.00    -0.277 OA
ATOM     21  C   UNK A   1      33.428 -23.227 -16.960  0.00  0.00    +0.207 C 
BRANCH  21  22
ATOM     22  C   UNK A   1      31.984 -22.757 -16.929  0.00  0.00    +0.083 C 
BRANCH  22  23
ATOM     23  C   UNK A   1      31.259 -23.088 -15.623  0.00  0.00    +0.008 C 
BRANCH  23  24
ATOM     24  C   UNK A   1      30.135 -24.116 -15.831  0.00  0.00    -0.011 C 
BRANCH  24  25
ATOM     25  C   UNK A   1      30.113 -25.263 -14.809  0.00  0.00    +0.036 C 
BRANCH  25  26
ATOM     26  N   UNK A   1      28.766 -25.556 -14.318  0.00  0.00    +0.389 N 
ATOM     27  H   UNK A   1      28.456 -26.454 -14.690  0.00  0.00    -0.088 HD
ATOM     28  H   UNK A   1      28.125 -24.823 -14.624  0.00  0.00    -0.088 HD
ATOM     29  H   UNK A   1      28.777 -25.596 -13.300  0.00  0.00    -0.088 HD
ENDBRANCH  25  26
BRANCH  25  31
ATOM     30  O   UNK A   1      30.699 -24.290 -12.648  0.00  0.00    -0.253 OA
ATOM     31  C   UNK A   1      31.001 -24.983 -13.611  0.00  0.00    +0.293 C 
BRANCH  31  32
ATOM     32  O   UNK A   1      32.207 -25.603 -13.715  0.00  0.00    -0.482 OA
ATOM     33  H   UNK A   1      32.667 -25.866 -12.943  0.00  0.00    +0.295 HD
ENDBRANCH  31  32
ENDBRANCH  25  31
ENDBRANCH  24  25
ENDBRANCH  23  24
ENDBRANCH  22  23
ENDBRANCH  21  22
ENDBRANCH   1  21
TORSDOF 15
ENDMDL
MODEL 6
REMARK VINA RESULT:      -8.3      4.638      5.512
REMARK  Name = 9600398
REMARK  15 active torsions:
REMARK  status: ('A' for Active; 'I' for Inactive)
REMARK    1  A    between atoms: N_1  and  C_6
REMARK    2  A    between atoms: N_1  and  C_21
REMARK    3  A    between atoms: N_5  and  C_11
REMARK    4  A    between atoms: C_7  and  S_9
REMARK    5  A    between atoms: C_11  and  C_13
REMARK    6  A    between atoms: C_11  and  C_16
REMARK    7  A    between atoms: C_13  and  O_14
REMARK    8  A    between atoms: C_16  and  S_17
REMARK    9  A    between atoms: C_21  and  C_22
REMARK   10  A    between atoms: C_22  and  C_23
REMARK   11  A    between atoms: C_23  and  C_24
REMARK   12  A    between atoms: C_24  and  C_25
REMARK   13  A    between atoms: C_25  and  N_26
REMARK   14  A    between atoms: C_25  and  C_31
REMARK   15  A    between atoms: C_31  and  O_32
REMARK                            x       y       z     vdW  Elec       q    Type
REMARK                         _______ _______ _______ _____ _____    ______ ____
ROOT
ATOM      1  N   UNK A   1      34.944 -23.482 -16.585  0.00  0.00    -0.362 NA
ATOM      2  H   UNK A   1      35.396 -24.294 -16.913  0.00  0.00    +0.127 HD
ATOM      3  H   UNK A   1      35.019 -24.019 -15.763  0.00  0.00    +0.127 HD
ENDROOT
BRANCH   1   6
ATOM      4  O   UNK A   1      38.049 -22.795 -15.986  0.00  0.00    -0.273 OA
ATOM      5  N   UNK A   2      36.868 -23.469 -14.064  0.00  0.00    -0.260 N 
ATOM      6  C   UNK A   1      35.553 -22.733 -15.472  0.00  0.00    +0.161 C 
ATOM      7  C   UNK A   1      35.423 -23.310 -14.055  0.00  0.00    +0.146 C 
ATOM      8  C   UNK A   1      37.058 -22.978 -15.317  0.00  0.00    +0.246 C 
BRANCH   7   9
ATOM      9  S   UNK A   1      34.598 -24.932 -13.914  0.00  0.00    -0.147 S 
ATOM     10  H   UNK A   1      35.477 -25.847 -13.428  0.00  0.00    +0.104 HD
ENDBRANCH   7   9
BRANCH   5  11
ATOM     11  C   UNK A   2      37.780 -23.844 -13.030  0.00  0.00    +0.189 C 
BRANCH  11  13
ATOM     12  O   UNK A   2      36.757 -24.260 -10.878  0.00  0.00    -0.248 OA
ATOM     13  C   UNK A   2      37.244 -23.451 -11.662  0.00  0.00    +0.333 C 
BRANCH  13  14
ATOM     14  O   UNK A   2      37.351 -22.135 -11.365  0.00  0.00    -0.479 OA
ATOM     15  H   UNK A   2      38.008 -21.612 -11.782  0.00  0.00    +0.295 HD
ENDBRANCH  13  14
ENDBRANCH  11  13
BRANCH  11  16
ATOM     16  C   UNK A   2      38.074 -25.341 -13.063  0.00  0.00    +0.123 C 
BRANCH  16  17
ATOM     17  S   UNK A   2      38.763 -25.851 -14.671  0.00  0.00    +0.045 S 
ATOM     18  O   UNK A   2      39.940 -26.729 -14.384  0.00  0.00    -0.256 OA
ATOM     19  C   UNK A   2      37.375 -26.919 -15.119  0.00  0.00    +0.106 C 
ENDBRANCH  16  17
ENDBRANCH  11  16
ENDBRANCH   5  11
ENDBRANCH   1   6
BRANCH   1  21
ATOM     20  O   UNK A   1      32.676 -22.999 -16.615  0.00  0.00    -0.277 OA
ATOM     21  C   UNK A   1      33.758 -23.088 -17.191  0.00  0.00    +0.207 C 
BRANCH  21  22
ATOM     22  C   UNK A   1      33.946 -22.801 -18.671  0.00  0.00    +0.083 C 
BRANCH  22  23
ATOM     23  C   UNK A   1      34.878 -21.622 -18.953  0.00  0.00    +0.008 C 
BRANCH  23  24
ATOM     24  C   UNK A   1      34.363 -20.740 -20.103  0.00  0.00    -0.011 C 
BRANCH  24  25
ATOM     25  C   UNK A   1      35.459 -20.031 -20.913  0.00  0.00    +0.036 C 
BRANCH  25  26
ATOM     26  N   UNK A   1      36.674 -19.793 -20.132  0.00  0.00    +0.389 N 
ATOM     27  H   UNK A   1      36.446 -19.800 -19.138  0.00  0.00    -0.088 HD
ATOM     28  H   UNK A   1      37.068 -18.887 -20.383  0.00  0.00    -0.088 HD
ATOM     29  H   UNK A   1      37.353 -20.527 -20.330  0.00  0.00    -0.088 HD
ENDBRANCH  25  26
BRANCH  25  31
ATOM     30  O   UNK A   1      34.389 -18.542 -22.526  0.00  0.00    -0.253 OA
ATOM     31  C   UNK A   1      34.990 -18.699 -21.471  0.00  0.00    +0.293 C 
BRANCH  31  32
ATOM     32  O   UNK A   1      35.315 -17.662 -20.654  0.00  0.00    -0.482 OA
ATOM     33  H   UNK A   1      36.209 -17.396 -20.568  0.00  0.00    +0.295 HD
ENDBRANCH  31  32
ENDBRANCH  25  31
ENDBRANCH  24  25
ENDBRANCH  23  24
ENDBRANCH  22  23
ENDBRANCH  21  22
ENDBRANCH   1  21
TORSDOF 15
ENDMDL
MODEL 7
REMARK VINA RESULT:      -8.1     14.825     17.291
REMARK  Name = 9600398
REMARK  15 active torsions:
REMARK  status: ('A' for Active; 'I' for Inactive)
REMARK    1  A    between atoms: N_1  and  C_6
REMARK    2  A    between atoms: N_1  and  C_21
REMARK    3  A    between atoms: N_5  and  C_11
REMARK    4  A    between atoms: C_7  and  S_9
REMARK    5  A    between atoms: C_11  and  C_13
REMARK    6  A    between atoms: C_11  and  C_16
REMARK    7  A    between atoms: C_13  and  O_14
REMARK    8  A    between atoms: C_16  and  S_17
REMARK    9  A    between atoms: C_21  and  C_22
REMARK   10  A    between atoms: C_22  and  C_23
REMARK   11  A    between atoms: C_23  and  C_24
REMARK   12  A    between atoms: C_24  and  C_25
REMARK   13  A    between atoms: C_25  and  N_26
REMARK   14  A    between atoms: C_25  and  C_31
REMARK   15  A    between atoms: C_31  and  O_32
REMARK                            x       y       z     vdW  Elec       q    Type
REMARK                         _______ _______ _______ _____ _____    ______ ____
ROOT
ATOM      1  N   UNK A   1      33.924 -10.752 -23.838  0.00  0.00    -0.362 NA
ATOM      2  H   UNK A   1      34.364 -10.995 -22.991  0.00  0.00    +0.127 HD
ATOM      3  H   UNK A   1      33.162 -10.789 -23.217  0.00  0.00    +0.127 HD
ENDROOT
BRANCH   1   6
ATOM      4  O   UNK A   1      34.570  -7.754 -22.806  0.00  0.00    -0.273 OA
ATOM      5  N   UNK A   2      32.389  -8.463 -22.269  0.00  0.00    -0.260 N 
ATOM      6  C   UNK A   1      33.096  -9.534 -23.884  0.00  0.00    +0.161 C 
ATOM      7  C   UNK A   1      31.792  -9.516 -23.075  0.00  0.00    +0.146 C 
ATOM      8  C   UNK A   1      33.575  -8.431 -22.934  0.00  0.00    +0.246 C 
BRANCH   7   9
ATOM      9  S   UNK A   1      31.450 -10.991 -22.057  0.00  0.00    -0.147 S 
ATOM     10  H   UNK A   1      31.356 -10.628 -20.750  0.00  0.00    +0.104 HD
ENDBRANCH   7   9
BRANCH   5  11
ATOM     11  C   UNK A   2      31.836  -7.631 -21.248  0.00  0.00    +0.189 C 
BRANCH  11  13
ATOM     12  O   UNK A   2      32.259  -8.987 -19.291  0.00  0.00    -0.248 OA
ATOM     13  C   UNK A   2      32.459  -7.938 -19.896  0.00  0.00    +0.333 C 
BRANCH  13  14
ATOM     14  O   UNK A   2      33.264  -6.965 -19.406  0.00  0.00    -0.479 OA
ATOM     15  H   UNK A   2      32.937  -6.365 -18.765  0.00  0.00    +0.295 HD
ENDBRANCH  13  14
ENDBRANCH  11  13
BRANCH  11  16
ATOM     16  C   UNK A   2      32.015  -6.152 -21.580  0.00  0.00    +0.123 C 
BRANCH  16  17
ATOM     17  S   UNK A   2      30.773  -5.582 -22.785  0.00  0.00    +0.045 S 
ATOM     18  O   UNK A   2      30.292  -4.245 -22.318  0.00  0.00    -0.256 OA
ATOM     19  C   UNK A   2      31.954  -5.304 -24.126  0.00  0.00    +0.106 C 
ENDBRANCH  16  17
ENDBRANCH  11  16
ENDBRANCH   5  11
ENDBRANCH   1   6
BRANCH   1  21
ATOM     20  O   UNK A   1      34.637 -11.215 -25.997  0.00  0.00    -0.277 OA
ATOM     21  C   UNK A   1      34.110 -11.571 -24.946  0.00  0.00    +0.207 C 
BRANCH  21  22
ATOM     22  C   UNK A   1      33.555 -12.967 -24.716  0.00  0.00    +0.083 C 
BRANCH  22  23
ATOM     23  C   UNK A   1      33.827 -13.511 -23.312  0.00  0.00    +0.008 C 
BRANCH  23  24
ATOM     24  C   UNK A   1      33.678 -15.040 -23.247  0.00  0.00    -0.011 C 
BRANCH  24  25
ATOM     25  C   UNK A   1      34.916 -15.787 -22.729  0.00  0.00    +0.036 C 
BRANCH  25  26
ATOM     26  N   UNK A   1      35.368 -16.835 -23.646  0.00  0.00    +0.389 N 
ATOM     27  H   UNK A   1      36.043 -16.443 -24.303  0.00  0.00    -0.088 HD
ATOM     28  H   UNK A   1      34.568 -17.203 -24.161  0.00  0.00    -0.088 HD
ATOM     29  H   UNK A   1      35.806 -17.585 -23.115  0.00  0.00    -0.088 HD
ENDBRANCH  25  26
BRANCH  25  31
ATOM     30  O   UNK A   1      34.343 -17.582 -21.175  0.00  0.00    -0.253 OA
ATOM     31  C   UNK A   1      34.680 -16.421 -21.370  0.00  0.00    +0.293 C 
BRANCH  31  32
ATOM     32  O   UNK A   1      34.889 -15.540 -20.355  0.00  0.00    -0.482 OA
ATOM     33  H   UNK A   1      35.002 -15.853 -19.479  0.00  0.00    +0.295 HD
ENDBRANCH  31  32
ENDBRANCH  25  31
ENDBRANCH  24  25
ENDBRANCH  23  24
ENDBRANCH  22  23
ENDBRANCH  21  22
ENDBRANCH   1  21
TORSDOF 15
ENDMDL
MODEL 8
REMARK VINA RESULT:      -7.9     13.561     16.194
REMARK  Name = 9600398
REMARK  15 active torsions:
REMARK  status: ('A' for Active; 'I' for Inactive)
REMARK    1  A    between atoms: N_1  and  C_6
REMARK    2  A    between atoms: N_1  and  C_21
REMARK    3  A    between atoms: N_5  and  C_11
REMARK    4  A    between atoms: C_7  and  S_9
REMARK    5  A    between atoms: C_11  and  C_13
REMARK    6  A    between atoms: C_11  and  C_16
REMARK    7  A    between atoms: C_13  and  O_14
REMARK    8  A    between atoms: C_16  and  S_17
REMARK    9  A    between atoms: C_21  and  C_22
REMARK   10  A    between atoms: C_22  and  C_23
REMARK   11  A    between atoms: C_23  and  C_24
REMARK   12  A    between atoms: C_24  and  C_25
REMARK   13  A    between atoms: C_25  and  N_26
REMARK   14  A    between atoms: C_25  and  C_31
REMARK   15  A    between atoms: C_31  and  O_32
REMARK                            x       y       z     vdW  Elec       q    Type
REMARK                         _______ _______ _______ _____ _____    ______ ____
ROOT
ATOM      1  N   UNK A   1      32.471 -12.884 -21.642  0.00  0.00    -0.362 NA
ATOM      2  H   UNK A   1      32.934 -12.709 -20.791  0.00  0.00    +0.127 HD
ATOM      3  H   UNK A   1      31.721 -12.666 -21.043  0.00  0.00    +0.127 HD
ENDROOT
BRANCH   1   6
ATOM      4  O   UNK A   1      33.129 -10.462 -23.684  0.00  0.00    -0.273 OA
ATOM      5  N   UNK A   2      31.742  -9.809 -21.897  0.00  0.00    -0.260 N 
ATOM      6  C   UNK A   1      31.587 -11.844 -22.196  0.00  0.00    +0.161 C 
ATOM      7  C   UNK A   1      30.961 -10.834 -21.224  0.00  0.00    +0.146 C 
ATOM      8  C   UNK A   1      32.342 -10.647 -22.784  0.00  0.00    +0.246 C 
BRANCH   7   9
ATOM      9  S   UNK A   1      31.460 -10.978 -19.474  0.00  0.00    -0.147 S 
ATOM     10  H   UNK A   1      30.356 -10.936 -18.683  0.00  0.00    +0.104 HD
ENDBRANCH   7   9
BRANCH   5  11
ATOM     11  C   UNK A   2      31.729  -8.385 -21.777  0.00  0.00    +0.189 C 
BRANCH  11  13
ATOM     12  O   UNK A   2      34.000  -7.638 -22.137  0.00  0.00    -0.248 OA
ATOM     13  C   UNK A   2      33.090  -7.862 -21.346  0.00  0.00    +0.333 C 
BRANCH  13  14
ATOM     14  O   UNK A   2      33.224  -7.652 -20.015  0.00  0.00    -0.479 OA
ATOM     15  H   UNK A   2      34.076  -7.643 -19.626  0.00  0.00    +0.295 HD
ENDBRANCH  13  14
ENDBRANCH  11  13
BRANCH  11  16
ATOM     16  C   UNK A   2      31.306  -7.721 -23.084  0.00  0.00    +0.123 C 
BRANCH  16  17
ATOM     17  S   UNK A   2      30.694  -6.027 -22.805  0.00  0.00    +0.045 S 
ATOM     18  O   UNK A   2      31.016  -5.674 -21.387  0.00  0.00    -0.256 OA
ATOM     19  C   UNK A   2      31.922  -5.227 -23.864  0.00  0.00    +0.106 C 
ENDBRANCH  16  17
ENDBRANCH  11  16
ENDBRANCH   5  11
ENDBRANCH   1   6
BRANCH   1  21
ATOM     20  O   UNK A   1      32.848 -14.244 -23.484  0.00  0.00    -0.277 OA
ATOM     21  C   UNK A   1      32.676 -14.105 -22.275  0.00  0.00    +0.207 C 
BRANCH  21  22
ATOM     22  C   UNK A   1      32.635 -15.264 -21.294  0.00  0.00    +0.083 C 
BRANCH  22  23
ATOM     23  C   UNK A   1      33.870 -15.350 -20.396  0.00  0.00    +0.008 C 
BRANCH  23  24
ATOM     24  C   UNK A   1      34.906 -16.352 -20.932  0.00  0.00    -0.011 C 
BRANCH  24  25
ATOM     25  C   UNK A   1      34.371 -17.329 -21.990  0.00  0.00    +0.036 C 
BRANCH  25  26
ATOM     26  N   UNK A   1      34.555 -18.730 -21.609  0.00  0.00    +0.389 N 
ATOM     27  H   UNK A   1      35.393 -19.097 -22.061  0.00  0.00    -0.088 HD
ATOM     28  H   UNK A   1      33.744 -19.273 -21.908  0.00  0.00    -0.088 HD
ATOM     29  H   UNK A   1      34.657 -18.797 -20.598  0.00  0.00    -0.088 HD
ENDBRANCH  25  26
BRANCH  25  31
ATOM     30  O   UNK A   1      35.097 -17.959 -24.234  0.00  0.00    -0.253 OA
ATOM     31  C   UNK A   1      35.019 -17.120 -23.347  0.00  0.00    +0.293 C 
BRANCH  31  32
ATOM     32  O   UNK A   1      35.521 -15.864 -23.482  0.00  0.00    -0.482 OA
ATOM     33  H   UNK A   1      34.945 -15.146 -23.659  0.00  0.00    +0.295 HD
ENDBRANCH  31  32
ENDBRANCH  25  31
ENDBRANCH  24  25
ENDBRANCH  23  24
ENDBRANCH  22  23
ENDBRANCH  21  22
ENDBRANCH   1  21
TORSDOF 15
ENDMDL
MODEL 9
REMARK VINA RESULT:      -7.9      2.581      8.090
REMARK  Name = 9600398
REMARK  15 active torsions:
REMARK  status: ('A' for Active; 'I' for Inactive)
REMARK    1  A    between atoms: N_1  and  C_6
REMARK    2  A    between atoms: N_1  and  C_21
REMARK    3  A    between atoms: N_5  and  C_11
REMARK    4  A    between atoms: C_7  and  S_9
REMARK    5  A    between atoms: C_11  and  C_13
REMARK    6  A    between atoms: C_11  and  C_16
REMARK    7  A    between atoms: C_13  and  O_14
REMARK    8  A    between atoms: C_16  and  S_17
REMARK    9  A    between atoms: C_21  and  C_22
REMARK   10  A    between atoms: C_22  and  C_23
REMARK   11  A    between atoms: C_23  and  C_24
REMARK   12  A    between atoms: C_24  and  C_25
REMARK   13  A    between atoms: C_25  and  N_26
REMARK   14  A    between atoms: C_25  and  C_31
REMARK   15  A    between atoms: C_31  and  O_32
REMARK                            x       y       z     vdW  Elec       q    Type
REMARK                         _______ _______ _______ _____ _____    ______ ____
ROOT
ATOM      1  N   UNK A   1      35.865 -24.085 -15.854  0.00  0.00    -0.362 NA
ATOM      2  H   UNK A   1      35.656 -24.507 -16.719  0.00  0.00    +0.127 HD
ATOM      3  H   UNK A   1      35.533 -23.321 -16.378  0.00  0.00    +0.127 HD
ENDROOT
BRANCH   1   6
ATOM      4  O   UNK A   1      33.835 -25.034 -13.519  0.00  0.00    -0.273 OA
ATOM      5  N   UNK A   2      32.783 -23.745 -15.186  0.00  0.00    -0.260 N 
ATOM      6  C   UNK A   1      34.805 -23.336 -15.156  0.00  0.00    +0.161 C 
ATOM      7  C   UNK A   1      33.606 -22.845 -15.978  0.00  0.00    +0.146 C 
ATOM      8  C   UNK A   1      33.799 -24.233 -14.425  0.00  0.00    +0.246 C 
BRANCH   7   9
ATOM      9  S   UNK A   1      33.577 -23.328 -17.738  0.00  0.00    -0.147 S 
ATOM     10  H   UNK A   1      32.296 -23.314 -18.191  0.00  0.00    +0.104 HD
ENDBRANCH   7   9
BRANCH   5  11
ATOM     11  C   UNK A   2      31.366 -23.911 -15.118  0.00  0.00    +0.189 C 
BRANCH  11  13
ATOM     12  O   UNK A   2      31.082 -23.185 -12.828  0.00  0.00    -0.248 OA
ATOM     13  C   UNK A   2      30.902 -24.053 -13.677  0.00  0.00    +0.333 C 
BRANCH  13  14
ATOM     14  O   UNK A   2      30.264 -25.214 -13.397  0.00  0.00    -0.479 OA
ATOM     15  H   UNK A   2      29.510 -25.465 -13.893  0.00  0.00    +0.295 HD
ENDBRANCH  13  14
ENDBRANCH  11  13
BRANCH  11  16
ATOM     16  C   UNK A   2      30.638 -22.748 -15.786  0.00  0.00    +0.123 C 
BRANCH  16  17
ATOM     17  S   UNK A   2      28.830 -22.914 -15.632  0.00  0.00    +0.045 S 
ATOM     18  O   UNK A   2      28.219 -21.839 -16.474  0.00  0.00    -0.256 OA
ATOM     19  C   UNK A   2      28.724 -24.464 -16.556  0.00  0.00    +0.106 C 
ENDBRANCH  16  17
ENDBRANCH  11  16
ENDBRANCH   5  11
ENDBRANCH   1   6
BRANCH   1  21
ATOM     20  O   UNK A   1      37.931 -23.288 -15.164  0.00  0.00    -0.277 OA
ATOM     21  C   UNK A   1      37.148 -24.219 -15.338  0.00  0.00    +0.207 C 
BRANCH  21  22
ATOM     22  C   UNK A   1      37.487 -25.669 -15.035  0.00  0.00    +0.083 C 
BRANCH  22  23
ATOM     23  C   UNK A   1      38.187 -25.866 -13.689  0.00  0.00    +0.008 C 
BRANCH  23  24
ATOM     24  C   UNK A   1      37.205 -25.781 -12.509  0.00  0.00    -0.011 C 
BRANCH  24  25
ATOM     25  C   UNK A   1      36.988 -24.366 -11.952  0.00  0.00    +0.036 C 
BRANCH  25  26
ATOM     26  N   UNK A   1      38.241 -23.705 -11.584  0.00  0.00    +0.389 N 
ATOM     27  H   UNK A   1      38.543 -23.101 -12.349  0.00  0.00    -0.088 HD
ATOM     28  H   UNK A   1      38.957 -24.410 -11.406  0.00  0.00    -0.088 HD
ATOM     29  H   UNK A   1      38.097 -23.146 -10.745  0.00  0.00    -0.088 HD
ENDBRANCH  25  26
BRANCH  25  31
ATOM     30  O   UNK A   1      36.326 -23.820  -9.665  0.00  0.00    -0.253 OA
ATOM     31  C   UNK A   1      36.078 -24.359 -10.736  0.00  0.00    +0.293 C 
BRANCH  31  32
ATOM     32  O   UNK A   1      34.919 -25.033 -10.965  0.00  0.00    -0.482 OA
ATOM     33  H   UNK A   1      34.097 -24.588 -10.894  0.00  0.00    +0.295 HD
ENDBRANCH  31  32
ENDBRANCH  25  31
ENDBRANCH  24  25
ENDBRANCH  23  24
ENDBRANCH  22  23
ENDBRANCH  21  22
ENDBRANCH   1  21
TORSDOF 15
ENDMDL
