MODEL 1
REMARK VINA RESULT:     -12.5      0.000      0.000
REMARK  Name = 60870
REMARK  7 active torsions:
REMARK  status: ('A' for Active; 'I' for Inactive)
REMARK    1  A    between atoms: C_2  and  C_4
REMARK    2  A    between atoms: C_2  and  C_18
REMARK    3  A    between atoms: C_3  and  C_9
REMARK    4  A    between atoms: C_9  and  C_14
REMARK    5  A    between atoms: C_18  and  C_19
REMARK    6  A    between atoms: C_19  and  C_22
REMARK    7  A    between atoms: C_24  and  C_26
REMARK                            x       y       z     vdW  Elec       q    Type
REMARK                         _______ _______ _______ _____ _____    ______ ____
ROOT
ATOM      1  O   UNL     1      32.998 -14.323 -25.054  0.00  0.00    -0.291 OA
ATOM      2  C   UNL     1      33.104 -13.888 -23.889  0.00  0.00    +0.173 C 
ENDROOT
BRANCH   2   4
ATOM      3  C   UNL     1      33.115  -9.729 -23.129  0.00  0.00    -0.021 C 
ATOM      4  C   UNL     1      33.108 -12.457 -23.627  0.00  0.00    +0.035 C 
ATOM      5  C   UNL     1      32.294 -10.556 -22.378  0.00  0.00    -0.004 C 
ATOM      6  C   UNL     1      33.933 -10.242 -24.125  0.00  0.00    -0.004 C 
ATOM      7  C   UNL     1      32.291 -11.929 -22.628  0.00  0.00    +0.003 C 
ATOM      8  C   UNL     1      33.930 -11.614 -24.375  0.00  0.00    +0.003 C 
BRANCH   3   9
ATOM      9  C   UNL     1      33.119  -8.246 -22.858  0.00  0.00    +0.047 C 
BRANCH   9  14
ATOM     10  S   UNL     1      30.875  -6.700 -23.254  0.00  0.00    -0.048 S 
ATOM     11  O   UNL     1      32.827  -7.390 -19.997  0.00  0.00    -0.274 OA
ATOM     12  O   UNL     1      30.272  -4.320 -22.315  0.00  0.00    -0.263 OA
ATOM     13  N   UNL     1      31.559  -5.731 -20.991  0.00  0.00    -0.246 N 
ATOM     14  C   UNL     1      31.845  -7.791 -22.169  0.00  0.00    +0.137 C 
ATOM     15  C   UNL     1      32.148  -6.977 -20.930  0.00  0.00    +0.239 C 
ATOM     16  C   UNL     1      30.846  -5.377 -22.106  0.00  0.00    +0.279 C 
ATOM     17  H   UNL     1      31.651  -5.102 -20.241  0.00  0.00    +0.158 HD
ENDBRANCH   9  14
ENDBRANCH   3   9
ENDBRANCH   2   4
BRANCH   2  18
ATOM     18  C   UNL     1      33.227 -14.885 -22.721  0.00  0.00    +0.076 C 
BRANCH  18  19
ATOM     19  C   UNL     1      34.641 -15.445 -22.543  0.00  0.00    +0.066 C 
BRANCH  19  22
ATOM     20  O   UNL     1      34.683 -19.082 -22.866  0.00  0.00    -0.449 OA
ATOM     21  N   UNL     1      34.625 -17.533 -21.218  0.00  0.00    -0.373 NA
ATOM     22  C   UNL     1      34.652 -16.941 -22.438  0.00  0.00    +0.130 C 
ATOM     23  C   UNL     1      34.687 -17.848 -23.443  0.00  0.00    +0.216 C 
ATOM     24  C   UNL     1      34.645 -18.809 -21.533  0.00  0.00    +0.277 C 
ATOM     25  C   UNL     1      34.726 -17.797 -24.909  0.00  0.00    +0.055 C 
BRANCH  24  26
ATOM     26  C   UNL     1      34.633 -19.960 -20.673  0.00  0.00    +0.066 C 
ATOM     27  C   UNL     1      33.420 -20.506 -20.245  0.00  0.00    +0.006 C 
ATOM     28  C   UNL     1      35.836 -20.539 -20.258  0.00  0.00    +0.006 C 
ATOM     29  C   UNL     1      33.409 -21.623 -19.408  0.00  0.00    +0.000 C 
ATOM     30  C   UNL     1      35.825 -21.656 -19.422  0.00  0.00    +0.000 C 
ATOM     31  C   UNL     1      34.612 -22.197 -18.997  0.00  0.00    +0.000 C 
ENDBRANCH  24  26
ENDBRANCH  19  22
ENDBRANCH  18  19
ENDBRANCH   2  18
TORSDOF 7
ENDMDL
MODEL 2
REMARK VINA RESULT:     -12.1      6.268     10.480
REMARK  Name = 60870
REMARK  7 active torsions:
REMARK  status: ('A' for Active; 'I' for Inactive)
REMARK    1  A    between atoms: C_2  and  C_4
REMARK    2  A    between atoms: C_2  and  C_18
REMARK    3  A    between atoms: C_3  and  C_9
REMARK    4  A    between atoms: C_9  and  C_14
REMARK    5  A    between atoms: C_18  and  C_19
REMARK    6  A    between atoms: C_19  and  C_22
REMARK    7  A    between atoms: C_24  and  C_26
REMARK                            x       y       z     vdW  Elec       q    Type
REMARK                         _______ _______ _______ _____ _____    ______ ____
ROOT
ATOM      1  O   UNL     1      33.723 -24.079 -18.534  0.00  0.00    -0.291 OA
ATOM      2  C   UNL     1      33.433 -22.880 -18.347  0.00  0.00    +0.173 C 
ENDROOT
BRANCH   2   4
ATOM      3  C   UNL     1      35.081 -19.853 -20.797  0.00  0.00    -0.021 C 
ATOM      4  C   UNL     1      34.000 -21.837 -19.189  0.00  0.00    +0.035 C 
ATOM      5  C   UNL     1      33.704 -19.945 -20.662  0.00  0.00    -0.004 C 
ATOM      6  C   UNL     1      35.927 -20.735 -20.142  0.00  0.00    -0.004 C 
ATOM      7  C   UNL     1      33.160 -20.944 -19.853  0.00  0.00    +0.003 C 
ATOM      8  C   UNL     1      35.383 -21.734 -19.333  0.00  0.00    +0.003 C 
BRANCH   3   9
ATOM      9  C   UNL     1      35.668 -18.773 -21.670  0.00  0.00    +0.047 C 
BRANCH   9  14
ATOM     10  S   UNL     1      34.639 -18.499 -24.210  0.00  0.00    -0.048 S 
ATOM     11  O   UNL     1      34.905 -15.886 -21.382  0.00  0.00    -0.274 OA
ATOM     12  O   UNL     1      34.929 -16.552 -25.952  0.00  0.00    -0.263 OA
ATOM     13  N   UNL     1      34.929 -16.015 -23.691  0.00  0.00    -0.246 N 
ATOM     14  C   UNL     1      34.599 -18.031 -22.452  0.00  0.00    +0.137 C 
ATOM     15  C   UNL     1      34.828 -16.537 -22.418  0.00  0.00    +0.239 C 
ATOM     16  C   UNL     1      34.855 -16.855 -24.771  0.00  0.00    +0.279 C 
ATOM     17  H   UNL     1      35.054 -15.048 -23.823  0.00  0.00    +0.158 HD
ENDBRANCH   9  14
ENDBRANCH   3   9
ENDBRANCH   2   4
BRANCH   2  18
ATOM     18  C   UNL     1      32.461 -22.507 -17.212  0.00  0.00    +0.076 C 
BRANCH  18  19
ATOM     19  C   UNL     1      31.916 -23.720 -16.452  0.00  0.00    +0.066 C 
BRANCH  19  22
ATOM     20  O   UNL     1      33.186 -24.384 -13.093  0.00  0.00    -0.449 OA
ATOM     21  N   UNL     1      34.009 -23.926 -15.150  0.00  0.00    -0.373 NA
ATOM     22  C   UNL     1      32.653 -23.965 -15.169  0.00  0.00    +0.130 C 
ATOM     23  C   UNL     1      32.135 -24.238 -13.948  0.00  0.00    +0.216 C 
ATOM     24  C   UNL     1      34.272 -24.182 -13.888  0.00  0.00    +0.277 C 
ATOM     25  C   UNL     1      30.790 -24.400 -13.385  0.00  0.00    +0.055 C 
BRANCH  24  26
ATOM     26  C   UNL     1      35.542 -24.281 -13.224  0.00  0.00    +0.066 C 
ATOM     27  C   UNL     1      35.779 -23.566 -12.047  0.00  0.00    +0.006 C 
ATOM     28  C   UNL     1      36.550 -25.092 -13.754  0.00  0.00    +0.006 C 
ATOM     29  C   UNL     1      37.013 -23.661 -11.403  0.00  0.00    +0.000 C 
ATOM     30  C   UNL     1      37.784 -25.188 -13.110  0.00  0.00    +0.000 C 
ATOM     31  C   UNL     1      38.016 -24.472 -11.935  0.00  0.00    +0.000 C 
ENDBRANCH  24  26
ENDBRANCH  19  22
ENDBRANCH  18  19
ENDBRANCH   2  18
TORSDOF 7
ENDMDL
MODEL 3
REMARK VINA RESULT:     -11.9      5.010     11.772
REMARK  Name = 60870
REMARK  7 active torsions:
REMARK  status: ('A' for Active; 'I' for Inactive)
REMARK    1  A    between atoms: C_2  and  C_4
REMARK    2  A    between atoms: C_2  and  C_18
REMARK    3  A    between atoms: C_3  and  C_9
REMARK    4  A    between atoms: C_9  and  C_14
REMARK    5  A    between atoms: C_18  and  C_19
REMARK    6  A    between atoms: C_19  and  C_22
REMARK    7  A    between atoms: C_24  and  C_26
REMARK                            x       y       z     vdW  Elec       q    Type
REMARK                         _______ _______ _______ _____ _____    ______ ____
ROOT
ATOM      1  O   UNL     1      36.745 -18.888 -21.461  0.00  0.00    -0.291 OA
ATOM      2  C   UNL     1      35.519 -19.080 -21.335  0.00  0.00    +0.173 C 
ENDROOT
BRANCH   2   4
ATOM      3  C   UNL     1      34.059 -22.189 -18.869  0.00  0.00    -0.021 C 
ATOM      4  C   UNL     1      35.017 -20.151 -20.488  0.00  0.00    +0.035 C 
ATOM      5  C   UNL     1      33.161 -21.373 -19.540  0.00  0.00    -0.004 C 
ATOM      6  C   UNL     1      35.428 -22.005 -18.995  0.00  0.00    -0.004 C 
ATOM      7  C   UNL     1      33.643 -20.347 -20.354  0.00  0.00    +0.003 C 
ATOM      8  C   UNL     1      35.910 -20.979 -19.809  0.00  0.00    +0.003 C 
BRANCH   3   9
ATOM      9  C   UNL     1      33.539 -23.298 -17.991  0.00  0.00    +0.047 C 
BRANCH   9  14
ATOM     10  S   UNL     1      33.959 -23.667 -15.293  0.00  0.00    -0.048 S 
ATOM     11  O   UNL     1      30.742 -22.613 -17.147  0.00  0.00    -0.274 OA
ATOM     12  O   UNL     1      32.459 -24.858 -13.494  0.00  0.00    -0.263 OA
ATOM     13  N   UNL     1      31.407 -23.766 -15.256  0.00  0.00    -0.246 N 
ATOM     14  C   UNL     1      33.097 -22.785 -16.632  0.00  0.00    +0.137 C 
ATOM     15  C   UNL     1      31.622 -23.029 -16.402  0.00  0.00    +0.239 C 
ATOM     16  C   UNL     1      32.481 -24.199 -14.522  0.00  0.00    +0.279 C 
ATOM     17  H   UNL     1      30.491 -23.980 -14.968  0.00  0.00    +0.158 HD
ENDBRANCH   9  14
ENDBRANCH   3   9
ENDBRANCH   2   4
BRANCH   2  18
ATOM     18  C   UNL     1      34.532 -18.167 -22.088  0.00  0.00    +0.076 C 
BRANCH  18  19
ATOM     19  C   UNL     1      35.209 -16.997 -22.806  0.00  0.00    +0.066 C 
BRANCH  19  22
ATOM     20  O   UNL     1      32.951 -14.306 -23.804  0.00  0.00    -0.449 OA
ATOM     21  N   UNL     1      33.939 -15.069 -21.917  0.00  0.00    -0.373 NA
ATOM     22  C   UNL     1      34.284 -15.829 -22.987  0.00  0.00    +0.130 C 
ATOM     23  C   UNL     1      33.706 -15.393 -24.130  0.00  0.00    +0.216 C 
ATOM     24  C   UNL     1      33.143 -14.176 -22.463  0.00  0.00    +0.277 C 
ATOM     25  C   UNL     1      33.711 -15.802 -25.539  0.00  0.00    +0.055 C 
BRANCH  24  26
ATOM     26  C   UNL     1      32.445 -13.082 -21.848  0.00  0.00    +0.066 C 
ATOM     27  C   UNL     1      32.318 -13.020 -20.458  0.00  0.00    +0.006 C 
ATOM     28  C   UNL     1      31.886 -12.072 -22.638  0.00  0.00    +0.006 C 
ATOM     29  C   UNL     1      31.638 -11.957 -19.861  0.00  0.00    +0.000 C 
ATOM     30  C   UNL     1      31.207 -11.010 -22.041  0.00  0.00    +0.000 C 
ATOM     31  C   UNL     1      31.083 -10.953 -20.653  0.00  0.00    +0.000 C 
ENDBRANCH  24  26
ENDBRANCH  19  22
ENDBRANCH  18  19
ENDBRANCH   2  18
TORSDOF 7
ENDMDL
MODEL 4
REMARK VINA RESULT:     -11.9      1.005      1.643
REMARK  Name = 60870
REMARK  7 active torsions:
REMARK  status: ('A' for Active; 'I' for Inactive)
REMARK    1  A    between atoms: C_2  and  C_4
REMARK    2  A    between atoms: C_2  and  C_18
REMARK    3  A    between atoms: C_3  and  C_9
REMARK    4  A    between atoms: C_9  and  C_14
REMARK    5  A    between atoms: C_18  and  C_19
REMARK    6  A    between atoms: C_19  and  C_22
REMARK    7  A    between atoms: C_24  and  C_26
REMARK                            x       y       z     vdW  Elec       q    Type
REMARK                         _______ _______ _______ _____ _____    ______ ____
ROOT
ATOM      1  O   UNL     1      33.472 -13.819 -26.134  0.00  0.00    -0.291 OA
ATOM      2  C   UNL     1      33.369 -13.634 -24.904  0.00  0.00    +0.173 C 
ENDROOT
BRANCH   2   4
ATOM      3  C   UNL     1      33.389  -9.725 -23.294  0.00  0.00    -0.021 C 
ATOM      4  C   UNL     1      33.375 -12.289 -24.351  0.00  0.00    +0.035 C 
ATOM      5  C   UNL     1      34.178 -10.011 -24.398  0.00  0.00    -0.004 C 
ATOM      6  C   UNL     1      32.593 -10.698 -22.709  0.00  0.00    -0.004 C 
ATOM      7  C   UNL     1      34.171 -11.301 -24.930  0.00  0.00    +0.003 C 
ATOM      8  C   UNL     1      32.586 -11.988 -23.241  0.00  0.00    +0.003 C 
BRANCH   3   9
ATOM      9  C   UNL     1      33.395  -8.331 -22.720  0.00  0.00    +0.047 C 
BRANCH   9  14
ATOM     10  S   UNL     1      31.095  -6.928 -23.292  0.00  0.00    -0.048 S 
ATOM     11  O   UNL     1      32.839  -7.487 -19.895  0.00  0.00    -0.274 OA
ATOM     12  O   UNL     1      30.279  -4.587 -22.417  0.00  0.00    -0.263 OA
ATOM     13  N   UNL     1      31.549  -5.913 -20.992  0.00  0.00    -0.246 N 
ATOM     14  C   UNL     1      32.048  -7.954 -22.130  0.00  0.00    +0.137 C 
ATOM     15  C   UNL     1      32.207  -7.120 -20.878  0.00  0.00    +0.239 C 
ATOM     16  C   UNL     1      30.900  -5.607 -22.159  0.00  0.00    +0.279 C 
ATOM     17  H   UNL     1      31.546  -5.277 -20.241  0.00  0.00    +0.158 HD
ENDBRANCH   9  14
ENDBRANCH   3   9
ENDBRANCH   2   4
BRANCH   2  18
ATOM     18  C   UNL     1      33.233 -14.851 -23.968  0.00  0.00    +0.076 C 
BRANCH  18  19
ATOM     19  C   UNL     1      34.462 -15.765 -23.973  0.00  0.00    +0.066 C 
BRANCH  19  22
ATOM     20  O   UNL     1      34.820 -17.090 -20.589  0.00  0.00    -0.449 OA
ATOM     21  N   UNL     1      34.680 -17.877 -22.705  0.00  0.00    -0.373 NA
ATOM     22  C   UNL     1      34.612 -16.522 -22.687  0.00  0.00    +0.130 C 
ATOM     23  C   UNL     1      34.693 -16.026 -21.430  0.00  0.00    +0.216 C 
ATOM     24  C   UNL     1      34.805 -18.161 -21.428  0.00  0.00    +0.277 C 
ATOM     25  C   UNL     1      34.676 -14.692 -20.820  0.00  0.00    +0.055 C 
BRANCH  24  26
ATOM     26  C   UNL     1      34.925 -19.441 -20.787  0.00  0.00    +0.066 C 
ATOM     27  C   UNL     1      33.782 -20.156 -20.420  0.00  0.00    +0.006 C 
ATOM     28  C   UNL     1      36.189 -19.979 -20.524  0.00  0.00    +0.006 C 
ATOM     29  C   UNL     1      33.900 -21.399 -19.796  0.00  0.00    +0.000 C 
ATOM     30  C   UNL     1      36.307 -21.222 -19.901  0.00  0.00    +0.000 C 
ATOM     31  C   UNL     1      35.162 -21.931 -19.537  0.00  0.00    +0.000 C 
ENDBRANCH  24  26
ENDBRANCH  19  22
ENDBRANCH  18  19
ENDBRANCH   2  18
TORSDOF 7
ENDMDL
MODEL 5
REMARK VINA RESULT:     -11.8      4.662      9.032
REMARK  Name = 60870
REMARK  7 active torsions:
REMARK  status: ('A' for Active; 'I' for Inactive)
REMARK    1  A    between atoms: C_2  and  C_4
REMARK    2  A    between atoms: C_2  and  C_18
REMARK    3  A    between atoms: C_3  and  C_9
REMARK    4  A    between atoms: C_9  and  C_14
REMARK    5  A    between atoms: C_18  and  C_19
REMARK    6  A    between atoms: C_19  and  C_22
REMARK    7  A    between atoms: C_24  and  C_26
REMARK                            x       y       z     vdW  Elec       q    Type
REMARK                         _______ _______ _______ _____ _____    ______ ____
ROOT
ATOM      1  O   UNL     1      36.292 -22.048 -18.310  0.00  0.00    -0.291 OA
ATOM      2  C   UNL     1      35.358 -21.848 -19.113  0.00  0.00    +0.173 C 
ENDROOT
BRANCH   2   4
ATOM      3  C   UNL     1      35.460 -18.560 -21.769  0.00  0.00    -0.021 C 
ATOM      4  C   UNL     1      35.393 -20.717 -20.028  0.00  0.00    +0.035 C 
ATOM      5  C   UNL     1      36.639 -19.007 -21.193  0.00  0.00    -0.004 C 
ATOM      6  C   UNL     1      34.248 -19.173 -21.490  0.00  0.00    -0.004 C 
ATOM      7  C   UNL     1      36.606 -20.092 -20.317  0.00  0.00    +0.003 C 
ATOM      8  C   UNL     1      34.214 -20.259 -20.614  0.00  0.00    +0.003 C 
BRANCH   3   9
ATOM      9  C   UNL     1      35.496 -17.388 -22.717  0.00  0.00    +0.047 C 
BRANCH   9  14
ATOM     10  S   UNL     1      33.945 -15.554 -24.065  0.00  0.00    -0.048 S 
ATOM     11  O   UNL     1      34.867 -15.695 -20.320  0.00  0.00    -0.274 OA
ATOM     12  O   UNL     1      33.886 -12.932 -23.889  0.00  0.00    -0.263 OA
ATOM     13  N   UNL     1      34.387 -14.153 -21.975  0.00  0.00    -0.246 N 
ATOM     14  C   UNL     1      34.297 -16.474 -22.536  0.00  0.00    +0.137 C 
ATOM     15  C   UNL     1      34.555 -15.427 -21.475  0.00  0.00    +0.239 C 
ATOM     16  C   UNL     1      34.065 -13.985 -23.297  0.00  0.00    +0.279 C 
ATOM     17  H   UNL     1      34.498 -13.371 -21.389  0.00  0.00    +0.158 HD
ENDBRANCH   9  14
ENDBRANCH   3   9
ENDBRANCH   2   4
BRANCH   2  18
ATOM     18  C   UNL     1      34.159 -22.815 -19.131  0.00  0.00    +0.076 C 
BRANCH  18  19
ATOM     19  C   UNL     1      33.108 -22.506 -18.062  0.00  0.00    +0.066 C 
BRANCH  19  22
ATOM     20  O   UNL     1      33.252 -24.095 -14.777  0.00  0.00    -0.449 OA
ATOM     21  N   UNL     1      34.636 -23.691 -16.520  0.00  0.00    -0.373 NA
ATOM     22  C   UNL     1      33.394 -23.202 -16.764  0.00  0.00    +0.130 C 
ATOM     23  C   UNL     1      32.546 -23.431 -15.735  0.00  0.00    +0.216 C 
ATOM     24  C   UNL     1      34.493 -24.212 -15.322  0.00  0.00    +0.277 C 
ATOM     25  C   UNL     1      31.136 -23.144 -15.446  0.00  0.00    +0.055 C 
BRANCH  24  26
ATOM     26  C   UNL     1      35.459 -24.889 -14.502  0.00  0.00    +0.066 C 
ATOM     27  C   UNL     1      35.638 -24.513 -13.168  0.00  0.00    +0.006 C 
ATOM     28  C   UNL     1      36.228 -25.928 -15.035  0.00  0.00    +0.006 C 
ATOM     29  C   UNL     1      36.577 -25.171 -12.372  0.00  0.00    +0.000 C 
ATOM     30  C   UNL     1      37.167 -26.586 -14.240  0.00  0.00    +0.000 C 
ATOM     31  C   UNL     1      37.341 -26.206 -12.908  0.00  0.00    +0.000 C 
ENDBRANCH  24  26
ENDBRANCH  19  22
ENDBRANCH  18  19
ENDBRANCH   2  18
TORSDOF 7
ENDMDL
MODEL 6
REMARK VINA RESULT:     -11.8      3.514     11.191
REMARK  Name = 60870
REMARK  7 active torsions:
REMARK  status: ('A' for Active; 'I' for Inactive)
REMARK    1  A    between atoms: C_2  and  C_4
REMARK    2  A    between atoms: C_2  and  C_18
REMARK    3  A    between atoms: C_3  and  C_9
REMARK    4  A    between atoms: C_9  and  C_14
REMARK    5  A    between atoms: C_18  and  C_19
REMARK    6  A    between atoms: C_19  and  C_22
REMARK    7  A    between atoms: C_24  and  C_26
REMARK                            x       y       z     vdW  Elec       q    Type
REMARK                         _______ _______ _______ _____ _____    ______ ____
ROOT
ATOM      1  O   UNL     1      33.389 -15.240 -25.274  0.00  0.00    -0.291 OA
ATOM      2  C   UNL     1      33.838 -14.943 -24.148  0.00  0.00    +0.173 C 
ENDROOT
BRANCH   2   4
ATOM      3  C   UNL     1      35.380 -17.928 -21.581  0.00  0.00    -0.021 C 
ATOM      4  C   UNL     1      34.370 -15.970 -23.265  0.00  0.00    +0.035 C 
ATOM      5  C   UNL     1      35.393 -18.136 -22.952  0.00  0.00    -0.004 C 
ATOM      6  C   UNL     1      34.872 -16.758 -21.037  0.00  0.00    -0.004 C 
ATOM      7  C   UNL     1      34.884 -17.150 -23.799  0.00  0.00    +0.003 C 
ATOM      8  C   UNL     1      34.364 -15.773 -21.884  0.00  0.00    +0.003 C 
BRANCH   3   9
ATOM      9  C   UNL     1      35.931 -18.992 -20.666  0.00  0.00    +0.047 C 
BRANCH   9  14
ATOM     10  S   UNL     1      33.485 -20.253 -20.547  0.00  0.00    -0.048 S 
ATOM     11  O   UNL     1      37.010 -21.685 -19.901  0.00  0.00    -0.274 OA
ATOM     12  O   UNL     1      32.539 -21.947 -18.774  0.00  0.00    -0.263 OA
ATOM     13  N   UNL     1      34.821 -21.977 -19.216  0.00  0.00    -0.246 N 
ATOM     14  C   UNL     1      35.268 -20.338 -20.897  0.00  0.00    +0.137 C 
ATOM     15  C   UNL     1      35.821 -21.394 -19.966  0.00  0.00    +0.239 C 
ATOM     16  C   UNL     1      33.530 -21.540 -19.361  0.00  0.00    +0.279 C 
ATOM     17  H   UNL     1      35.032 -22.700 -18.583  0.00  0.00    +0.158 HD
ENDBRANCH   9  14
ENDBRANCH   3   9
ENDBRANCH   2   4
BRANCH   2  18
ATOM     18  C   UNL     1      33.827 -13.470 -23.697  0.00  0.00    +0.076 C 
BRANCH  18  19
ATOM     19  C   UNL     1      33.617 -12.481 -24.847  0.00  0.00    +0.066 C 
BRANCH  19  22
ATOM     20  O   UNL     1      34.412  -8.987 -24.144  0.00  0.00    -0.449 OA
ATOM     21  N   UNL     1      32.919 -10.548 -23.471  0.00  0.00    -0.373 NA
ATOM     22  C   UNL     1      33.763 -11.055 -24.404  0.00  0.00    +0.130 C 
ATOM     23  C   UNL     1      34.667 -10.140 -24.824  0.00  0.00    +0.216 C 
ATOM     24  C   UNL     1      33.353  -9.313 -23.354  0.00  0.00    +0.277 C 
ATOM     25  C   UNL     1      35.779 -10.117 -25.781  0.00  0.00    +0.055 C 
BRANCH  24  26
ATOM     26  C   UNL     1      32.870  -8.253 -22.513  0.00  0.00    +0.066 C 
ATOM     27  C   UNL     1      32.559  -7.005 -23.060  0.00  0.00    +0.006 C 
ATOM     28  C   UNL     1      32.708  -8.464 -21.140  0.00  0.00    +0.006 C 
ATOM     29  C   UNL     1      32.091  -5.976 -22.242  0.00  0.00    +0.000 C 
ATOM     30  C   UNL     1      32.240  -7.435 -20.322  0.00  0.00    +0.000 C 
ATOM     31  C   UNL     1      31.932  -6.191 -20.874  0.00  0.00    +0.000 C 
ENDBRANCH  24  26
ENDBRANCH  19  22
ENDBRANCH  18  19
ENDBRANCH   2  18
TORSDOF 7
ENDMDL
MODEL 7
REMARK VINA RESULT:     -11.8      5.457     11.989
REMARK  Name = 60870
REMARK  7 active torsions:
REMARK  status: ('A' for Active; 'I' for Inactive)
REMARK    1  A    between atoms: C_2  and  C_4
REMARK    2  A    between atoms: C_2  and  C_18
REMARK    3  A    between atoms: C_3  and  C_9
REMARK    4  A    between atoms: C_9  and  C_14
REMARK    5  A    between atoms: C_18  and  C_19
REMARK    6  A    between atoms: C_19  and  C_22
REMARK    7  A    between atoms: C_24  and  C_26
REMARK                            x       y       z     vdW  Elec       q    Type
REMARK                         _______ _______ _______ _____ _____    ______ ____
ROOT
ATOM      1  O   UNL     1      37.211 -19.269 -21.063  0.00  0.00    -0.291 OA
ATOM      2  C   UNL     1      35.967 -19.327 -20.985  0.00  0.00    +0.173 C 
ENDROOT
BRANCH   2   4
ATOM      3  C   UNL     1      34.082 -22.323 -18.672  0.00  0.00    -0.021 C 
ATOM      4  C   UNL     1      35.318 -20.359 -20.190  0.00  0.00    +0.035 C 
ATOM      5  C   UNL     1      33.311 -21.498 -19.477  0.00  0.00    -0.004 C 
ATOM      6  C   UNL     1      35.461 -22.183 -18.613  0.00  0.00    -0.004 C 
ATOM      7  C   UNL     1      33.933 -20.510 -20.241  0.00  0.00    +0.003 C 
ATOM      8  C   UNL     1      36.083 -21.195 -19.377  0.00  0.00    +0.003 C 
BRANCH   3   9
ATOM      9  C   UNL     1      33.410 -23.391 -17.847  0.00  0.00    +0.047 C 
BRANCH   9  14
ATOM     10  S   UNL     1      33.802 -23.763 -15.146  0.00  0.00    -0.048 S 
ATOM     11  O   UNL     1      30.619 -22.654 -17.027  0.00  0.00    -0.274 OA
ATOM     12  O   UNL     1      32.265 -24.923 -13.357  0.00  0.00    -0.263 OA
ATOM     13  N   UNL     1      31.248 -23.816 -15.129  0.00  0.00    -0.246 N 
ATOM     14  C   UNL     1      32.967 -22.868 -16.493  0.00  0.00    +0.137 C 
ATOM     15  C   UNL     1      31.486 -23.085 -16.275  0.00  0.00    +0.239 C 
ATOM     16  C   UNL     1      32.307 -24.267 -14.386  0.00  0.00    +0.279 C 
ATOM     17  H   UNL     1      30.326 -24.012 -14.848  0.00  0.00    +0.158 HD
ENDBRANCH   9  14
ENDBRANCH   3   9
ENDBRANCH   2   4
BRANCH   2  18
ATOM     18  C   UNL     1      35.116 -18.289 -21.740  0.00  0.00    +0.076 C 
BRANCH  18  19
ATOM     19  C   UNL     1      34.970 -16.960 -20.995  0.00  0.00    +0.066 C 
BRANCH  19  22
ATOM     20  O   UNL     1      32.742 -14.463 -22.455  0.00  0.00    -0.449 OA
ATOM     21  N   UNL     1      34.603 -15.611 -23.035  0.00  0.00    -0.373 NA
ATOM     22  C   UNL     1      34.197 -15.946 -21.785  0.00  0.00    +0.130 C 
ATOM     23  C   UNL     1      33.083 -15.272 -21.414  0.00  0.00    +0.216 C 
ATOM     24  C   UNL     1      33.699 -14.724 -23.387  0.00  0.00    +0.277 C 
ATOM     25  C   UNL     1      32.227 -15.224 -20.223  0.00  0.00    +0.055 C 
BRANCH  24  26
ATOM     26  C   UNL     1      33.574 -13.987 -24.614  0.00  0.00    +0.066 C 
ATOM     27  C   UNL     1      33.176 -14.635 -25.787  0.00  0.00    +0.006 C 
ATOM     28  C   UNL     1      33.854 -12.618 -24.643  0.00  0.00    +0.006 C 
ATOM     29  C   UNL     1      33.056 -13.919 -26.979  0.00  0.00    +0.000 C 
ATOM     30  C   UNL     1      33.735 -11.902 -25.835  0.00  0.00    +0.000 C 
ATOM     31  C   UNL     1      33.337 -12.553 -27.002  0.00  0.00    +0.000 C 
ENDBRANCH  24  26
ENDBRANCH  19  22
ENDBRANCH  18  19
ENDBRANCH   2  18
TORSDOF 7
ENDMDL
MODEL 8
REMARK VINA RESULT:     -11.8      3.395     11.080
REMARK  Name = 60870
REMARK  7 active torsions:
REMARK  status: ('A' for Active; 'I' for Inactive)
REMARK    1  A    between atoms: C_2  and  C_4
REMARK    2  A    between atoms: C_2  and  C_18
REMARK    3  A    between atoms: C_3  and  C_9
REMARK    4  A    between atoms: C_9  and  C_14
REMARK    5  A    between atoms: C_18  and  C_19
REMARK    6  A    between atoms: C_19  and  C_22
REMARK    7  A    between atoms: C_24  and  C_26
REMARK                            x       y       z     vdW  Elec       q    Type
REMARK                         _______ _______ _______ _____ _____    ______ ____
ROOT
ATOM      1  O   UNL     1      33.870 -15.456 -26.288  0.00  0.00    -0.291 OA
ATOM      2  C   UNL     1      33.671 -15.192 -25.085  0.00  0.00    +0.173 C 
ENDROOT
BRANCH   2   4
ATOM      3  C   UNL     1      35.103 -17.757 -22.044  0.00  0.00    -0.021 C 
ATOM      4  C   UNL     1      34.164 -16.074 -24.038  0.00  0.00    +0.035 C 
ATOM      5  C   UNL     1      35.160 -18.170 -23.366  0.00  0.00    -0.004 C 
ATOM      6  C   UNL     1      34.585 -16.517 -21.701  0.00  0.00    -0.004 C 
ATOM      7  C   UNL     1      34.688 -17.323 -24.370  0.00  0.00    +0.003 C 
ATOM      8  C   UNL     1      34.113 -15.670 -22.705  0.00  0.00    +0.003 C 
BRANCH   3   9
ATOM      9  C   UNL     1      35.614 -18.671 -20.959  0.00  0.00    +0.047 C 
BRANCH   9  14
ATOM     10  S   UNL     1      33.300 -20.145 -20.716  0.00  0.00    -0.048 S 
ATOM     11  O   UNL     1      36.957 -21.209 -20.089  0.00  0.00    -0.274 OA
ATOM     12  O   UNL     1      32.554 -21.826 -18.838  0.00  0.00    -0.263 OA
ATOM     13  N   UNL     1      34.819 -21.667 -19.336  0.00  0.00    -0.246 N 
ATOM     14  C   UNL     1      35.076 -20.083 -21.107  0.00  0.00    +0.137 C 
ATOM     15  C   UNL     1      35.745 -21.033 -20.139  0.00  0.00    +0.239 C 
ATOM     16  C   UNL     1      33.490 -21.360 -19.470  0.00  0.00    +0.279 C 
ATOM     17  H   UNL     1      35.110 -22.333 -18.674  0.00  0.00    +0.158 HD
ENDBRANCH   9  14
ENDBRANCH   3   9
ENDBRANCH   2   4
BRANCH   2  18
ATOM     18  C   UNL     1      32.894 -13.915 -24.712  0.00  0.00    +0.076 C 
BRANCH  18  19
ATOM     19  C   UNL     1      33.798 -12.726 -24.376  0.00  0.00    +0.066 C 
BRANCH  19  22
ATOM     20  O   UNL     1      31.940 -10.649 -22.017  0.00  0.00    -0.449 OA
ATOM     21  N   UNL     1      33.120 -10.390 -23.930  0.00  0.00    -0.373 NA
ATOM     22  C   UNL     1      33.094 -11.692 -23.548  0.00  0.00    +0.130 C 
ATOM     23  C   UNL     1      32.394 -11.874 -22.404  0.00  0.00    +0.216 C 
ATOM     24  C   UNL     1      32.415  -9.814 -22.981  0.00  0.00    +0.277 C 
ATOM     25  C   UNL     1      32.042 -13.015 -21.552  0.00  0.00    +0.055 C 
BRANCH  24  26
ATOM     26  C   UNL     1      32.075  -8.429 -22.813  0.00  0.00    +0.066 C 
ATOM     27  C   UNL     1      32.337  -7.781 -21.602  0.00  0.00    +0.006 C 
ATOM     28  C   UNL     1      31.478  -7.720 -23.860  0.00  0.00    +0.006 C 
ATOM     29  C   UNL     1      32.005  -6.436 -21.439  0.00  0.00    +0.000 C 
ATOM     30  C   UNL     1      31.146  -6.374 -23.696  0.00  0.00    +0.000 C 
ATOM     31  C   UNL     1      31.410  -5.733 -22.486  0.00  0.00    +0.000 C 
ENDBRANCH  24  26
ENDBRANCH  19  22
ENDBRANCH  18  19
ENDBRANCH   2  18
TORSDOF 7
ENDMDL
MODEL 9
REMARK VINA RESULT:     -11.7      3.704     11.401
REMARK  Name = 60870
REMARK  7 active torsions:
REMARK  status: ('A' for Active; 'I' for Inactive)
REMARK    1  A    between atoms: C_2  and  C_4
REMARK    2  A    between atoms: C_2  and  C_18
REMARK    3  A    between atoms: C_3  and  C_9
REMARK    4  A    between atoms: C_9  and  C_14
REMARK    5  A    between atoms: C_18  and  C_19
REMARK    6  A    between atoms: C_19  and  C_22
REMARK    7  A    between atoms: C_24  and  C_26
REMARK                            x       y       z     vdW  Elec       q    Type
REMARK                         _______ _______ _______ _____ _____    ______ ____
ROOT
ATOM      1  O   UNL     1      33.825 -15.013 -25.004  0.00  0.00    -0.291 OA
ATOM      2  C   UNL     1      34.061 -15.118 -23.783  0.00  0.00    +0.173 C 
ENDROOT
BRANCH   2   4
ATOM      3  C   UNL     1      34.969 -18.875 -22.069  0.00  0.00    -0.021 C 
ATOM      4  C   UNL     1      34.372 -16.411 -23.193  0.00  0.00    +0.035 C 
ATOM      5  C   UNL     1      34.785 -17.776 -21.244  0.00  0.00    -0.004 C 
ATOM      6  C   UNL     1      34.859 -18.763 -23.447  0.00  0.00    -0.004 C 
ATOM      7  C   UNL     1      34.485 -16.536 -21.809  0.00  0.00    +0.003 C 
ATOM      8  C   UNL     1      34.559 -17.524 -24.013  0.00  0.00    +0.003 C 
BRANCH   3   9
ATOM      9  C   UNL     1      35.292 -20.215 -21.459  0.00  0.00    +0.047 C 
BRANCH   9  14
ATOM     10  S   UNL     1      35.515 -21.666 -19.128  0.00  0.00    -0.048 S 
ATOM     11  O   UNL     1      32.358 -20.239 -20.829  0.00  0.00    -0.274 OA
ATOM     12  O   UNL     1      34.054 -23.657 -18.228  0.00  0.00    -0.263 OA
ATOM     13  N   UNL     1      33.015 -22.022 -19.512  0.00  0.00    -0.246 N 
ATOM     14  C   UNL     1      34.655 -20.384 -20.091  0.00  0.00    +0.137 C 
ATOM     15  C   UNL     1      33.219 -20.846 -20.203  0.00  0.00    +0.239 C 
ATOM     16  C   UNL     1      34.070 -22.621 -18.875  0.00  0.00    +0.279 C 
ATOM     17  H   UNL     1      32.119 -22.428 -19.477  0.00  0.00    +0.158 HD
ENDBRANCH   9  14
ENDBRANCH   3   9
ENDBRANCH   2   4
BRANCH   2  18
ATOM     18  C   UNL     1      34.022 -13.858 -22.898  0.00  0.00    +0.076 C 
BRANCH  18  19
ATOM     19  C   UNL     1      32.650 -13.179 -22.860  0.00  0.00    +0.066 C 
BRANCH  19  22
ATOM     20  O   UNL     1      33.191  -9.730 -23.929  0.00  0.00    -0.449 OA
ATOM     21  N   UNL     1      32.104 -10.837 -22.283  0.00  0.00    -0.373 NA
ATOM     22  C   UNL     1      32.738 -11.703 -23.113  0.00  0.00    +0.130 C 
ATOM     23  C   UNL     1      33.398 -11.065 -24.108  0.00  0.00    +0.216 C 
ATOM     24  C   UNL     1      32.408  -9.675 -22.818  0.00  0.00    +0.277 C 
ATOM     25  C   UNL     1      34.224 -11.464 -25.252  0.00  0.00    +0.055 C 
BRANCH  24  26
ATOM     26  C   UNL     1      32.033  -8.353 -22.398  0.00  0.00    +0.066 C 
ATOM     27  C   UNL     1      32.417  -7.878 -21.141  0.00  0.00    +0.006 C 
ATOM     28  C   UNL     1      31.279  -7.535 -23.245  0.00  0.00    +0.006 C 
ATOM     29  C   UNL     1      32.051  -6.594 -20.734  0.00  0.00    +0.000 C 
ATOM     30  C   UNL     1      30.913  -6.252 -22.837  0.00  0.00    +0.000 C 
ATOM     31  C   UNL     1      31.299  -5.782 -21.581  0.00  0.00    +0.000 C 
ENDBRANCH  24  26
ENDBRANCH  19  22
ENDBRANCH  18  19
ENDBRANCH   2  18
TORSDOF 7
ENDMDL
