MODEL 1
REMARK VINA RESULT:      -6.3      0.000      0.000
REMARK  Name = 7410
REMARK  1 active torsions:
REMARK  status: ('A' for Active; 'I' for Inactive)
REMARK    1  A    between atoms: C_1  and  C_8
REMARK                            x       y       z     vdW  Elec       q    Type
REMARK                         _______ _______ _______ _____ _____    ______ ____
ROOT
ATOM      1  C   UNL     1      34.863 -19.864 -20.739  0.00  0.00    +0.035 C 
ATOM      2  C   UNL     1      35.915 -20.619 -20.217  0.00  0.00    +0.003 C 
ATOM      3  C   UNL     1      33.544 -20.211 -20.446  0.00  0.00    +0.003 C 
ATOM      4  C   UNL     1      35.646 -21.720 -19.404  0.00  0.00    +0.000 C 
ATOM      5  C   UNL     1      33.276 -21.312 -19.632  0.00  0.00    +0.000 C 
ATOM      6  C   UNL     1      34.328 -22.066 -19.110  0.00  0.00    +0.000 C 
ENDROOT
BRANCH   1   8
ATOM      7  O   UNL     1      35.414 -17.589 -21.147  0.00  0.00    -0.291 OA
ATOM      8  C   UNL     1      35.142 -18.718 -21.586  0.00  0.00    +0.173 C 
ATOM      9  C   UNL     1      35.103 -18.890 -23.096  0.00  0.00    +0.077 C 
ENDBRANCH   1   8
TORSDOF 1
ENDMDL
MODEL 2
REMARK VINA RESULT:      -6.3      0.034      1.611
REMARK  Name = 7410
REMARK  1 active torsions:
REMARK  status: ('A' for Active; 'I' for Inactive)
REMARK    1  A    between atoms: C_1  and  C_8
REMARK                            x       y       z     vdW  Elec       q    Type
REMARK                         _______ _______ _______ _____ _____    ______ ____
ROOT
ATOM      1  C   UNL     1      34.840 -19.851 -20.747  0.00  0.00    +0.035 C 
ATOM      2  C   UNL     1      33.519 -20.193 -20.452  0.00  0.00    +0.003 C 
ATOM      3  C   UNL     1      35.888 -20.612 -20.231  0.00  0.00    +0.003 C 
ATOM      4  C   UNL     1      33.249 -21.296 -19.641  0.00  0.00    +0.000 C 
ATOM      5  C   UNL     1      35.618 -21.715 -19.420  0.00  0.00    +0.000 C 
ATOM      6  C   UNL     1      34.298 -22.057 -19.125  0.00  0.00    +0.000 C 
ENDROOT
BRANCH   1   8
ATOM      7  O   UNL     1      35.424 -17.584 -21.148  0.00  0.00    -0.291 OA
ATOM      8  C   UNL     1      35.122 -18.703 -21.591  0.00  0.00    +0.173 C 
ATOM      9  C   UNL     1      35.047 -18.861 -23.100  0.00  0.00    +0.077 C 
ENDBRANCH   1   8
TORSDOF 1
ENDMDL
MODEL 3
REMARK VINA RESULT:      -6.2      2.454      4.327
REMARK  Name = 7410
REMARK  1 active torsions:
REMARK  status: ('A' for Active; 'I' for Inactive)
REMARK    1  A    between atoms: C_1  and  C_8
REMARK                            x       y       z     vdW  Elec       q    Type
REMARK                         _______ _______ _______ _____ _____    ______ ____
ROOT
ATOM      1  C   UNL     1      34.116 -21.543 -19.697  0.00  0.00    +0.035 C 
ATOM      2  C   UNL     1      32.958 -20.862 -20.072  0.00  0.00    +0.003 C 
ATOM      3  C   UNL     1      35.368 -21.012 -20.007  0.00  0.00    +0.003 C 
ATOM      4  C   UNL     1      33.052 -19.650 -20.756  0.00  0.00    +0.000 C 
ATOM      5  C   UNL     1      35.462 -19.800 -20.692  0.00  0.00    +0.000 C 
ATOM      6  C   UNL     1      34.304 -19.119 -21.066  0.00  0.00    +0.000 C 
ENDROOT
BRANCH   1   8
ATOM      7  O   UNL     1      33.951 -23.908 -19.548  0.00  0.00    -0.291 OA
ATOM      8  C   UNL     1      34.019 -22.805 -18.984  0.00  0.00    +0.173 C 
ATOM      9  C   UNL     1      33.998 -22.794 -17.464  0.00  0.00    +0.077 C 
ENDBRANCH   1   8
TORSDOF 1
ENDMDL
MODEL 4
REMARK VINA RESULT:      -6.2      2.445      4.000
REMARK  Name = 7410
REMARK  1 active torsions:
REMARK  status: ('A' for Active; 'I' for Inactive)
REMARK    1  A    between atoms: C_1  and  C_8
REMARK                            x       y       z     vdW  Elec       q    Type
REMARK                         _______ _______ _______ _____ _____    ______ ____
ROOT
ATOM      1  C   UNL     1      34.209 -21.499 -19.643  0.00  0.00    +0.035 C 
ATOM      2  C   UNL     1      35.422 -20.974 -20.089  0.00  0.00    +0.003 C 
ATOM      3  C   UNL     1      33.016 -20.836 -19.931  0.00  0.00    +0.003 C 
ATOM      4  C   UNL     1      35.442 -19.788 -20.822  0.00  0.00    +0.000 C 
ATOM      5  C   UNL     1      33.035 -19.649 -20.664  0.00  0.00    +0.000 C 
ATOM      6  C   UNL     1      34.249 -19.125 -21.110  0.00  0.00    +0.000 C 
ENDROOT
BRANCH   1   8
ATOM      7  O   UNL     1      33.865 -23.833 -19.361  0.00  0.00    -0.291 OA
ATOM      8  C   UNL     1      34.188 -22.735 -18.880  0.00  0.00    +0.173 C 
ATOM      9  C   UNL     1      34.578 -22.702 -17.412  0.00  0.00    +0.077 C 
ENDBRANCH   1   8
TORSDOF 1
ENDMDL
MODEL 5
REMARK VINA RESULT:      -6.0      1.762      4.703
REMARK  Name = 7410
REMARK  1 active torsions:
REMARK  status: ('A' for Active; 'I' for Inactive)
REMARK    1  A    between atoms: C_1  and  C_8
REMARK                            x       y       z     vdW  Elec       q    Type
REMARK                         _______ _______ _______ _____ _____    ______ ____
ROOT
ATOM      1  C   UNL     1      34.970 -18.291 -22.548  0.00  0.00    +0.035 C 
ATOM      2  C   UNL     1      34.686 -19.048 -23.684  0.00  0.00    +0.003 C 
ATOM      3  C   UNL     1      35.097 -16.906 -22.647  0.00  0.00    +0.003 C 
ATOM      4  C   UNL     1      34.529 -18.420 -24.920  0.00  0.00    +0.000 C 
ATOM      5  C   UNL     1      34.940 -16.277 -23.882  0.00  0.00    +0.000 C 
ATOM      6  C   UNL     1      34.656 -17.034 -25.019  0.00  0.00    +0.000 C 
ENDROOT
BRANCH   1   8
ATOM      7  O   UNL     1      36.130 -18.793 -20.535  0.00  0.00    -0.291 OA
ATOM      8  C   UNL     1      35.134 -18.945 -21.261  0.00  0.00    +0.173 C 
ATOM      9  C   UNL     1      34.038 -19.870 -20.758  0.00  0.00    +0.077 C 
ENDBRANCH   1   8
TORSDOF 1
ENDMDL
MODEL 6
REMARK VINA RESULT:      -6.0      4.154      5.183
REMARK  Name = 7410
REMARK  1 active torsions:
REMARK  status: ('A' for Active; 'I' for Inactive)
REMARK    1  A    between atoms: C_1  and  C_8
REMARK                            x       y       z     vdW  Elec       q    Type
REMARK                         _______ _______ _______ _____ _____    ______ ____
ROOT
ATOM      1  C   UNL     1      34.641 -16.571 -23.444  0.00  0.00    +0.035 C 
ATOM      2  C   UNL     1      34.853 -17.261 -22.251  0.00  0.00    +0.003 C 
ATOM      3  C   UNL     1      34.392 -15.199 -23.421  0.00  0.00    +0.003 C 
ATOM      4  C   UNL     1      34.817 -16.579 -21.035  0.00  0.00    +0.000 C 
ATOM      5  C   UNL     1      34.356 -14.516 -22.205  0.00  0.00    +0.000 C 
ATOM      6  C   UNL     1      34.568 -15.207 -21.011  0.00  0.00    +0.000 C 
ENDROOT
BRANCH   1   8
ATOM      7  O   UNL     1      34.852 -16.722 -25.806  0.00  0.00    -0.291 OA
ATOM      8  C   UNL     1      34.679 -17.281 -24.712  0.00  0.00    +0.173 C 
ATOM      9  C   UNL     1      34.499 -18.790 -24.717  0.00  0.00    +0.077 C 
ENDBRANCH   1   8
TORSDOF 1
ENDMDL
MODEL 7
REMARK VINA RESULT:      -6.0      4.153      5.275
REMARK  Name = 7410
REMARK  1 active torsions:
REMARK  status: ('A' for Active; 'I' for Inactive)
REMARK    1  A    between atoms: C_1  and  C_8
REMARK                            x       y       z     vdW  Elec       q    Type
REMARK                         _______ _______ _______ _____ _____    ______ ____
ROOT
ATOM      1  C   UNL     1      34.642 -16.571 -23.443  0.00  0.00    +0.035 C 
ATOM      2  C   UNL     1      34.393 -15.199 -23.420  0.00  0.00    +0.003 C 
ATOM      3  C   UNL     1      34.855 -17.261 -22.250  0.00  0.00    +0.003 C 
ATOM      4  C   UNL     1      34.356 -14.517 -22.203  0.00  0.00    +0.000 C 
ATOM      5  C   UNL     1      34.818 -16.580 -21.033  0.00  0.00    +0.000 C 
ATOM      6  C   UNL     1      34.568 -15.208 -21.010  0.00  0.00    +0.000 C 
ENDROOT
BRANCH   1   8
ATOM      7  O   UNL     1      34.855 -16.723 -25.805  0.00  0.00    -0.291 OA
ATOM      8  C   UNL     1      34.681 -17.281 -24.711  0.00  0.00    +0.173 C 
ATOM      9  C   UNL     1      34.500 -18.790 -24.716  0.00  0.00    +0.077 C 
ENDBRANCH   1   8
TORSDOF 1
ENDMDL
MODEL 8
REMARK VINA RESULT:      -5.9      2.916      4.198
REMARK  Name = 7410
REMARK  1 active torsions:
REMARK  status: ('A' for Active; 'I' for Inactive)
REMARK    1  A    between atoms: C_1  and  C_8
REMARK                            x       y       z     vdW  Elec       q    Type
REMARK                         _______ _______ _______ _____ _____    ______ ____
ROOT
ATOM      1  C   UNL     1      34.701 -17.263 -23.519  0.00  0.00    +0.035 C 
ATOM      2  C   UNL     1      34.901 -16.606 -22.304  0.00  0.00    +0.003 C 
ATOM      3  C   UNL     1      34.729 -18.656 -23.571  0.00  0.00    +0.003 C 
ATOM      4  C   UNL     1      35.128 -17.344 -21.142  0.00  0.00    +0.000 C 
ATOM      5  C   UNL     1      34.956 -19.394 -22.409  0.00  0.00    +0.000 C 
ATOM      6  C   UNL     1      35.156 -18.737 -21.194  0.00  0.00    +0.000 C 
ENDROOT
BRANCH   1   8
ATOM      7  O   UNL     1      34.892 -16.826 -25.847  0.00  0.00    -0.291 OA
ATOM      8  C   UNL     1      34.464 -16.495 -24.730  0.00  0.00    +0.173 C 
ATOM      9  C   UNL     1      33.650 -15.215 -24.644  0.00  0.00    +0.077 C 
ENDBRANCH   1   8
TORSDOF 1
ENDMDL
MODEL 9
REMARK VINA RESULT:      -5.8      2.752      4.213
REMARK  Name = 7410
REMARK  1 active torsions:
REMARK  status: ('A' for Active; 'I' for Inactive)
REMARK    1  A    between atoms: C_1  and  C_8
REMARK                            x       y       z     vdW  Elec       q    Type
REMARK                         _______ _______ _______ _____ _____    ______ ____
ROOT
ATOM      1  C   UNL     1      34.418 -16.983 -21.843  0.00  0.00    +0.035 C 
ATOM      2  C   UNL     1      34.747 -16.695 -23.168  0.00  0.00    +0.003 C 
ATOM      3  C   UNL     1      34.368 -18.307 -21.409  0.00  0.00    +0.003 C 
ATOM      4  C   UNL     1      35.027 -17.732 -24.058  0.00  0.00    +0.000 C 
ATOM      5  C   UNL     1      34.648 -19.345 -22.299  0.00  0.00    +0.000 C 
ATOM      6  C   UNL     1      34.977 -19.057 -23.624  0.00  0.00    +0.000 C 
ENDROOT
BRANCH   1   8
ATOM      7  O   UNL     1      34.967 -15.419 -20.140  0.00  0.00    -0.291 OA
ATOM      8  C   UNL     1      34.127 -15.903 -20.915  0.00  0.00    +0.173 C 
ATOM      9  C   UNL     1      32.723 -15.322 -20.878  0.00  0.00    +0.077 C 
ENDBRANCH   1   8
TORSDOF 1
ENDMDL
