MODEL 1
REMARK VINA RESULT:      -7.4      0.000      0.000
REMARK  Name = 4631
REMARK  10 active torsions:
REMARK  status: ('A' for Active; 'I' for Inactive)
REMARK    1  A    between atoms: O_1  and  C_2
REMARK    2  A    between atoms: O_1  and  C_12
REMARK    3  A    between atoms: C_3  and  O_8
REMARK    4  A    between atoms: O_8  and  C_9
REMARK    5  A    between atoms: C_9  and  C_10
REMARK    6  A    between atoms: C_12  and  C_13
REMARK    7  A    between atoms: C_13  and  O_14
REMARK    8  A    between atoms: C_13  and  C_16
REMARK    9  A    between atoms: C_16  and  N_17
REMARK   10  A    between atoms: N_17  and  C_20
REMARK                            x       y       z     vdW  Elec       q    Type
REMARK                         _______ _______ _______ _____ _____    ______ ____
ROOT
ATOM      1  O   UNL     1      35.277 -23.751 -16.275  0.00  0.00    -0.470 OA
ENDROOT
BRANCH   1   2
ATOM      2  C   UNL     1      33.947 -23.495 -16.075  0.00  0.00    +0.172 C 
ATOM      3  C   UNL     1      33.102 -23.287 -17.160  0.00  0.00    +0.173 C 
ATOM      4  C   UNL     1      33.453 -23.448 -14.775  0.00  0.00    +0.040 C 
ATOM      5  C   UNL     1      31.748 -23.028 -16.942  0.00  0.00    +0.040 C 
ATOM      6  C   UNL     1      32.100 -23.189 -14.558  0.00  0.00    +0.003 C 
ATOM      7  C   UNL     1      31.247 -22.979 -15.641  0.00  0.00    +0.003 C 
BRANCH   3   8
ATOM      8  O   UNL     1      33.579 -23.333 -18.434  0.00  0.00    -0.468 OA
BRANCH   8   9
ATOM      9  C   UNL     1      33.562 -22.116 -19.178  0.00  0.00    +0.232 C 
BRANCH   9  10
ATOM     10  C   UNL     1      34.966 -21.734 -19.507  0.00  0.00    +0.021 C 
ATOM     11  C   UNL     1      35.300 -20.652 -20.218  0.00  0.00    -0.001 C 
ENDBRANCH   9  10
ENDBRANCH   8   9
ENDBRANCH   3   8
ENDBRANCH   1   2
BRANCH   1  12
ATOM     12  C   UNL     1      36.159 -22.633 -16.222  0.00  0.00    +0.232 C 
BRANCH  12  13
ATOM     13  C   UNL     1      37.350 -22.986 -15.335  0.00  0.00    +0.133 C 
BRANCH  13  14
ATOM     14  O   UNL     1      38.518 -23.080 -16.157  0.00  0.00    -0.383 OA
ATOM     15  H   UNL     1      38.272 -23.425 -17.029  0.00  0.00    +0.210 HD
ENDBRANCH  13  14
BRANCH  13  16
ATOM     16  C   UNL     1      37.180 -24.313 -14.592  0.00  0.00    -0.048 C 
BRANCH  16  17
ATOM     17  N   UNL     1      37.885 -25.404 -15.251  0.00  0.00    +0.387 N 
ATOM     18  H   UNL     1      38.435 -25.028 -16.024  0.00  0.00    -0.084 HD
ATOM     19  H   UNL     1      37.197 -26.075 -15.596  0.00  0.00    -0.084 HD
BRANCH  17  20
ATOM     20  C   UNL     1      38.773 -26.088 -14.321  0.00  0.00    -0.062 C 
ATOM     21  C   UNL     1      38.451 -25.680 -12.885  0.00  0.00    -0.023 C 
ATOM     22  C   UNL     1      40.222 -25.762 -14.670  0.00  0.00    -0.023 C 
ENDBRANCH  17  20
ENDBRANCH  16  17
ENDBRANCH  13  16
ENDBRANCH  12  13
ENDBRANCH   1  12
TORSDOF 10
ENDMDL
MODEL 2
REMARK VINA RESULT:      -7.4      9.950     13.357
REMARK  Name = 4631
REMARK  10 active torsions:
REMARK  status: ('A' for Active; 'I' for Inactive)
REMARK    1  A    between atoms: O_1  and  C_2
REMARK    2  A    between atoms: O_1  and  C_12
REMARK    3  A    between atoms: C_3  and  O_8
REMARK    4  A    between atoms: O_8  and  C_9
REMARK    5  A    between atoms: C_9  and  C_10
REMARK    6  A    between atoms: C_12  and  C_13
REMARK    7  A    between atoms: C_13  and  O_14
REMARK    8  A    between atoms: C_13  and  C_16
REMARK    9  A    between atoms: C_16  and  N_17
REMARK   10  A    between atoms: N_17  and  C_20
REMARK                            x       y       z     vdW  Elec       q    Type
REMARK                         _______ _______ _______ _____ _____    ______ ____
ROOT
ATOM      1  O   UNL     1      34.366 -15.890 -25.880  0.00  0.00    -0.470 OA
ENDROOT
BRANCH   1   2
ATOM      2  C   UNL     1      34.571 -16.827 -24.904  0.00  0.00    +0.172 C 
ATOM      3  C   UNL     1      34.868 -16.432 -23.603  0.00  0.00    +0.173 C 
ATOM      4  C   UNL     1      34.478 -18.177 -25.228  0.00  0.00    +0.040 C 
ATOM      5  C   UNL     1      35.075 -17.397 -22.617  0.00  0.00    +0.040 C 
ATOM      6  C   UNL     1      34.683 -19.141 -24.242  0.00  0.00    +0.003 C 
ATOM      7  C   UNL     1      34.983 -18.752 -22.937  0.00  0.00    +0.003 C 
BRANCH   3   8
ATOM      8  O   UNL     1      34.960 -15.112 -23.279  0.00  0.00    -0.468 OA
BRANCH   8   9
ATOM      9  C   UNL     1      34.404 -14.711 -22.029  0.00  0.00    +0.232 C 
BRANCH   9  10
ATOM     10  C   UNL     1      32.944 -14.459 -22.211  0.00  0.00    +0.021 C 
ATOM     11  C   UNL     1      32.289 -13.431 -21.661  0.00  0.00    -0.001 C 
ENDBRANCH   9  10
ENDBRANCH   8   9
ENDBRANCH   3   8
ENDBRANCH   1   2
BRANCH   1  12
ATOM     12  C   UNL     1      33.012 -15.587 -26.204  0.00  0.00    +0.232 C 
BRANCH  12  13
ATOM     13  C   UNL     1      32.912 -14.110 -26.577  0.00  0.00    +0.133 C 
BRANCH  13  14
ATOM     14  O   UNL     1      33.765 -13.865 -27.699  0.00  0.00    -0.383 OA
ATOM     15  H   UNL     1      33.908 -12.910 -27.795  0.00  0.00    +0.210 HD
ENDBRANCH  13  14
BRANCH  13  16
ATOM     16  C   UNL     1      33.330 -13.169 -25.445  0.00  0.00    -0.048 C 
BRANCH  16  17
ATOM     17  N   UNL     1      33.759 -11.869 -25.942  0.00  0.00    +0.387 N 
ATOM     18  H   UNL     1      32.943 -11.348 -26.262  0.00  0.00    -0.084 HD
ATOM     19  H   UNL     1      34.414 -12.015 -26.711  0.00  0.00    -0.084 HD
BRANCH  17  20
ATOM     20  C   UNL     1      34.432 -11.108 -24.898  0.00  0.00    -0.062 C 
ATOM     21  C   UNL     1      33.414 -10.320 -24.078  0.00  0.00    -0.023 C 
ATOM     22  C   UNL     1      35.462 -10.178 -25.531  0.00  0.00    -0.023 C 
ENDBRANCH  17  20
ENDBRANCH  16  17
ENDBRANCH  13  16
ENDBRANCH  12  13
ENDBRANCH   1  12
TORSDOF 10
ENDMDL
MODEL 3
REMARK VINA RESULT:      -7.3      1.127      1.619
REMARK  Name = 4631
REMARK  10 active torsions:
REMARK  status: ('A' for Active; 'I' for Inactive)
REMARK    1  A    between atoms: O_1  and  C_2
REMARK    2  A    between atoms: O_1  and  C_12
REMARK    3  A    between atoms: C_3  and  O_8
REMARK    4  A    between atoms: O_8  and  C_9
REMARK    5  A    between atoms: C_9  and  C_10
REMARK    6  A    between atoms: C_12  and  C_13
REMARK    7  A    between atoms: C_13  and  O_14
REMARK    8  A    between atoms: C_13  and  C_16
REMARK    9  A    between atoms: C_16  and  N_17
REMARK   10  A    between atoms: N_17  and  C_20
REMARK                            x       y       z     vdW  Elec       q    Type
REMARK                         _______ _______ _______ _____ _____    ______ ____
ROOT
ATOM      1  O   UNL     1      35.273 -23.869 -16.318  0.00  0.00    -0.470 OA
ENDROOT
BRANCH   1   2
ATOM      2  C   UNL     1      33.962 -23.551 -16.085  0.00  0.00    +0.172 C 
ATOM      3  C   UNL     1      33.102 -23.296 -17.148  0.00  0.00    +0.173 C 
ATOM      4  C   UNL     1      33.502 -23.487 -14.773  0.00  0.00    +0.040 C 
ATOM      5  C   UNL     1      31.768 -22.973 -16.897  0.00  0.00    +0.040 C 
ATOM      6  C   UNL     1      32.169 -23.165 -14.522  0.00  0.00    +0.003 C 
ATOM      7  C   UNL     1      31.301 -22.908 -15.583  0.00  0.00    +0.003 C 
BRANCH   3   8
ATOM      8  O   UNL     1      33.545 -23.358 -18.434  0.00  0.00    -0.468 OA
BRANCH   8   9
ATOM      9  C   UNL     1      33.750 -22.119 -19.110  0.00  0.00    +0.232 C 
BRANCH   9  10
ATOM     10  C   UNL     1      35.140 -22.091 -19.652  0.00  0.00    +0.021 C 
ATOM     11  C   UNL     1      36.121 -21.330 -19.155  0.00  0.00    -0.001 C 
ENDBRANCH   9  10
ENDBRANCH   8   9
ENDBRANCH   3   8
ENDBRANCH   1   2
BRANCH   1  12
ATOM     12  C   UNL     1      36.248 -22.933 -15.870  0.00  0.00    +0.232 C 
BRANCH  12  13
ATOM     13  C   UNL     1      37.352 -23.685 -15.132  0.00  0.00    +0.133 C 
BRANCH  13  14
ATOM     14  O   UNL     1      38.584 -23.491 -15.833  0.00  0.00    -0.383 OA
ATOM     15  H   UNL     1      39.258 -24.090 -15.474  0.00  0.00    +0.210 HD
ENDBRANCH  13  14
BRANCH  13  16
ATOM     16  C   UNL     1      37.094 -25.190 -15.026  0.00  0.00    -0.048 C 
BRANCH  16  17
ATOM     17  N   UNL     1      36.265 -25.524 -13.876  0.00  0.00    +0.387 N 
ATOM     18  H   UNL     1      36.291 -26.533 -13.728  0.00  0.00    -0.084 HD
ATOM     19  H   UNL     1      35.310 -25.216 -14.062  0.00  0.00    -0.084 HD
BRANCH  17  20
ATOM     20  C   UNL     1      36.744 -24.852 -12.676  0.00  0.00    -0.062 C 
ATOM     21  C   UNL     1      37.909 -25.628 -12.065  0.00  0.00    -0.023 C 
ATOM     22  C   UNL     1      35.597 -24.713 -11.679  0.00  0.00    -0.023 C 
ENDBRANCH  17  20
ENDBRANCH  16  17
ENDBRANCH  13  16
ENDBRANCH  12  13
ENDBRANCH   1  12
TORSDOF 10
ENDMDL
MODEL 4
REMARK VINA RESULT:      -7.3      1.171      3.644
REMARK  Name = 4631
REMARK  10 active torsions:
REMARK  status: ('A' for Active; 'I' for Inactive)
REMARK    1  A    between atoms: O_1  and  C_2
REMARK    2  A    between atoms: O_1  and  C_12
REMARK    3  A    between atoms: C_3  and  O_8
REMARK    4  A    between atoms: O_8  and  C_9
REMARK    5  A    between atoms: C_9  and  C_10
REMARK    6  A    between atoms: C_12  and  C_13
REMARK    7  A    between atoms: C_13  and  O_14
REMARK    8  A    between atoms: C_13  and  C_16
REMARK    9  A    between atoms: C_16  and  N_17
REMARK   10  A    between atoms: N_17  and  C_20
REMARK                            x       y       z     vdW  Elec       q    Type
REMARK                         _______ _______ _______ _____ _____    ______ ____
ROOT
ATOM      1  O   UNL     1      36.747 -22.403 -17.873  0.00  0.00    -0.470 OA
ENDROOT
BRANCH   1   2
ATOM      2  C   UNL     1      35.771 -21.859 -18.663  0.00  0.00    +0.172 C 
ATOM      3  C   UNL     1      34.449 -22.273 -18.531  0.00  0.00    +0.173 C 
ATOM      4  C   UNL     1      36.117 -20.888 -19.598  0.00  0.00    +0.040 C 
ATOM      5  C   UNL     1      33.463 -21.710 -19.343  0.00  0.00    +0.040 C 
ATOM      6  C   UNL     1      35.131 -20.325 -20.408  0.00  0.00    +0.003 C 
ATOM      7  C   UNL     1      33.805 -20.736 -20.282  0.00  0.00    +0.003 C 
BRANCH   3   8
ATOM      8  O   UNL     1      34.104 -23.222 -17.618  0.00  0.00    -0.468 OA
BRANCH   8   9
ATOM      9  C   UNL     1      32.760 -23.202 -17.138  0.00  0.00    +0.232 C 
BRANCH   9  10
ATOM     10  C   UNL     1      32.771 -23.463 -15.669  0.00  0.00    +0.021 C 
ATOM     11  C   UNL     1      31.881 -22.951 -14.812  0.00  0.00    -0.001 C 
ENDBRANCH   9  10
ENDBRANCH   8   9
ENDBRANCH   3   8
ENDBRANCH   1   2
BRANCH   1  12
ATOM     12  C   UNL     1      37.079 -21.692 -16.685  0.00  0.00    +0.232 C 
BRANCH  12  13
ATOM     13  C   UNL     1      37.525 -22.691 -15.620  0.00  0.00    +0.133 C 
BRANCH  13  14
ATOM     14  O   UNL     1      38.727 -23.327 -16.066  0.00  0.00    -0.383 OA
ATOM     15  H   UNL     1      39.493 -22.799 -15.791  0.00  0.00    +0.210 HD
ENDBRANCH  13  14
BRANCH  13  16
ATOM     16  C   UNL     1      36.485 -23.778 -15.337  0.00  0.00    -0.048 C 
BRANCH  16  17
ATOM     17  N   UNL     1      37.089 -25.099 -15.229  0.00  0.00    +0.387 N 
ATOM     18  H   UNL     1      38.074 -25.038 -15.488  0.00  0.00    -0.084 HD
ATOM     19  H   UNL     1      36.594 -25.735 -15.855  0.00  0.00    -0.084 HD
BRANCH  17  20
ATOM     20  C   UNL     1      36.983 -25.611 -13.869  0.00  0.00    -0.062 C 
ATOM     21  C   UNL     1      35.969 -24.793 -13.073  0.00  0.00    -0.023 C 
ATOM     22  C   UNL     1      38.356 -25.576 -13.205  0.00  0.00    -0.023 C 
ENDBRANCH  17  20
ENDBRANCH  16  17
ENDBRANCH  13  16
ENDBRANCH  12  13
ENDBRANCH   1  12
TORSDOF 10
ENDMDL
MODEL 5
REMARK VINA RESULT:      -7.3      8.703     12.106
REMARK  Name = 4631
REMARK  10 active torsions:
REMARK  status: ('A' for Active; 'I' for Inactive)
REMARK    1  A    between atoms: O_1  and  C_2
REMARK    2  A    between atoms: O_1  and  C_12
REMARK    3  A    between atoms: C_3  and  O_8
REMARK    4  A    between atoms: O_8  and  C_9
REMARK    5  A    between atoms: C_9  and  C_10
REMARK    6  A    between atoms: C_12  and  C_13
REMARK    7  A    between atoms: C_13  and  O_14
REMARK    8  A    between atoms: C_13  and  C_16
REMARK    9  A    between atoms: C_16  and  N_17
REMARK   10  A    between atoms: N_17  and  C_20
REMARK                            x       y       z     vdW  Elec       q    Type
REMARK                         _______ _______ _______ _____ _____    ______ ____
ROOT
ATOM      1  O   UNL     1      33.998 -14.189 -22.680  0.00  0.00    -0.470 OA
ENDROOT
BRANCH   1   2
ATOM      2  C   UNL     1      33.739 -13.978 -24.008  0.00  0.00    +0.172 C 
ATOM      3  C   UNL     1      33.743 -12.686 -24.526  0.00  0.00    +0.173 C 
ATOM      4  C   UNL     1      33.473 -15.068 -24.830  0.00  0.00    +0.040 C 
ATOM      5  C   UNL     1      33.478 -12.484 -25.881  0.00  0.00    +0.040 C 
ATOM      6  C   UNL     1      33.209 -14.865 -26.184  0.00  0.00    +0.003 C 
ATOM      7  C   UNL     1      33.210 -13.574 -26.710  0.00  0.00    +0.003 C 
BRANCH   3   8
ATOM      8  O   UNL     1      34.004 -11.615 -23.727  0.00  0.00    -0.468 OA
BRANCH   8   9
ATOM      9  C   UNL     1      33.596 -10.334 -24.205  0.00  0.00    +0.232 C 
BRANCH   9  10
ATOM     10  C   UNL     1      34.774  -9.419 -24.190  0.00  0.00    +0.021 C 
ATOM     11  C   UNL     1      34.730  -8.150 -23.769  0.00  0.00    -0.001 C 
ENDBRANCH   9  10
ENDBRANCH   8   9
ENDBRANCH   3   8
ENDBRANCH   1   2
BRANCH   1  12
ATOM     12  C   UNL     1      33.242 -15.210 -22.035  0.00  0.00    +0.232 C 
BRANCH  12  13
ATOM     13  C   UNL     1      34.145 -15.942 -21.046  0.00  0.00    +0.133 C 
BRANCH  13  14
ATOM     14  O   UNL     1      34.927 -14.974 -20.340  0.00  0.00    -0.383 OA
ATOM     15  H   UNL     1      35.836 -15.299 -20.246  0.00  0.00    +0.210 HD
ENDBRANCH  13  14
BRANCH  13  16
ATOM     16  C   UNL     1      35.100 -16.933 -21.716  0.00  0.00    -0.048 C 
BRANCH  16  17
ATOM     17  N   UNL     1      35.424 -18.055 -20.847  0.00  0.00    +0.387 N 
ATOM     18  H   UNL     1      34.963 -17.924 -19.946  0.00  0.00    -0.084 HD
ATOM     19  H   UNL     1      36.437 -18.093 -20.727  0.00  0.00    -0.084 HD
BRANCH  17  20
ATOM     20  C   UNL     1      34.979 -19.312 -21.432  0.00  0.00    -0.062 C 
ATOM     21  C   UNL     1      34.822 -19.166 -22.944  0.00  0.00    -0.023 C 
ATOM     22  C   UNL     1      33.664 -19.737 -20.784  0.00  0.00    -0.023 C 
ENDBRANCH  17  20
ENDBRANCH  16  17
ENDBRANCH  13  16
ENDBRANCH  12  13
ENDBRANCH   1  12
TORSDOF 10
ENDMDL
MODEL 6
REMARK VINA RESULT:      -7.3     12.315     14.839
REMARK  Name = 4631
REMARK  10 active torsions:
REMARK  status: ('A' for Active; 'I' for Inactive)
REMARK    1  A    between atoms: O_1  and  C_2
REMARK    2  A    between atoms: O_1  and  C_12
REMARK    3  A    between atoms: C_3  and  O_8
REMARK    4  A    between atoms: O_8  and  C_9
REMARK    5  A    between atoms: C_9  and  C_10
REMARK    6  A    between atoms: C_12  and  C_13
REMARK    7  A    between atoms: C_13  and  O_14
REMARK    8  A    between atoms: C_13  and  C_16
REMARK    9  A    between atoms: C_16  and  N_17
REMARK   10  A    between atoms: N_17  and  C_20
REMARK                            x       y       z     vdW  Elec       q    Type
REMARK                         _______ _______ _______ _____ _____    ______ ____
ROOT
ATOM      1  O   UNL     1      31.958 -12.336 -22.463  0.00  0.00    -0.470 OA
ENDROOT
BRANCH   1   2
ATOM      2  C   UNL     1      31.878 -11.383 -21.484  0.00  0.00    +0.172 C 
ATOM      3  C   UNL     1      32.095 -10.043 -21.790  0.00  0.00    +0.173 C 
ATOM      4  C   UNL     1      31.576 -11.771 -20.182  0.00  0.00    +0.040 C 
ATOM      5  C   UNL     1      32.011  -9.081 -20.782  0.00  0.00    +0.040 C 
ATOM      6  C   UNL     1      31.492 -10.809 -19.176  0.00  0.00    +0.003 C 
ATOM      7  C   UNL     1      31.709  -9.465 -19.475  0.00  0.00    +0.003 C 
BRANCH   3   8
ATOM      8  O   UNL     1      32.389  -9.657 -23.062  0.00  0.00    -0.468 OA
BRANCH   8   9
ATOM      9  C   UNL     1      32.234  -8.274 -23.372  0.00  0.00    +0.232 C 
BRANCH   9  10
ATOM     10  C   UNL     1      33.519  -7.760 -23.932  0.00  0.00    +0.021 C 
ATOM     11  C   UNL     1      34.651  -7.652 -23.228  0.00  0.00    -0.001 C 
ENDBRANCH   9  10
ENDBRANCH   8   9
ENDBRANCH   3   8
ENDBRANCH   1   2
BRANCH   1  12
ATOM     12  C   UNL     1      32.404 -13.629 -22.064  0.00  0.00    +0.232 C 
BRANCH  12  13
ATOM     13  C   UNL     1      33.438 -14.127 -23.071  0.00  0.00    +0.133 C 
BRANCH  13  14
ATOM     14  O   UNL     1      34.736 -14.027 -22.478  0.00  0.00    -0.383 OA
ATOM     15  H   UNL     1      35.122 -14.913 -22.393  0.00  0.00    +0.210 HD
ENDBRANCH  13  14
BRANCH  13  16
ATOM     16  C   UNL     1      33.445 -13.328 -24.376  0.00  0.00    -0.048 C 
BRANCH  16  17
ATOM     17  N   UNL     1      34.187 -12.082 -24.252  0.00  0.00    +0.387 N 
ATOM     18  H   UNL     1      35.171 -12.294 -24.083  0.00  0.00    -0.084 HD
ATOM     19  H   UNL     1      33.799 -11.548 -23.474  0.00  0.00    -0.084 HD
BRANCH  17  20
ATOM     20  C   UNL     1      34.073 -11.284 -25.465  0.00  0.00    -0.062 C 
ATOM     21  C   UNL     1      33.799 -12.185 -26.667  0.00  0.00    -0.023 C 
ATOM     22  C   UNL     1      35.352 -10.478 -25.666  0.00  0.00    -0.023 C 
ENDBRANCH  17  20
ENDBRANCH  16  17
ENDBRANCH  13  16
ENDBRANCH  12  13
ENDBRANCH   1  12
TORSDOF 10
ENDMDL
MODEL 7
REMARK VINA RESULT:      -7.2      7.434     11.621
REMARK  Name = 4631
REMARK  10 active torsions:
REMARK  status: ('A' for Active; 'I' for Inactive)
REMARK    1  A    between atoms: O_1  and  C_2
REMARK    2  A    between atoms: O_1  and  C_12
REMARK    3  A    between atoms: C_3  and  O_8
REMARK    4  A    between atoms: O_8  and  C_9
REMARK    5  A    between atoms: C_9  and  C_10
REMARK    6  A    between atoms: C_12  and  C_13
REMARK    7  A    between atoms: C_13  and  O_14
REMARK    8  A    between atoms: C_13  and  C_16
REMARK    9  A    between atoms: C_16  and  N_17
REMARK   10  A    between atoms: N_17  and  C_20
REMARK                            x       y       z     vdW  Elec       q    Type
REMARK                         _______ _______ _______ _____ _____    ______ ____
ROOT
ATOM      1  O   UNL     1      34.893 -15.712 -21.841  0.00  0.00    -0.470 OA
ENDROOT
BRANCH   1   2
ATOM      2  C   UNL     1      34.810 -16.668 -22.816  0.00  0.00    +0.172 C 
ATOM      3  C   UNL     1      34.779 -18.018 -22.476  0.00  0.00    +0.173 C 
ATOM      4  C   UNL     1      34.758 -16.275 -24.150  0.00  0.00    +0.040 C 
ATOM      5  C   UNL     1      34.694 -18.983 -23.481  0.00  0.00    +0.040 C 
ATOM      6  C   UNL     1      34.672 -17.240 -25.153  0.00  0.00    +0.003 C 
ATOM      7  C   UNL     1      34.642 -18.593 -24.819  0.00  0.00    +0.003 C 
BRANCH   3   8
ATOM      8  O   UNL     1      34.829 -18.409 -21.173  0.00  0.00    -0.468 OA
BRANCH   8   9
ATOM      9  C   UNL     1      35.267 -19.741 -20.913  0.00  0.00    +0.232 C 
BRANCH   9  10
ATOM     10  C   UNL     1      34.178 -20.475 -20.204  0.00  0.00    +0.021 C 
ATOM     11  C   UNL     1      32.875 -20.244 -20.393  0.00  0.00    -0.001 C 
ENDBRANCH   9  10
ENDBRANCH   8   9
ENDBRANCH   3   8
ENDBRANCH   1   2
BRANCH   1  12
ATOM     12  C   UNL     1      34.015 -14.596 -21.961  0.00  0.00    +0.232 C 
BRANCH  12  13
ATOM     13  C   UNL     1      33.008 -14.634 -20.815  0.00  0.00    +0.133 C 
BRANCH  13  14
ATOM     14  O   UNL     1      32.028 -15.636 -21.103  0.00  0.00    -0.383 OA
ATOM     15  H   UNL     1      31.332 -15.612 -20.427  0.00  0.00    +0.210 HD
ENDBRANCH  13  14
BRANCH  13  16
ATOM     16  C   UNL     1      32.282 -13.303 -20.602  0.00  0.00    -0.048 C 
BRANCH  16  17
ATOM     17  N   UNL     1      31.809 -12.730 -21.855  0.00  0.00    +0.387 N 
ATOM     18  H   UNL     1      31.138 -13.370 -22.282  0.00  0.00    -0.084 HD
ATOM     19  H   UNL     1      32.610 -12.589 -22.471  0.00  0.00    -0.084 HD
BRANCH  17  20
ATOM     20  C   UNL     1      31.165 -11.444 -21.628  0.00  0.00    -0.062 C 
ATOM     21  C   UNL     1      31.854 -10.356 -22.448  0.00  0.00    -0.023 C 
ATOM     22  C   UNL     1      31.200 -11.112 -20.140  0.00  0.00    -0.023 C 
ENDBRANCH  17  20
ENDBRANCH  16  17
ENDBRANCH  13  16
ENDBRANCH  12  13
ENDBRANCH   1  12
TORSDOF 10
ENDMDL
MODEL 8
REMARK VINA RESULT:      -7.1      7.890     11.060
REMARK  Name = 4631
REMARK  10 active torsions:
REMARK  status: ('A' for Active; 'I' for Inactive)
REMARK    1  A    between atoms: O_1  and  C_2
REMARK    2  A    between atoms: O_1  and  C_12
REMARK    3  A    between atoms: C_3  and  O_8
REMARK    4  A    between atoms: O_8  and  C_9
REMARK    5  A    between atoms: C_9  and  C_10
REMARK    6  A    between atoms: C_12  and  C_13
REMARK    7  A    between atoms: C_13  and  O_14
REMARK    8  A    between atoms: C_13  and  C_16
REMARK    9  A    between atoms: C_16  and  N_17
REMARK   10  A    between atoms: N_17  and  C_20
REMARK                            x       y       z     vdW  Elec       q    Type
REMARK                         _______ _______ _______ _____ _____    ______ ____
ROOT
ATOM      1  O   UNL     1      34.821 -15.411 -23.458  0.00  0.00    -0.470 OA
ENDROOT
BRANCH   1   2
ATOM      2  C   UNL     1      33.984 -14.784 -22.575  0.00  0.00    +0.172 C 
ATOM      3  C   UNL     1      33.408 -13.560 -22.902  0.00  0.00    +0.173 C 
ATOM      4  C   UNL     1      33.716 -15.384 -21.348  0.00  0.00    +0.040 C 
ATOM      5  C   UNL     1      32.557 -12.930 -21.994  0.00  0.00    +0.040 C 
ATOM      6  C   UNL     1      32.864 -14.755 -20.441  0.00  0.00    +0.003 C 
ATOM      7  C   UNL     1      32.285 -13.528 -20.763  0.00  0.00    +0.003 C 
BRANCH   3   8
ATOM      8  O   UNL     1      33.665 -12.967 -24.101  0.00  0.00    -0.468 OA
BRANCH   8   9
ATOM      9  C   UNL     1      33.782 -11.545 -24.110  0.00  0.00    +0.232 C 
BRANCH   9  10
ATOM     10  C   UNL     1      34.347 -11.118 -25.424  0.00  0.00    +0.021 C 
ATOM     11  C   UNL     1      35.402 -10.307 -25.555  0.00  0.00    -0.001 C 
ENDBRANCH   9  10
ENDBRANCH   8   9
ENDBRANCH   3   8
ENDBRANCH   1   2
BRANCH   1  12
ATOM     12  C   UNL     1      34.205 -16.154 -24.506  0.00  0.00    +0.232 C 
BRANCH  12  13
ATOM     13  C   UNL     1      34.963 -17.466 -24.692  0.00  0.00    +0.133 C 
BRANCH  13  14
ATOM     14  O   UNL     1      34.342 -18.205 -25.748  0.00  0.00    -0.383 OA
ATOM     15  H   UNL     1      34.870 -18.995 -25.943  0.00  0.00    +0.210 HD
ENDBRANCH  13  14
BRANCH  13  16
ATOM     16  C   UNL     1      34.973 -18.342 -23.437  0.00  0.00    -0.048 C 
BRANCH  16  17
ATOM     17  N   UNL     1      36.116 -18.059 -22.580  0.00  0.00    +0.387 N 
ATOM     18  H   UNL     1      36.320 -17.060 -22.615  0.00  0.00    -0.084 HD
ATOM     19  H   UNL     1      36.915 -18.598 -22.914  0.00  0.00    -0.084 HD
BRANCH  17  20
ATOM     20  C   UNL     1      35.841 -18.442 -21.202  0.00  0.00    -0.062 C 
ATOM     21  C   UNL     1      36.884 -19.446 -20.714  0.00  0.00    -0.023 C 
ATOM     22  C   UNL     1      34.435 -19.025 -21.108  0.00  0.00    -0.023 C 
ENDBRANCH  17  20
ENDBRANCH  16  17
ENDBRANCH  13  16
ENDBRANCH  12  13
ENDBRANCH   1  12
TORSDOF 10
ENDMDL
MODEL 9
REMARK VINA RESULT:      -7.1      9.569     12.512
REMARK  Name = 4631
REMARK  10 active torsions:
REMARK  status: ('A' for Active; 'I' for Inactive)
REMARK    1  A    between atoms: O_1  and  C_2
REMARK    2  A    between atoms: O_1  and  C_12
REMARK    3  A    between atoms: C_3  and  O_8
REMARK    4  A    between atoms: O_8  and  C_9
REMARK    5  A    between atoms: C_9  and  C_10
REMARK    6  A    between atoms: C_12  and  C_13
REMARK    7  A    between atoms: C_13  and  O_14
REMARK    8  A    between atoms: C_13  and  C_16
REMARK    9  A    between atoms: C_16  and  N_17
REMARK   10  A    between atoms: N_17  and  C_20
REMARK                            x       y       z     vdW  Elec       q    Type
REMARK                         _______ _______ _______ _____ _____    ______ ____
ROOT
ATOM      1  O   UNL     1      34.526 -15.664 -22.293  0.00  0.00    -0.470 OA
ENDROOT
BRANCH   1   2
ATOM      2  C   UNL     1      34.595 -16.823 -23.018  0.00  0.00    +0.172 C 
ATOM      3  C   UNL     1      34.461 -16.794 -24.403  0.00  0.00    +0.173 C 
ATOM      4  C   UNL     1      34.799 -18.028 -22.353  0.00  0.00    +0.040 C 
ATOM      5  C   UNL     1      34.533 -17.982 -25.130  0.00  0.00    +0.040 C 
ATOM      6  C   UNL     1      34.872 -19.216 -23.080  0.00  0.00    +0.003 C 
ATOM      7  C   UNL     1      34.738 -19.193 -24.468  0.00  0.00    +0.003 C 
BRANCH   3   8
ATOM      8  O   UNL     1      34.262 -15.617 -25.059  0.00  0.00    -0.468 OA
BRANCH   8   9
ATOM      9  C   UNL     1      33.247 -15.597 -26.060  0.00  0.00    +0.232 C 
BRANCH   9  10
ATOM     10  C   UNL     1      32.815 -14.186 -26.278  0.00  0.00    +0.021 C 
ATOM     11  C   UNL     1      33.322 -13.386 -27.222  0.00  0.00    -0.001 C 
ENDBRANCH   9  10
ENDBRANCH   8   9
ENDBRANCH   3   8
ENDBRANCH   1   2
BRANCH   1  12
ATOM     12  C   UNL     1      33.259 -15.333 -21.732  0.00  0.00    +0.232 C 
BRANCH  12  13
ATOM     13  C   UNL     1      32.768 -14.029 -22.355  0.00  0.00    +0.133 C 
BRANCH  13  14
ATOM     14  O   UNL     1      33.867 -13.399 -23.019  0.00  0.00    -0.383 OA
ATOM     15  H   UNL     1      33.722 -12.440 -23.044  0.00  0.00    +0.210 HD
ENDBRANCH  13  14
BRANCH  13  16
ATOM     16  C   UNL     1      32.198 -13.045 -21.331  0.00  0.00    -0.048 C 
BRANCH  16  17
ATOM     17  N   UNL     1      31.242 -12.124 -21.929  0.00  0.00    +0.387 N 
ATOM     18  H   UNL     1      30.340 -12.592 -22.022  0.00  0.00    -0.084 HD
ATOM     19  H   UNL     1      31.592 -11.840 -22.845  0.00  0.00    -0.084 HD
BRANCH  17  20
ATOM     20  C   UNL     1      31.079 -10.934 -21.106  0.00  0.00    -0.062 C 
ATOM     21  C   UNL     1      31.923  -9.788 -21.660  0.00  0.00    -0.023 C 
ATOM     22  C   UNL     1      31.471 -11.255 -19.666  0.00  0.00    -0.023 C 
ENDBRANCH  17  20
ENDBRANCH  16  17
ENDBRANCH  13  16
ENDBRANCH  12  13
ENDBRANCH   1  12
TORSDOF 10
ENDMDL
