MODEL 1
REMARK VINA RESULT:      -5.8      0.000      0.000
REMARK  Name = 448154
REMARK  6 active torsions:
REMARK  status: ('A' for Active; 'I' for Inactive)
REMARK    1  A    between atoms: C_1  and  O_2
REMARK    2  A    between atoms: C_1  and  C_5
REMARK    3  A    between atoms: C_1  and  C_8
REMARK    4  A    between atoms: C_5  and  O_6
REMARK    5  A    between atoms: C_8  and  O_10
REMARK    6  A    between atoms: C_8  and  C_12
REMARK                            x       y       z     vdW  Elec       q    Type
REMARK                         _______ _______ _______ _____ _____    ______ ____
ROOT
ATOM      1  C   UNL     1      38.892 -25.699 -14.233  0.00  0.00    +0.234 C 
ENDROOT
BRANCH   1   2
ATOM      2  O   UNL     1      38.497 -26.958 -14.767  0.00  0.00    -0.373 OA
ATOM      3  H   UNL     1      39.223 -27.331 -15.291  0.00  0.00    +0.211 HD
ENDBRANCH   1   2
BRANCH   1   5
ATOM      4  O   UNL     1      41.080 -24.636 -14.327  0.00  0.00    -0.248 OA
ATOM      5  C   UNL     1      40.241 -25.361 -14.846  0.00  0.00    +0.343 C 
BRANCH   5   6
ATOM      6  O   UNL     1      40.433 -25.974 -16.041  0.00  0.00    -0.478 OA
ATOM      7  H   UNL     1      40.819 -26.827 -16.074  0.00  0.00    +0.295 HD
ENDBRANCH   5   6
ENDBRANCH   1   5
BRANCH   1   8
ATOM      8  C   UNL     1      37.794 -24.646 -14.522  0.00  0.00    +0.123 C 
ATOM      9  C   UNL     1      36.561 -25.350 -15.110  0.00  0.00    +0.032 C 
BRANCH   8  10
ATOM     10  O   UNL     1      38.265 -23.755 -15.536  0.00  0.00    -0.384 OA
ATOM     11  H   UNL     1      38.075 -22.840 -15.276  0.00  0.00    +0.210 HD
ENDBRANCH   8  10
BRANCH   8  12
ATOM     12  C   UNL     1      37.415 -23.837 -13.257  0.00  0.00    +0.030 C 
ATOM     13  C   UNL     1      38.005 -24.375 -11.957  0.00  0.00    +0.003 C 
ENDBRANCH   8  12
ENDBRANCH   1   8
TORSDOF 6
ENDMDL
MODEL 2
REMARK VINA RESULT:      -5.7      1.518      2.359
REMARK  Name = 448154
REMARK  6 active torsions:
REMARK  status: ('A' for Active; 'I' for Inactive)
REMARK    1  A    between atoms: C_1  and  O_2
REMARK    2  A    between atoms: C_1  and  C_5
REMARK    3  A    between atoms: C_1  and  C_8
REMARK    4  A    between atoms: C_5  and  O_6
REMARK    5  A    between atoms: C_8  and  O_10
REMARK    6  A    between atoms: C_8  and  C_12
REMARK                            x       y       z     vdW  Elec       q    Type
REMARK                         _______ _______ _______ _____ _____    ______ ____
ROOT
ATOM      1  C   UNL     1      39.051 -25.124 -14.324  0.00  0.00    +0.234 C 
ENDROOT
BRANCH   1   2
ATOM      2  O   UNL     1      39.356 -24.520 -13.072  0.00  0.00    -0.373 OA
ATOM      3  H   UNL     1      38.609 -23.971 -12.787  0.00  0.00    +0.211 HD
ENDBRANCH   1   2
BRANCH   1   5
ATOM      4  O   UNL     1      41.033 -26.493 -13.972  0.00  0.00    -0.248 OA
ATOM      5  C   UNL     1      40.276 -25.919 -14.744  0.00  0.00    +0.343 C 
BRANCH   5   6
ATOM      6  O   UNL     1      40.438 -25.945 -16.092  0.00  0.00    -0.478 OA
ATOM      7  H   UNL     1      40.169 -25.212 -16.610  0.00  0.00    +0.295 HD
ENDBRANCH   5   6
ENDBRANCH   1   5
BRANCH   1   8
ATOM      8  C   UNL     1      37.768 -25.980 -14.187  0.00  0.00    +0.123 C 
ATOM      9  C   UNL     1      37.405 -26.112 -12.699  0.00  0.00    +0.032 C 
BRANCH   8  10
ATOM     10  O   UNL     1      38.046 -27.306 -14.647  0.00  0.00    -0.384 OA
ATOM     11  H   UNL     1      37.221 -27.729 -14.931  0.00  0.00    +0.210 HD
ENDBRANCH   8  10
BRANCH   8  12
ATOM     12  C   UNL     1      36.584 -25.391 -14.992  0.00  0.00    +0.030 C 
ATOM     13  C   UNL     1      36.723 -23.911 -15.336  0.00  0.00    +0.003 C 
ENDBRANCH   8  12
ENDBRANCH   1   8
TORSDOF 6
ENDMDL
MODEL 3
REMARK VINA RESULT:      -5.2      3.148      4.434
REMARK  Name = 448154
REMARK  6 active torsions:
REMARK  status: ('A' for Active; 'I' for Inactive)
REMARK    1  A    between atoms: C_1  and  O_2
REMARK    2  A    between atoms: C_1  and  C_5
REMARK    3  A    between atoms: C_1  and  C_8
REMARK    4  A    between atoms: C_5  and  O_6
REMARK    5  A    between atoms: C_8  and  O_10
REMARK    6  A    between atoms: C_8  and  C_12
REMARK                            x       y       z     vdW  Elec       q    Type
REMARK                         _______ _______ _______ _____ _____    ______ ____
ROOT
ATOM      1  C   UNL     1      35.869 -24.014 -12.300  0.00  0.00    +0.234 C 
ENDROOT
BRANCH   1   2
ATOM      2  O   UNL     1      34.871 -24.965 -11.945  0.00  0.00    -0.373 OA
ATOM      3  H   UNL     1      35.295 -25.761 -11.588  0.00  0.00    +0.211 HD
ENDBRANCH   1   2
BRANCH   1   5
ATOM      4  O   UNL     1      36.320 -24.033  -9.908  0.00  0.00    -0.248 OA
ATOM      5  C   UNL     1      36.491 -23.518 -11.006  0.00  0.00    +0.343 C 
BRANCH   5   6
ATOM      6  O   UNL     1      37.286 -22.435 -11.197  0.00  0.00    -0.478 OA
ATOM      7  H   UNL     1      38.059 -22.509 -11.720  0.00  0.00    +0.295 HD
ENDBRANCH   5   6
ENDBRANCH   1   5
BRANCH   1   8
ATOM      8  C   UNL     1      36.884 -24.667 -13.270  0.00  0.00    +0.123 C 
ATOM      9  C   UNL     1      37.535 -25.877 -12.582  0.00  0.00    +0.032 C 
BRANCH   8  10
ATOM     10  O   UNL     1      37.942 -23.738 -13.525  0.00  0.00    -0.384 OA
ATOM     11  H   UNL     1      38.136 -23.239 -12.717  0.00  0.00    +0.210 HD
ENDBRANCH   8  10
BRANCH   8  12
ATOM     12  C   UNL     1      36.227 -25.083 -14.610  0.00  0.00    +0.030 C 
ATOM     13  C   UNL     1      36.644 -26.459 -15.121  0.00  0.00    +0.003 C 
ENDBRANCH   8  12
ENDBRANCH   1   8
TORSDOF 6
ENDMDL
MODEL 4
REMARK VINA RESULT:      -5.2      1.691      2.574
REMARK  Name = 448154
REMARK  6 active torsions:
REMARK  status: ('A' for Active; 'I' for Inactive)
REMARK    1  A    between atoms: C_1  and  O_2
REMARK    2  A    between atoms: C_1  and  C_5
REMARK    3  A    between atoms: C_1  and  C_8
REMARK    4  A    between atoms: C_5  and  O_6
REMARK    5  A    between atoms: C_8  and  O_10
REMARK    6  A    between atoms: C_8  and  C_12
REMARK                            x       y       z     vdW  Elec       q    Type
REMARK                         _______ _______ _______ _____ _____    ______ ____
ROOT
ATOM      1  C   UNL     1      36.496 -25.368 -14.804  0.00  0.00    +0.234 C 
ENDROOT
BRANCH   1   2
ATOM      2  O   UNL     1      35.501 -25.183 -15.805  0.00  0.00    -0.373 OA
ATOM      3  H   UNL     1      34.625 -25.153 -15.389  0.00  0.00    +0.211 HD
ENDBRANCH   1   2
BRANCH   1   5
ATOM      4  O   UNL     1      38.225 -27.063 -14.548  0.00  0.00    -0.248 OA
ATOM      5  C   UNL     1      37.273 -26.620 -15.177  0.00  0.00    +0.343 C 
BRANCH   5   6
ATOM      6  O   UNL     1      36.781 -27.220 -16.291  0.00  0.00    -0.478 OA
ATOM      7  H   UNL     1      35.969 -26.931 -16.659  0.00  0.00    +0.295 HD
ENDBRANCH   5   6
ENDBRANCH   1   5
BRANCH   1   8
ATOM      8  C   UNL     1      37.373 -24.096 -14.705  0.00  0.00    +0.123 C 
ATOM      9  C   UNL     1      36.859 -23.048 -15.705  0.00  0.00    +0.032 C 
BRANCH   8  10
ATOM     10  O   UNL     1      38.705 -24.419 -15.118  0.00  0.00    -0.384 OA
ATOM     11  H   UNL     1      38.806 -25.382 -15.159  0.00  0.00    +0.210 HD
ENDBRANCH   8  10
BRANCH   8  12
ATOM     12  C   UNL     1      37.403 -23.517 -13.269  0.00  0.00    +0.030 C 
ATOM     13  C   UNL     1      38.216 -24.336 -12.271  0.00  0.00    +0.003 C 
ENDBRANCH   8  12
ENDBRANCH   1   8
TORSDOF 6
ENDMDL
MODEL 5
REMARK VINA RESULT:      -5.2      1.911      3.385
REMARK  Name = 448154
REMARK  6 active torsions:
REMARK  status: ('A' for Active; 'I' for Inactive)
REMARK    1  A    between atoms: C_1  and  O_2
REMARK    2  A    between atoms: C_1  and  C_5
REMARK    3  A    between atoms: C_1  and  C_8
REMARK    4  A    between atoms: C_5  and  O_6
REMARK    5  A    between atoms: C_8  and  O_10
REMARK    6  A    between atoms: C_8  and  C_12
REMARK                            x       y       z     vdW  Elec       q    Type
REMARK                         _______ _______ _______ _____ _____    ______ ____
ROOT
ATOM      1  C   UNL     1      37.078 -25.044 -14.121  0.00  0.00    +0.234 C 
ENDROOT
BRANCH   1   2
ATOM      2  O   UNL     1      38.289 -24.349 -14.396  0.00  0.00    -0.373 OA
ATOM      3  H   UNL     1      38.114 -23.629 -15.022  0.00  0.00    +0.211 HD
ENDBRANCH   1   2
BRANCH   1   5
ATOM      4  O   UNL     1      38.305 -27.052 -14.745  0.00  0.00    -0.248 OA
ATOM      5  C   UNL     1      37.240 -26.452 -14.670  0.00  0.00    +0.343 C 
BRANCH   5   6
ATOM      6  O   UNL     1      36.058 -26.995 -15.057  0.00  0.00    -0.478 OA
ATOM      7  H   UNL     1      35.698 -26.784 -15.895  0.00  0.00    +0.295 HD
ENDBRANCH   5   6
ENDBRANCH   1   5
BRANCH   1   8
ATOM      8  C   UNL     1      36.787 -24.997 -12.601  0.00  0.00    +0.123 C 
ATOM      9  C   UNL     1      37.945 -24.283 -11.887  0.00  0.00    +0.032 C 
BRANCH   8  10
ATOM     10  O   UNL     1      36.768 -26.333 -12.092  0.00  0.00    -0.384 OA
ATOM     11  H   UNL     1      36.181 -26.378 -11.322  0.00  0.00    +0.210 HD
ENDBRANCH   8  10
BRANCH   8  12
ATOM     12  C   UNL     1      35.437 -24.305 -12.286  0.00  0.00    +0.030 C 
ATOM     13  C   UNL     1      34.495 -24.178 -13.480  0.00  0.00    +0.003 C 
ENDBRANCH   8  12
ENDBRANCH   1   8
TORSDOF 6
ENDMDL
MODEL 6
REMARK VINA RESULT:      -5.1      3.226      4.447
REMARK  Name = 448154
REMARK  6 active torsions:
REMARK  status: ('A' for Active; 'I' for Inactive)
REMARK    1  A    between atoms: C_1  and  O_2
REMARK    2  A    between atoms: C_1  and  C_5
REMARK    3  A    between atoms: C_1  and  C_8
REMARK    4  A    between atoms: C_5  and  O_6
REMARK    5  A    between atoms: C_8  and  O_10
REMARK    6  A    between atoms: C_8  and  C_12
REMARK                            x       y       z     vdW  Elec       q    Type
REMARK                         _______ _______ _______ _____ _____    ______ ____
ROOT
ATOM      1  C   UNL     1      35.811 -24.053 -12.273  0.00  0.00    +0.234 C 
ENDROOT
BRANCH   1   2
ATOM      2  O   UNL     1      34.855 -25.003 -11.817  0.00  0.00    -0.373 OA
ATOM      3  H   UNL     1      34.573 -24.773 -10.918  0.00  0.00    +0.211 HD
ENDBRANCH   1   2
BRANCH   1   5
ATOM      4  O   UNL     1      37.419 -22.681 -11.065  0.00  0.00    -0.248 OA
ATOM      5  C   UNL     1      36.557 -23.551 -11.049  0.00  0.00    +0.343 C 
BRANCH   5   6
ATOM      6  O   UNL     1      36.148 -24.163  -9.908  0.00  0.00    -0.478 OA
ATOM      7  H   UNL     1      36.676 -24.833  -9.521  0.00  0.00    +0.295 HD
ENDBRANCH   5   6
ENDBRANCH   1   5
BRANCH   1   8
ATOM      8  C   UNL     1      36.727 -24.709 -13.336  0.00  0.00    +0.123 C 
ATOM      9  C   UNL     1      37.398 -25.951 -12.728  0.00  0.00    +0.032 C 
BRANCH   8  10
ATOM     10  O   UNL     1      37.785 -23.803 -13.657  0.00  0.00    -0.384 OA
ATOM     11  H   UNL     1      37.836 -23.111 -12.980  0.00  0.00    +0.210 HD
ENDBRANCH   8  10
BRANCH   8  12
ATOM     12  C   UNL     1      35.953 -25.078 -14.626  0.00  0.00    +0.030 C 
ATOM     13  C   UNL     1      35.286 -23.898 -15.326  0.00  0.00    +0.003 C 
ENDBRANCH   8  12
ENDBRANCH   1   8
TORSDOF 6
ENDMDL
MODEL 7
REMARK VINA RESULT:      -5.1      3.043      4.358
REMARK  Name = 448154
REMARK  6 active torsions:
REMARK  status: ('A' for Active; 'I' for Inactive)
REMARK    1  A    between atoms: C_1  and  O_2
REMARK    2  A    between atoms: C_1  and  C_5
REMARK    3  A    between atoms: C_1  and  C_8
REMARK    4  A    between atoms: C_5  and  O_6
REMARK    5  A    between atoms: C_8  and  O_10
REMARK    6  A    between atoms: C_8  and  C_12
REMARK                            x       y       z     vdW  Elec       q    Type
REMARK                         _______ _______ _______ _____ _____    ______ ____
ROOT
ATOM      1  C   UNL     1      36.433 -25.179 -12.364  0.00  0.00    +0.234 C 
ENDROOT
BRANCH   1   2
ATOM      2  O   UNL     1      37.046 -26.266 -11.679  0.00  0.00    -0.373 OA
ATOM      3  H   UNL     1      36.843 -27.095 -12.140  0.00  0.00    +0.211 HD
ENDBRANCH   1   2
BRANCH   1   5
ATOM      4  O   UNL     1      36.172 -24.213 -10.144  0.00  0.00    -0.248 OA
ATOM      5  C   UNL     1      35.799 -24.289 -11.308  0.00  0.00    +0.343 C 
BRANCH   5   6
ATOM      6  O   UNL     1      34.768 -23.557 -11.802  0.00  0.00    -0.478 OA
ATOM      7  H   UNL     1      34.330 -23.832 -12.582  0.00  0.00    +0.295 HD
ENDBRANCH   5   6
ENDBRANCH   1   5
BRANCH   1   8
ATOM      8  C   UNL     1      37.489 -24.457 -13.237  0.00  0.00    +0.123 C 
ATOM      9  C   UNL     1      38.804 -25.252 -13.201  0.00  0.00    +0.032 C 
BRANCH   8  10
ATOM     10  O   UNL     1      37.779 -23.183 -12.652  0.00  0.00    -0.384 OA
ATOM     11  H   UNL     1      38.684 -23.185 -12.305  0.00  0.00    +0.210 HD
ENDBRANCH   8  10
BRANCH   8  12
ATOM     12  C   UNL     1      37.006 -24.259 -14.694  0.00  0.00    +0.030 C 
ATOM     13  C   UNL     1      35.784 -25.089 -15.077  0.00  0.00    +0.003 C 
ENDBRANCH   8  12
ENDBRANCH   1   8
TORSDOF 6
ENDMDL
MODEL 8
REMARK VINA RESULT:      -5.1      2.968      4.571
REMARK  Name = 448154
REMARK  6 active torsions:
REMARK  status: ('A' for Active; 'I' for Inactive)
REMARK    1  A    between atoms: C_1  and  O_2
REMARK    2  A    between atoms: C_1  and  C_5
REMARK    3  A    between atoms: C_1  and  C_8
REMARK    4  A    between atoms: C_5  and  O_6
REMARK    5  A    between atoms: C_8  and  O_10
REMARK    6  A    between atoms: C_8  and  C_12
REMARK                            x       y       z     vdW  Elec       q    Type
REMARK                         _______ _______ _______ _____ _____    ______ ____
ROOT
ATOM      1  C   UNL     1      36.848 -24.202 -12.244  0.00  0.00    +0.234 C 
ENDROOT
BRANCH   1   2
ATOM      2  O   UNL     1      36.684 -23.169 -13.209  0.00  0.00    -0.373 OA
ATOM      3  H   UNL     1      37.243 -23.354 -13.980  0.00  0.00    +0.211 HD
ENDBRANCH   1   2
BRANCH   1   5
ATOM      4  O   UNL     1      35.347 -25.022 -10.511  0.00  0.00    -0.248 OA
ATOM      5  C   UNL     1      35.522 -24.342 -11.514  0.00  0.00    +0.343 C 
BRANCH   5   6
ATOM      6  O   UNL     1      34.537 -23.606 -12.088  0.00  0.00    -0.478 OA
ATOM      7  H   UNL     1      34.754 -22.921 -12.690  0.00  0.00    +0.295 HD
ENDBRANCH   5   6
ENDBRANCH   1   5
BRANCH   1   8
ATOM      8  C   UNL     1      37.313 -25.500 -12.948  0.00  0.00    +0.123 C 
ATOM      9  C   UNL     1      36.589 -25.630 -14.298  0.00  0.00    +0.032 C 
BRANCH   8  10
ATOM     10  O   UNL     1      36.900 -26.624 -12.166  0.00  0.00    -0.384 OA
ATOM     11  H   UNL     1      37.651 -26.952 -11.649  0.00  0.00    +0.210 HD
ENDBRANCH   8  10
BRANCH   8  12
ATOM     12  C   UNL     1      38.849 -25.541 -13.141  0.00  0.00    +0.030 C 
ATOM     13  C   UNL     1      39.308 -25.495 -14.596  0.00  0.00    +0.003 C 
ENDBRANCH   8  12
ENDBRANCH   1   8
TORSDOF 6
ENDMDL
MODEL 9
REMARK VINA RESULT:      -5.1      3.316      4.603
REMARK  Name = 448154
REMARK  6 active torsions:
REMARK  status: ('A' for Active; 'I' for Inactive)
REMARK    1  A    between atoms: C_1  and  O_2
REMARK    2  A    between atoms: C_1  and  C_5
REMARK    3  A    between atoms: C_1  and  C_8
REMARK    4  A    between atoms: C_5  and  O_6
REMARK    5  A    between atoms: C_8  and  O_10
REMARK    6  A    between atoms: C_8  and  C_12
REMARK                            x       y       z     vdW  Elec       q    Type
REMARK                         _______ _______ _______ _____ _____    ______ ____
ROOT
ATOM      1  C   UNL     1      35.586 -23.722 -12.512  0.00  0.00    +0.234 C 
ENDROOT
BRANCH   1   2
ATOM      2  O   UNL     1      34.173 -23.564 -12.454  0.00  0.00    -0.373 OA
ATOM      3  H   UNL     1      33.894 -22.902 -13.106  0.00  0.00    +0.211 HD
ENDBRANCH   1   2
BRANCH   1   5
ATOM      4  O   UNL     1      35.264 -25.077 -10.515  0.00  0.00    -0.248 OA
ATOM      5  C   UNL     1      36.009 -24.416 -11.228  0.00  0.00    +0.343 C 
BRANCH   5   6
ATOM      6  O   UNL     1      37.328 -24.242 -10.957  0.00  0.00    -0.478 OA
ATOM      7  H   UNL     1      37.627 -23.435 -10.588  0.00  0.00    +0.295 HD
ENDBRANCH   5   6
ENDBRANCH   1   5
BRANCH   1   8
ATOM      8  C   UNL     1      35.968 -24.499 -13.796  0.00  0.00    +0.123 C 
ATOM      9  C   UNL     1      34.740 -24.587 -14.717  0.00  0.00    +0.032 C 
BRANCH   8  10
ATOM     10  O   UNL     1      36.296 -25.845 -13.442  0.00  0.00    -0.384 OA
ATOM     11  H   UNL     1      37.140 -25.857 -12.964  0.00  0.00    +0.210 HD
ENDBRANCH   8  10
BRANCH   8  12
ATOM     12  C   UNL     1      37.165 -23.852 -14.536  0.00  0.00    +0.030 C 
ATOM     13  C   UNL     1      36.776 -22.879 -15.645  0.00  0.00    +0.003 C 
ENDBRANCH   8  12
ENDBRANCH   1   8
TORSDOF 6
ENDMDL
