MODEL 1
REMARK VINA RESULT:      -6.5      0.000      0.000
REMARK  Name = 72139
REMARK  1 active torsions:
REMARK  status: ('A' for Active; 'I' for Inactive)
REMARK    1  A    between atoms: C_8  and  O_11
REMARK                            x       y       z     vdW  Elec       q    Type
REMARK                         _______ _______ _______ _____ _____    ______ ____
ROOT
ATOM      1  S   UNL     1      33.394 -14.399 -24.215  0.00  0.00    -0.003 S 
ATOM      2  O   UNL     1      34.397 -16.784 -24.930  0.00  0.00    -0.416 OA
ATOM      3  O   UNL     1      33.519 -15.482 -26.608  0.00  0.00    -0.237 OA
ATOM      4  C   UNL     1      34.543 -16.626 -23.552  0.00  0.00    +0.158 A 
ATOM      5  C   UNL     1      34.080 -15.445 -22.985  0.00  0.00    +0.070 A 
ATOM      6  C   UNL     1      35.130 -17.616 -22.778  0.00  0.00    +0.075 C 
ATOM      7  C   UNL     1      34.191 -15.220 -21.623  0.00  0.00    +0.013 C 
ATOM      8  C   UNL     1      35.248 -17.400 -21.404  0.00  0.00    +0.137 C 
ATOM      9  C   UNL     1      34.781 -16.208 -20.830  0.00  0.00    +0.037 C 
ATOM     10  C   UNL     1      33.780 -15.634 -25.423  0.00  0.00    +0.379 A 
ENDROOT
BRANCH   8  11
ATOM     11  O   UNL     1      35.819 -18.350 -20.615  0.00  0.00    -0.505 OA
ATOM     12  H   UNL     1      36.750 -18.371 -20.505  0.00  0.00    +0.292 HD
ENDBRANCH   8  11
TORSDOF 1
ENDMDL
MODEL 2
REMARK VINA RESULT:      -6.5      3.920      5.037
REMARK  Name = 72139
REMARK  1 active torsions:
REMARK  status: ('A' for Active; 'I' for Inactive)
REMARK    1  A    between atoms: C_8  and  O_11
REMARK                            x       y       z     vdW  Elec       q    Type
REMARK                         _______ _______ _______ _____ _____    ______ ____
ROOT
ATOM      1  S   UNL     1      36.441 -18.710 -21.487  0.00  0.00    -0.003 S 
ATOM      2  O   UNL     1      33.760 -18.584 -21.536  0.00  0.00    -0.416 OA
ATOM      3  O   UNL     1      34.897 -16.954 -22.692  0.00  0.00    -0.237 OA
ATOM      4  C   UNL     1      34.148 -19.684 -20.772  0.00  0.00    +0.158 A 
ATOM      5  C   UNL     1      35.510 -19.921 -20.626  0.00  0.00    +0.070 A 
ATOM      6  C   UNL     1      33.204 -20.510 -20.179  0.00  0.00    +0.075 C 
ATOM      7  C   UNL     1      35.967 -20.996 -19.881  0.00  0.00    +0.013 C 
ATOM      8  C   UNL     1      33.654 -21.596 -19.427  0.00  0.00    +0.137 C 
ATOM      9  C   UNL     1      35.029 -21.837 -19.278  0.00  0.00    +0.037 C 
ATOM     10  C   UNL     1      34.920 -17.957 -21.991  0.00  0.00    +0.379 A 
ENDROOT
BRANCH   8  11
ATOM     11  O   UNL     1      32.755 -22.427 -18.831  0.00  0.00    -0.505 OA
ATOM     12  H   UNL     1      32.780 -22.557 -17.903  0.00  0.00    +0.292 HD
ENDBRANCH   8  11
TORSDOF 1
ENDMDL
MODEL 3
REMARK VINA RESULT:      -6.5      2.145      4.522
REMARK  Name = 72139
REMARK  1 active torsions:
REMARK  status: ('A' for Active; 'I' for Inactive)
REMARK    1  A    between atoms: C_8  and  O_11
REMARK                            x       y       z     vdW  Elec       q    Type
REMARK                         _______ _______ _______ _____ _____    ______ ____
ROOT
ATOM      1  S   UNL     1      35.304 -17.725 -21.448  0.00  0.00    -0.003 S 
ATOM      2  O   UNL     1      34.299 -15.274 -21.881  0.00  0.00    -0.416 OA
ATOM      3  O   UNL     1      34.913 -15.778 -19.724  0.00  0.00    -0.237 OA
ATOM      4  C   UNL     1      34.323 -15.973 -23.088  0.00  0.00    +0.158 A 
ATOM      5  C   UNL     1      34.814 -17.273 -23.071  0.00  0.00    +0.070 A 
ATOM      6  C   UNL     1      33.872 -15.387 -24.261  0.00  0.00    +0.075 C 
ATOM      7  C   UNL     1      34.868 -18.027 -24.232  0.00  0.00    +0.013 C 
ATOM      8  C   UNL     1      33.922 -16.138 -25.437  0.00  0.00    +0.137 C 
ATOM      9  C   UNL     1      34.417 -17.451 -25.422  0.00  0.00    +0.037 C 
ATOM     10  C   UNL     1      34.810 -16.118 -20.895  0.00  0.00    +0.379 A 
ENDROOT
BRANCH   8  11
ATOM     11  O   UNL     1      33.487 -15.594 -26.607  0.00  0.00    -0.505 OA
ATOM     12  H   UNL     1      33.614 -16.054 -27.414  0.00  0.00    +0.292 HD
ENDBRANCH   8  11
TORSDOF 1
ENDMDL
MODEL 4
REMARK VINA RESULT:      -6.4      4.314      6.259
REMARK  Name = 72139
REMARK  1 active torsions:
REMARK  status: ('A' for Active; 'I' for Inactive)
REMARK    1  A    between atoms: C_8  and  O_11
REMARK                            x       y       z     vdW  Elec       q    Type
REMARK                         _______ _______ _______ _____ _____    ______ ____
ROOT
ATOM      1  S   UNL     1      35.232 -21.937 -19.102  0.00  0.00    -0.003 S 
ATOM      2  O   UNL     1      32.939 -20.814 -19.930  0.00  0.00    -0.416 OA
ATOM      3  O   UNL     1      32.759 -22.667 -18.582  0.00  0.00    -0.237 OA
ATOM      4  C   UNL     1      34.011 -20.092 -20.453  0.00  0.00    +0.158 A 
ATOM      5  C   UNL     1      35.295 -20.521 -20.135  0.00  0.00    +0.070 A 
ATOM      6  C   UNL     1      33.800 -18.984 -21.261  0.00  0.00    +0.075 C 
ATOM      7  C   UNL     1      36.406 -19.851 -20.618  0.00  0.00    +0.013 C 
ATOM      8  C   UNL     1      34.914 -18.303 -21.753  0.00  0.00    +0.137 C 
ATOM      9  C   UNL     1      36.210 -18.734 -21.433  0.00  0.00    +0.037 C 
ATOM     10  C   UNL     1      33.465 -21.857 -19.168  0.00  0.00    +0.379 A 
ENDROOT
BRANCH   8  11
ATOM     11  O   UNL     1      34.743 -17.211 -22.549  0.00  0.00    -0.505 OA
ATOM     12  H   UNL     1      35.172 -16.405 -22.337  0.00  0.00    +0.292 HD
ENDBRANCH   8  11
TORSDOF 1
ENDMDL
MODEL 5
REMARK VINA RESULT:      -6.4      1.506      2.093
REMARK  Name = 72139
REMARK  1 active torsions:
REMARK  status: ('A' for Active; 'I' for Inactive)
REMARK    1  A    between atoms: C_8  and  O_11
REMARK                            x       y       z     vdW  Elec       q    Type
REMARK                         _______ _______ _______ _____ _____    ______ ____
ROOT
ATOM      1  S   UNL     1      34.438 -17.434 -25.377  0.00  0.00    -0.003 S 
ATOM      2  O   UNL     1      33.718 -15.042 -24.392  0.00  0.00    -0.416 OA
ATOM      3  O   UNL     1      33.391 -15.379 -26.642  0.00  0.00    -0.237 OA
ATOM      4  C   UNL     1      34.229 -15.823 -23.356  0.00  0.00    +0.158 A 
ATOM      5  C   UNL     1      34.659 -17.108 -23.667  0.00  0.00    +0.070 A 
ATOM      6  C   UNL     1      34.302 -15.332 -22.061  0.00  0.00    +0.075 C 
ATOM      7  C   UNL     1      35.178 -17.939 -22.689  0.00  0.00    +0.013 C 
ATOM      8  C   UNL     1      34.823 -16.162 -21.067  0.00  0.00    +0.137 C 
ATOM      9  C   UNL     1      35.259 -17.458 -21.380  0.00  0.00    +0.037 C 
ATOM     10  C   UNL     1      33.773 -15.803 -25.560  0.00  0.00    +0.379 A 
ENDROOT
BRANCH   8  11
ATOM     11  O   UNL     1      34.910 -15.711 -19.785  0.00  0.00    -0.505 OA
ATOM     12  H   UNL     1      34.619 -14.846 -19.571  0.00  0.00    +0.292 HD
ENDBRANCH   8  11
TORSDOF 1
ENDMDL
MODEL 6
REMARK VINA RESULT:      -6.4      1.530      4.157
REMARK  Name = 72139
REMARK  1 active torsions:
REMARK  status: ('A' for Active; 'I' for Inactive)
REMARK    1  A    between atoms: C_8  and  O_11
REMARK                            x       y       z     vdW  Elec       q    Type
REMARK                         _______ _______ _______ _____ _____    ______ ____
ROOT
ATOM      1  S   UNL     1      34.617 -15.985 -20.941  0.00  0.00    -0.003 S 
ATOM      2  O   UNL     1      35.236 -17.780 -22.838  0.00  0.00    -0.416 OA
ATOM      3  O   UNL     1      35.836 -18.301 -20.681  0.00  0.00    -0.237 OA
ATOM      4  C   UNL     1      34.592 -16.696 -23.433  0.00  0.00    +0.158 A 
ATOM      5  C   UNL     1      34.189 -15.652 -22.609  0.00  0.00    +0.070 A 
ATOM      6  C   UNL     1      34.364 -16.664 -24.801  0.00  0.00    +0.075 C 
ATOM      7  C   UNL     1      33.544 -14.543 -23.132  0.00  0.00    +0.013 C 
ATOM      8  C   UNL     1      33.715 -15.552 -25.338  0.00  0.00    +0.137 C 
ATOM      9  C   UNL     1      33.308 -14.497 -24.508  0.00  0.00    +0.037 C 
ATOM     10  C   UNL     1      35.317 -17.522 -21.469  0.00  0.00    +0.379 A 
ENDROOT
BRANCH   8  11
ATOM     11  O   UNL     1      33.475 -15.488 -26.677  0.00  0.00    -0.505 OA
ATOM     12  H   UNL     1      33.545 -16.261 -27.203  0.00  0.00    +0.292 HD
ENDBRANCH   8  11
TORSDOF 1
ENDMDL
MODEL 7
REMARK VINA RESULT:      -6.3     12.633     13.925
REMARK  Name = 72139
REMARK  1 active torsions:
REMARK  status: ('A' for Active; 'I' for Inactive)
REMARK    1  A    between atoms: C_8  and  O_11
REMARK                            x       y       z     vdW  Elec       q    Type
REMARK                         _______ _______ _______ _____ _____    ______ ____
ROOT
ATOM      1  S   UNL     1      35.627 -23.901 -13.051  0.00  0.00    -0.003 S 
ATOM      2  O   UNL     1      37.308 -25.525 -11.731  0.00  0.00    -0.416 OA
ATOM      3  O   UNL     1      35.320 -25.023 -10.692  0.00  0.00    -0.237 OA
ATOM      4  C   UNL     1      37.886 -25.170 -12.949  0.00  0.00    +0.158 A 
ATOM      5  C   UNL     1      37.163 -24.325 -13.784  0.00  0.00    +0.070 A 
ATOM      6  C   UNL     1      39.138 -25.644 -13.311  0.00  0.00    +0.075 C 
ATOM      7  C   UNL     1      37.675 -23.930 -15.009  0.00  0.00    +0.013 C 
ATOM      8  C   UNL     1      39.663 -25.252 -14.544  0.00  0.00    +0.137 C 
ATOM      9  C   UNL     1      38.935 -24.400 -15.388  0.00  0.00    +0.037 C 
ATOM     10  C   UNL     1      36.064 -24.898 -11.655  0.00  0.00    +0.379 A 
ENDROOT
BRANCH   8  11
ATOM     11  O   UNL     1      40.889 -25.699 -14.931  0.00  0.00    -0.505 OA
ATOM     12  H   UNL     1      41.576 -25.789 -14.299  0.00  0.00    +0.292 HD
ENDBRANCH   8  11
TORSDOF 1
ENDMDL
MODEL 8
REMARK VINA RESULT:      -6.3      1.546      2.085
REMARK  Name = 72139
REMARK  1 active torsions:
REMARK  status: ('A' for Active; 'I' for Inactive)
REMARK    1  A    between atoms: C_8  and  O_11
REMARK                            x       y       z     vdW  Elec       q    Type
REMARK                         _______ _______ _______ _____ _____    ______ ____
ROOT
ATOM      1  S   UNL     1      33.363 -13.612 -24.619  0.00  0.00    -0.003 S 
ATOM      2  O   UNL     1      33.536 -15.547 -26.473  0.00  0.00    -0.416 OA
ATOM      3  O   UNL     1      32.706 -13.518 -27.164  0.00  0.00    -0.237 OA
ATOM      4  C   UNL     1      33.998 -16.044 -25.255  0.00  0.00    +0.158 A 
ATOM      5  C   UNL     1      33.988 -15.186 -24.161  0.00  0.00    +0.070 A 
ATOM      6  C   UNL     1      34.450 -17.351 -25.142  0.00  0.00    +0.075 C 
ATOM      7  C   UNL     1      34.432 -15.613 -22.920  0.00  0.00    +0.013 C 
ATOM      8  C   UNL     1      34.900 -17.791 -23.896  0.00  0.00    +0.137 C 
ATOM      9  C   UNL     1      34.891 -16.926 -22.791  0.00  0.00    +0.037 C 
ATOM     10  C   UNL     1      33.155 -14.221 -26.269  0.00  0.00    +0.379 A 
ENDROOT
BRANCH   8  11
ATOM     11  O   UNL     1      35.351 -19.067 -23.751  0.00  0.00    -0.505 OA
ATOM     12  H   UNL     1      36.211 -19.225 -23.412  0.00  0.00    +0.292 HD
ENDBRANCH   8  11
TORSDOF 1
ENDMDL
MODEL 9
REMARK VINA RESULT:      -6.3      2.525      3.480
REMARK  Name = 72139
REMARK  1 active torsions:
REMARK  status: ('A' for Active; 'I' for Inactive)
REMARK    1  A    between atoms: C_8  and  O_11
REMARK                            x       y       z     vdW  Elec       q    Type
REMARK                         _______ _______ _______ _____ _____    ______ ____
ROOT
ATOM      1  S   UNL     1      34.919 -16.918 -23.175  0.00  0.00    -0.003 S 
ATOM      2  O   UNL     1      33.629 -15.286 -24.872  0.00  0.00    -0.416 OA
ATOM      3  O   UNL     1      34.901 -16.958 -25.805  0.00  0.00    -0.237 OA
ATOM      4  C   UNL     1      33.351 -14.891 -23.564  0.00  0.00    +0.158 A 
ATOM      5  C   UNL     1      33.932 -15.619 -22.532  0.00  0.00    +0.070 A 
ATOM      6  C   UNL     1      32.522 -13.808 -23.306  0.00  0.00    +0.075 C 
ATOM      7  C   UNL     1      33.699 -15.283 -21.209  0.00  0.00    +0.013 C 
ATOM      8  C   UNL     1      32.281 -13.462 -21.976  0.00  0.00    +0.137 C 
ATOM      9  C   UNL     1      32.867 -14.195 -20.933  0.00  0.00    +0.037 C 
ATOM     10  C   UNL     1      34.480 -16.389 -24.807  0.00  0.00    +0.379 A 
ENDROOT
BRANCH   8  11
ATOM     11  O   UNL     1      31.473 -12.405 -21.687  0.00  0.00    -0.505 OA
ATOM     12  H   UNL     1      31.713 -11.803 -21.009  0.00  0.00    +0.292 HD
ENDBRANCH   8  11
TORSDOF 1
ENDMDL
