MODEL 1
REMARK VINA RESULT:      -8.9      0.000      0.000
REMARK  Name = 165323
REMARK  3 active torsions:
REMARK  status: ('A' for Active; 'I' for Inactive)
REMARK    1  A    between atoms: C_4  and  C_7
REMARK    2  A    between atoms: C_5  and  S_13
REMARK    3  A    between atoms: S_13  and  N_16
REMARK                            x       y       z     vdW  Elec       q    Type
REMARK                         _______ _______ _______ _____ _____    ______ ____
ROOT
ATOM      1  S   UNL     1      33.588 -20.016 -20.625  0.00  0.00    -0.026 S 
ATOM      2  N   UNL     1      36.104 -19.546 -20.520  0.00  0.00    -0.139 NA
ATOM      3  N   UNL     1      35.912 -20.713 -19.801  0.00  0.00    -0.120 NA
ATOM      4  C   UNL     1      34.974 -19.083 -21.001  0.00  0.00    +0.136 A 
ATOM      5  C   UNL     1      34.644 -21.068 -19.778  0.00  0.00    +0.254 A 
ENDROOT
BRANCH   4   7
ATOM      6 CL   UNL     1      34.944 -19.411 -24.067  0.00  0.00    -0.082 Cl
ATOM      7  C   UNL     1      34.828 -17.884 -21.797  0.00  0.00    +0.036 C 
ATOM      8  C   UNL     1      34.803 -17.926 -23.191  0.00  0.00    +0.060 C 
ATOM      9  C   UNL     1      34.711 -16.663 -21.134  0.00  0.00    +0.003 C 
ATOM     10  C   UNL     1      34.660 -16.746 -23.922  0.00  0.00    +0.011 C 
ATOM     11  C   UNL     1      34.569 -15.483 -21.864  0.00  0.00    +0.000 C 
ATOM     12  C   UNL     1      34.543 -15.524 -23.258  0.00  0.00    +0.001 C 
ENDBRANCH   4   7
BRANCH   5  13
ATOM     13  S   UNL     1      33.980 -22.463 -18.988  0.00  0.00    +0.081 S 
ATOM     14  O   UNL     1      32.620 -22.108 -18.578  0.00  0.00    -0.151 OA
ATOM     15  O   UNL     1      34.194 -23.583 -19.904  0.00  0.00    -0.151 OA
BRANCH  13  16
ATOM     16  N   UNL     1      34.876 -22.785 -17.549  0.00  0.00    -0.202 NA
ATOM     17  H   UNL     1      35.549 -23.531 -17.728  0.00  0.00    +0.144 HD
ATOM     18  H   UNL     1      34.237 -23.076 -16.808  0.00  0.00    +0.144 HD
ENDBRANCH  13  16
ENDBRANCH   5  13
TORSDOF 3
ENDMDL
MODEL 2
REMARK VINA RESULT:      -8.6      1.595      2.131
REMARK  Name = 165323
REMARK  3 active torsions:
REMARK  status: ('A' for Active; 'I' for Inactive)
REMARK    1  A    between atoms: C_4  and  C_7
REMARK    2  A    between atoms: C_5  and  S_13
REMARK    3  A    between atoms: S_13  and  N_16
REMARK                            x       y       z     vdW  Elec       q    Type
REMARK                         _______ _______ _______ _____ _____    ______ ____
ROOT
ATOM      1  S   UNL     1      33.686 -20.285 -20.944  0.00  0.00    -0.026 S 
ATOM      2  N   UNL     1      36.131 -19.584 -20.640  0.00  0.00    -0.139 NA
ATOM      3  N   UNL     1      35.923 -20.611 -19.737  0.00  0.00    -0.120 NA
ATOM      4  C   UNL     1      35.046 -19.318 -21.329  0.00  0.00    +0.136 A 
ATOM      5  C   UNL     1      34.689 -21.067 -19.793  0.00  0.00    +0.254 A 
ENDROOT
BRANCH   4   7
ATOM      6 CL   UNL     1      34.828 -16.385 -20.401  0.00  0.00    -0.082 Cl
ATOM      7  C   UNL     1      34.928 -18.302 -22.353  0.00  0.00    +0.036 C 
ATOM      8  C   UNL     1      34.823 -16.948 -22.036  0.00  0.00    +0.060 C 
ATOM      9  C   UNL     1      34.920 -18.710 -23.686  0.00  0.00    +0.003 C 
ATOM     10  C   UNL     1      34.713 -16.001 -23.055  0.00  0.00    +0.011 C 
ATOM     11  C   UNL     1      34.808 -17.764 -24.705  0.00  0.00    +0.000 C 
ATOM     12  C   UNL     1      34.705 -16.409 -24.389  0.00  0.00    +0.001 C 
ENDBRANCH   4   7
BRANCH   5  13
ATOM     13  S   UNL     1      34.019 -22.346 -18.831  0.00  0.00    +0.081 S 
ATOM     14  O   UNL     1      34.906 -22.516 -17.678  0.00  0.00    -0.151 OA
ATOM     15  O   UNL     1      32.614 -21.997 -18.621  0.00  0.00    -0.151 OA
BRANCH  13  16
ATOM     16  N   UNL     1      34.064 -23.819 -19.728  0.00  0.00    -0.202 NA
ATOM     17  H   UNL     1      33.915 -24.606 -19.097  0.00  0.00    +0.144 HD
ATOM     18  H   UNL     1      34.975 -23.914 -20.180  0.00  0.00    +0.144 HD
ENDBRANCH  13  16
ENDBRANCH   5  13
TORSDOF 3
ENDMDL
MODEL 3
REMARK VINA RESULT:      -8.3      7.589      8.573
REMARK  Name = 165323
REMARK  3 active torsions:
REMARK  status: ('A' for Active; 'I' for Inactive)
REMARK    1  A    between atoms: C_4  and  C_7
REMARK    2  A    between atoms: C_5  and  S_13
REMARK    3  A    between atoms: S_13  and  N_16
REMARK                            x       y       z     vdW  Elec       q    Type
REMARK                         _______ _______ _______ _____ _____    ______ ____
ROOT
ATOM      1  S   UNL     1      36.320 -25.280 -15.108  0.00  0.00    -0.026 S 
ATOM      2  N   UNL     1      36.689 -22.788 -15.571  0.00  0.00    -0.139 NA
ATOM      3  N   UNL     1      37.939 -23.302 -15.278  0.00  0.00    -0.120 NA
ATOM      4  C   UNL     1      35.761 -23.715 -15.516  0.00  0.00    +0.136 A 
ATOM      5  C   UNL     1      37.888 -24.592 -15.018  0.00  0.00    +0.254 A 
ENDROOT
BRANCH   4   7
ATOM      6 CL   UNL     1      33.831 -24.008 -13.128  0.00  0.00    -0.082 Cl
ATOM      7  C   UNL     1      34.351 -23.509 -15.769  0.00  0.00    +0.036 C 
ATOM      8  C   UNL     1      33.398 -23.619 -14.756  0.00  0.00    +0.060 C 
ATOM      9  C   UNL     1      33.955 -23.193 -17.068  0.00  0.00    +0.003 C 
ATOM     10  C   UNL     1      32.049 -23.411 -15.044  0.00  0.00    +0.011 C 
ATOM     11  C   UNL     1      32.606 -22.986 -17.356  0.00  0.00    +0.000 C 
ATOM     12  C   UNL     1      31.653 -23.095 -16.344  0.00  0.00    +0.001 C 
ENDBRANCH   4   7
BRANCH   5  13
ATOM     13  S   UNL     1      39.229 -25.613 -14.606  0.00  0.00    +0.081 S 
ATOM     14  O   UNL     1      39.967 -24.932 -13.541  0.00  0.00    -0.151 OA
ATOM     15  O   UNL     1      38.663 -26.940 -14.364  0.00  0.00    -0.151 OA
BRANCH  13  16
ATOM     16  N   UNL     1      40.291 -25.736 -15.961  0.00  0.00    -0.202 NA
ATOM     17  H   UNL     1      39.759 -25.612 -16.822  0.00  0.00    +0.144 HD
ATOM     18  H   UNL     1      40.732 -26.657 -15.964  0.00  0.00    +0.144 HD
ENDBRANCH  13  16
ENDBRANCH   5  13
TORSDOF 3
ENDMDL
MODEL 4
REMARK VINA RESULT:      -8.0      4.575      6.241
REMARK  Name = 165323
REMARK  3 active torsions:
REMARK  status: ('A' for Active; 'I' for Inactive)
REMARK    1  A    between atoms: C_4  and  C_7
REMARK    2  A    between atoms: C_5  and  S_13
REMARK    3  A    between atoms: S_13  and  N_16
REMARK                            x       y       z     vdW  Elec       q    Type
REMARK                         _______ _______ _______ _____ _____    ______ ____
ROOT
ATOM      1  S   UNL     1      34.330 -17.042 -21.286  0.00  0.00    -0.026 S 
ATOM      2  N   UNL     1      35.026 -18.611 -23.188  0.00  0.00    -0.139 NA
ATOM      3  N   UNL     1      34.660 -17.424 -23.798  0.00  0.00    -0.120 NA
ATOM      4  C   UNL     1      34.900 -18.542 -21.883  0.00  0.00    +0.136 A 
ATOM      5  C   UNL     1      34.277 -16.521 -22.919  0.00  0.00    +0.254 A 
ENDROOT
BRANCH   4   7
ATOM      6 CL   UNL     1      32.531 -20.197 -20.807  0.00  0.00    -0.082 Cl
ATOM      7  C   UNL     1      35.201 -19.608 -20.952  0.00  0.00    +0.036 C 
ATOM      8  C   UNL     1      34.199 -20.413 -20.409  0.00  0.00    +0.060 C 
ATOM      9  C   UNL     1      36.533 -19.819 -20.601  0.00  0.00    +0.003 C 
ATOM     10  C   UNL     1      34.533 -21.432 -19.515  0.00  0.00    +0.011 C 
ATOM     11  C   UNL     1      36.867 -20.837 -19.707  0.00  0.00    +0.000 C 
ATOM     12  C   UNL     1      35.867 -21.643 -19.164  0.00  0.00    +0.001 C 
ENDBRANCH   4   7
BRANCH   5  13
ATOM     13  S   UNL     1      33.740 -14.908 -23.267  0.00  0.00    +0.081 S 
ATOM     14  O   UNL     1      34.790 -14.003 -22.794  0.00  0.00    -0.151 OA
ATOM     15  O   UNL     1      33.363 -14.907 -24.681  0.00  0.00    -0.151 OA
BRANCH  13  16
ATOM     16  N   UNL     1      32.322 -14.567 -22.347  0.00  0.00    -0.202 NA
ATOM     17  H   UNL     1      32.504 -14.752 -21.360  0.00  0.00    +0.144 HD
ATOM     18  H   UNL     1      31.557 -15.161 -22.668  0.00  0.00    +0.144 HD
ENDBRANCH  13  16
ENDBRANCH   5  13
TORSDOF 3
ENDMDL
MODEL 5
REMARK VINA RESULT:      -7.9      4.451      6.235
REMARK  Name = 165323
REMARK  3 active torsions:
REMARK  status: ('A' for Active; 'I' for Inactive)
REMARK    1  A    between atoms: C_4  and  C_7
REMARK    2  A    between atoms: C_5  and  S_13
REMARK    3  A    between atoms: S_13  and  N_16
REMARK                            x       y       z     vdW  Elec       q    Type
REMARK                         _______ _______ _______ _____ _____    ______ ____
ROOT
ATOM      1  S   UNL     1      33.968 -17.233 -21.126  0.00  0.00    -0.026 S 
ATOM      2  N   UNL     1      34.744 -18.814 -22.986  0.00  0.00    -0.139 NA
ATOM      3  N   UNL     1      34.562 -17.584 -23.593  0.00  0.00    -0.120 NA
ATOM      4  C   UNL     1      34.468 -18.765 -21.703  0.00  0.00    +0.136 A 
ATOM      5  C   UNL     1      34.159 -16.671 -22.735  0.00  0.00    +0.254 A 
ENDROOT
BRANCH   4   7
ATOM      6 CL   UNL     1      37.279 -19.582 -20.733  0.00  0.00    -0.082 Cl
ATOM      7  C   UNL     1      34.557 -19.876 -20.781  0.00  0.00    +0.036 C 
ATOM      8  C   UNL     1      35.782 -20.323 -20.285  0.00  0.00    +0.060 C 
ATOM      9  C   UNL     1      33.375 -20.505 -20.392  0.00  0.00    +0.003 C 
ATOM     10  C   UNL     1      35.823 -21.398 -19.396  0.00  0.00    +0.011 C 
ATOM     11  C   UNL     1      33.416 -21.580 -19.504  0.00  0.00    +0.000 C 
ATOM     12  C   UNL     1      34.640 -22.027 -19.007  0.00  0.00    +0.001 C 
ENDBRANCH   4   7
BRANCH   5  13
ATOM     13  S   UNL     1      33.816 -15.007 -23.088  0.00  0.00    +0.081 S 
ATOM     14  O   UNL     1      34.881 -14.216 -22.467  0.00  0.00    -0.151 OA
ATOM     15  O   UNL     1      33.608 -14.937 -24.534  0.00  0.00    -0.151 OA
BRANCH  13  16
ATOM     16  N   UNL     1      32.337 -14.554 -22.324  0.00  0.00    -0.202 NA
ATOM     17  H   UNL     1      32.158 -15.174 -21.534  0.00  0.00    +0.144 HD
ATOM     18  H   UNL     1      31.571 -14.630 -22.994  0.00  0.00    +0.144 HD
ENDBRANCH  13  16
ENDBRANCH   5  13
TORSDOF 3
ENDMDL
MODEL 6
REMARK VINA RESULT:      -7.9      4.361      6.244
REMARK  Name = 165323
REMARK  3 active torsions:
REMARK  status: ('A' for Active; 'I' for Inactive)
REMARK    1  A    between atoms: C_4  and  C_7
REMARK    2  A    between atoms: C_5  and  S_13
REMARK    3  A    between atoms: S_13  and  N_16
REMARK                            x       y       z     vdW  Elec       q    Type
REMARK                         _______ _______ _______ _____ _____    ______ ____
ROOT
ATOM      1  S   UNL     1      34.666 -18.941 -23.406  0.00  0.00    -0.026 S 
ATOM      2  N   UNL     1      35.101 -17.319 -21.471  0.00  0.00    -0.139 NA
ATOM      3  N   UNL     1      34.839 -16.524 -22.574  0.00  0.00    -0.120 NA
ATOM      4  C   UNL     1      35.042 -18.595 -21.772  0.00  0.00    +0.136 A 
ATOM      5  C   UNL     1      34.597 -17.245 -23.648  0.00  0.00    +0.254 A 
ENDROOT
BRANCH   4   7
ATOM      6 CL   UNL     1      32.559 -20.104 -20.738  0.00  0.00    -0.082 Cl
ATOM      7  C   UNL     1      35.263 -19.687 -20.848  0.00  0.00    +0.036 C 
ATOM      8  C   UNL     1      34.206 -20.431 -20.323  0.00  0.00    +0.060 C 
ATOM      9  C   UNL     1      36.575 -19.987 -20.484  0.00  0.00    +0.003 C 
ATOM     10  C   UNL     1      34.463 -21.477 -19.435  0.00  0.00    +0.011 C 
ATOM     11  C   UNL     1      36.832 -21.031 -19.597  0.00  0.00    +0.000 C 
ATOM     12  C   UNL     1      35.776 -21.776 -19.072  0.00  0.00    +0.001 C 
ENDBRANCH   4   7
BRANCH   5  13
ATOM     13  S   UNL     1      34.226 -16.640 -25.232  0.00  0.00    +0.081 S 
ATOM     14  O   UNL     1      35.505 -16.367 -25.890  0.00  0.00    -0.151 OA
ATOM     15  O   UNL     1      33.296 -17.603 -25.822  0.00  0.00    -0.151 OA
BRANCH  13  16
ATOM     16  N   UNL     1      33.398 -15.133 -25.088  0.00  0.00    -0.202 NA
ATOM     17  H   UNL     1      33.286 -14.899 -24.102  0.00  0.00    +0.144 HD
ATOM     18  H   UNL     1      32.479 -15.207 -25.526  0.00  0.00    +0.144 HD
ENDBRANCH  13  16
ENDBRANCH   5  13
TORSDOF 3
ENDMDL
MODEL 7
REMARK VINA RESULT:      -7.8      8.021      9.005
REMARK  Name = 165323
REMARK  3 active torsions:
REMARK  status: ('A' for Active; 'I' for Inactive)
REMARK    1  A    between atoms: C_4  and  C_7
REMARK    2  A    between atoms: C_5  and  S_13
REMARK    3  A    between atoms: S_13  and  N_16
REMARK                            x       y       z     vdW  Elec       q    Type
REMARK                         _______ _______ _______ _____ _____    ______ ____
ROOT
ATOM      1  S   UNL     1      35.346 -23.884 -13.108  0.00  0.00    -0.026 S 
ATOM      2  N   UNL     1      35.453 -24.928 -15.445  0.00  0.00    -0.139 NA
ATOM      3  N   UNL     1      36.710 -25.113 -14.895  0.00  0.00    -0.120 NA
ATOM      4  C   UNL     1      34.652 -24.300 -14.617  0.00  0.00    +0.136 A 
ATOM      5  C   UNL     1      36.789 -24.616 -13.679  0.00  0.00    +0.254 A 
ENDROOT
BRANCH   4   7
ATOM      6 CL   UNL     1      34.019 -22.981 -17.331  0.00  0.00    -0.082 Cl
ATOM      7  C   UNL     1      33.272 -23.953 -14.883  0.00  0.00    +0.036 C 
ATOM      8  C   UNL     1      32.884 -23.352 -16.081  0.00  0.00    +0.060 C 
ATOM      9  C   UNL     1      32.321 -24.234 -13.903  0.00  0.00    +0.003 C 
ATOM     10  C   UNL     1      31.543 -23.035 -16.298  0.00  0.00    +0.011 C 
ATOM     11  C   UNL     1      30.981 -23.915 -14.120  0.00  0.00    +0.000 C 
ATOM     12  C   UNL     1      30.592 -23.316 -15.317  0.00  0.00    +0.001 C 
ENDBRANCH   4   7
BRANCH   5  13
ATOM     13  S   UNL     1      38.182 -24.638 -12.646  0.00  0.00    +0.081 S 
ATOM     14  O   UNL     1      37.985 -25.735 -11.696  0.00  0.00    -0.151 OA
ATOM     15  O   UNL     1      39.343 -24.648 -13.537  0.00  0.00    -0.151 OA
BRANCH  13  16
ATOM     16  N   UNL     1      38.238 -23.177 -11.730  0.00  0.00    -0.202 NA
ATOM     17  H   UNL     1      37.486 -22.558 -12.032  0.00  0.00    +0.144 HD
ATOM     18  H   UNL     1      39.137 -22.717 -11.878  0.00  0.00    +0.144 HD
ENDBRANCH  13  16
ENDBRANCH   5  13
TORSDOF 3
ENDMDL
MODEL 8
REMARK VINA RESULT:      -7.8      7.672      8.815
REMARK  Name = 165323
REMARK  3 active torsions:
REMARK  status: ('A' for Active; 'I' for Inactive)
REMARK    1  A    between atoms: C_4  and  C_7
REMARK    2  A    between atoms: C_5  and  S_13
REMARK    3  A    between atoms: S_13  and  N_16
REMARK                            x       y       z     vdW  Elec       q    Type
REMARK                         _______ _______ _______ _____ _____    ______ ____
ROOT
ATOM      1  S   UNL     1      35.721 -23.545 -13.724  0.00  0.00    -0.026 S 
ATOM      2  N   UNL     1      35.796 -25.309 -15.580  0.00  0.00    -0.139 NA
ATOM      3  N   UNL     1      36.917 -25.539 -14.801  0.00  0.00    -0.120 NA
ATOM      4  C   UNL     1      35.092 -24.299 -15.126  0.00  0.00    +0.136 A 
ATOM      5  C   UNL     1      36.997 -24.688 -13.799  0.00  0.00    +0.254 A 
ENDROOT
BRANCH   4   7
ATOM      6 CL   UNL     1      32.492 -24.696 -13.515  0.00  0.00    -0.082 Cl
ATOM      7  C   UNL     1      33.864 -23.801 -15.709  0.00  0.00    +0.036 C 
ATOM      8  C   UNL     1      32.636 -23.933 -15.060  0.00  0.00    +0.060 C 
ATOM      9  C   UNL     1      33.932 -23.178 -16.955  0.00  0.00    +0.003 C 
ATOM     10  C   UNL     1      31.476 -23.438 -15.657  0.00  0.00    +0.011 C 
ATOM     11  C   UNL     1      32.772 -22.685 -17.552  0.00  0.00    +0.000 C 
ATOM     12  C   UNL     1      31.544 -22.814 -16.903  0.00  0.00    +0.001 C 
ENDBRANCH   4   7
BRANCH   5  13
ATOM     13  S   UNL     1      38.244 -24.632 -12.593  0.00  0.00    +0.081 S 
ATOM     14  O   UNL     1      37.919 -25.659 -11.602  0.00  0.00    -0.151 OA
ATOM     15  O   UNL     1      39.511 -24.702 -13.323  0.00  0.00    -0.151 OA
BRANCH  13  16
ATOM     16  N   UNL     1      38.188 -23.110 -11.784  0.00  0.00    -0.202 NA
ATOM     17  H   UNL     1      39.053 -22.970 -11.263  0.00  0.00    +0.144 HD
ATOM     18  H   UNL     1      37.397 -23.096 -11.139  0.00  0.00    +0.144 HD
ENDBRANCH  13  16
ENDBRANCH   5  13
TORSDOF 3
ENDMDL
MODEL 9
REMARK VINA RESULT:      -7.7      6.081      7.334
REMARK  Name = 165323
REMARK  3 active torsions:
REMARK  status: ('A' for Active; 'I' for Inactive)
REMARK    1  A    between atoms: C_4  and  C_7
REMARK    2  A    between atoms: C_5  and  S_13
REMARK    3  A    between atoms: S_13  and  N_16
REMARK                            x       y       z     vdW  Elec       q    Type
REMARK                         _______ _______ _______ _____ _____    ______ ____
ROOT
ATOM      1  S   UNL     1      37.614 -23.316 -15.390  0.00  0.00    -0.026 S 
ATOM      2  N   UNL     1      35.151 -22.923 -14.808  0.00  0.00    -0.139 NA
ATOM      3  N   UNL     1      35.741 -23.382 -13.643  0.00  0.00    -0.120 NA
ATOM      4  C   UNL     1      36.018 -22.844 -15.790  0.00  0.00    +0.136 A 
ATOM      5  C   UNL     1      37.024 -23.625 -13.810  0.00  0.00    +0.254 A 
ENDROOT
BRANCH   4   7
ATOM      6 CL   UNL     1      33.209 -23.455 -16.906  0.00  0.00    -0.082 Cl
ATOM      7  C   UNL     1      35.724 -22.400 -17.136  0.00  0.00    +0.036 C 
ATOM      8  C   UNL     1      34.484 -22.628 -17.731  0.00  0.00    +0.060 C 
ATOM      9  C   UNL     1      36.723 -21.728 -17.839  0.00  0.00    +0.003 C 
ATOM     10  C   UNL     1      34.242 -22.181 -19.031  0.00  0.00    +0.011 C 
ATOM     11  C   UNL     1      36.482 -21.283 -19.139  0.00  0.00    +0.000 C 
ATOM     12  C   UNL     1      35.242 -21.509 -19.735  0.00  0.00    +0.001 C 
ENDBRANCH   4   7
BRANCH   5  13
ATOM     13  S   UNL     1      38.126 -24.211 -12.604  0.00  0.00    +0.081 S 
ATOM     14  O   UNL     1      39.282 -24.757 -13.319  0.00  0.00    -0.151 OA
ATOM     15  O   UNL     1      38.310 -23.110 -11.659  0.00  0.00    -0.151 OA
BRANCH  13  16
ATOM     16  N   UNL     1      37.395 -25.519 -11.749  0.00  0.00    -0.202 NA
ATOM     17  H   UNL     1      37.226 -26.293 -12.391  0.00  0.00    +0.144 HD
ATOM     18  H   UNL     1      36.507 -25.210 -11.350  0.00  0.00    +0.144 HD
ENDBRANCH  13  16
ENDBRANCH   5  13
TORSDOF 3
ENDMDL
