MODEL 1
REMARK VINA RESULT:      -3.8      0.000      0.000
REMARK  Name = 750
REMARK  3 active torsions:
REMARK  status: ('A' for Active; 'I' for Inactive)
REMARK    1  A    between atoms: CA_1  and  N_2
REMARK    2  A    between atoms: CA_1  and  C_7
REMARK    3  A    between atoms: C_7  and  O_8
REMARK                            x       y       z     vdW  Elec       q    Type
REMARK                         _______ _______ _______ _____ _____    ______ ____
ROOT
ATOM      1  CA  GLY A   1      38.872 -25.796 -14.270  0.00  0.00    +0.026 C 
ENDROOT
BRANCH   1   2
ATOM      2  N   GLY A   1      37.877 -25.818 -15.332  0.00  0.00    +0.388 N 
ATOM      3  H1  GLY A   1      36.945 -25.858 -14.923  0.00  0.00    -0.089 HD
ATOM      4  H2  GLY A   1      38.027 -26.637 -15.920  0.00  0.00    -0.089 HD
ATOM      5  H3  GLY A   1      37.965 -24.973 -15.897  0.00  0.00    -0.089 HD
ENDBRANCH   1   2
BRANCH   1   7
ATOM      6  OXT GLY A   1      40.993 -24.653 -14.314  0.00  0.00    -0.253 OA
ATOM      7  C   GLY A   1      40.198 -25.405 -14.861  0.00  0.00    +0.291 C 
BRANCH   7   8
ATOM      8  O   GLY A   1      40.408 -25.942 -16.091  0.00  0.00    -0.482 OA
ATOM      9  H   GLY A   1      40.948 -26.702 -16.184  0.00  0.00    +0.295 HD
ENDBRANCH   7   8
ENDBRANCH   1   7
TORSDOF 3
ENDMDL
MODEL 2
REMARK VINA RESULT:      -3.6      5.540      5.785
REMARK  Name = 750
REMARK  3 active torsions:
REMARK  status: ('A' for Active; 'I' for Inactive)
REMARK    1  A    between atoms: CA_1  and  N_2
REMARK    2  A    between atoms: CA_1  and  C_7
REMARK    3  A    between atoms: C_7  and  O_8
REMARK                            x       y       z     vdW  Elec       q    Type
REMARK                         _______ _______ _______ _____ _____    ______ ____
ROOT
ATOM      1  CA  GLY A   1      36.727 -23.350 -11.777  0.00  0.00    +0.026 C 
ENDROOT
BRANCH   1   2
ATOM      2  N   GLY A   1      38.114 -23.746 -11.591  0.00  0.00    +0.388 N 
ATOM      3  H1  GLY A   1      38.720 -23.121 -12.120  0.00  0.00    -0.089 HD
ATOM      4  H2  GLY A   1      38.241 -24.703 -11.921  0.00  0.00    -0.089 HD
ATOM      5  H3  GLY A   1      38.352 -23.694 -10.601  0.00  0.00    -0.089 HD
ENDBRANCH   1   2
BRANCH   1   7
ATOM      6  OXT GLY A   1      35.924 -24.303  -9.714  0.00  0.00    -0.253 OA
ATOM      7  C   GLY A   1      35.855 -24.239 -10.934  0.00  0.00    +0.291 C 
BRANCH   7   8
ATOM      8  O   GLY A   1      35.007 -25.001 -11.671  0.00  0.00    -0.482 OA
ATOM      9  H   GLY A   1      35.196 -25.176 -12.571  0.00  0.00    +0.295 HD
ENDBRANCH   7   8
ENDBRANCH   1   7
TORSDOF 3
ENDMDL
MODEL 3
REMARK VINA RESULT:      -3.5     10.147     10.461
REMARK  Name = 750
REMARK  3 active torsions:
REMARK  status: ('A' for Active; 'I' for Inactive)
REMARK    1  A    between atoms: CA_1  and  N_2
REMARK    2  A    between atoms: CA_1  and  C_7
REMARK    3  A    between atoms: C_7  and  O_8
REMARK                            x       y       z     vdW  Elec       q    Type
REMARK                         _______ _______ _______ _____ _____    ______ ____
ROOT
ATOM      1  CA  GLY A   1      41.296 -14.317 -15.588  0.00  0.00    +0.026 C 
ENDROOT
BRANCH   1   2
ATOM      2  N   GLY A   1      40.522 -13.826 -14.459  0.00  0.00    +0.388 N 
ATOM      3  H1  GLY A   1      41.086 -13.878 -13.612  0.00  0.00    -0.089 HD
ATOM      4  H2  GLY A   1      39.685 -14.399 -14.347  0.00  0.00    -0.089 HD
ATOM      5  H3  GLY A   1      40.250 -12.858 -14.629  0.00  0.00    -0.089 HD
ENDBRANCH   1   2
BRANCH   1   7
ATOM      6  OXT GLY A   1      42.304 -16.505 -15.681  0.00  0.00    -0.253 OA
ATOM      7  C   GLY A   1      41.297 -15.820 -15.553  0.00  0.00    +0.291 C 
BRANCH   7   8
ATOM      8  O   GLY A   1      40.055 -16.348 -15.405  0.00  0.00    -0.482 OA
ATOM      9  H   GLY A   1      39.947 -17.274 -15.316  0.00  0.00    +0.295 HD
ENDBRANCH   7   8
ENDBRANCH   1   7
TORSDOF 3
ENDMDL
MODEL 4
REMARK VINA RESULT:      -3.5     11.644     11.973
REMARK  Name = 750
REMARK  3 active torsions:
REMARK  status: ('A' for Active; 'I' for Inactive)
REMARK    1  A    between atoms: CA_1  and  N_2
REMARK    2  A    between atoms: CA_1  and  C_7
REMARK    3  A    between atoms: C_7  and  O_8
REMARK                            x       y       z     vdW  Elec       q    Type
REMARK                         _______ _______ _______ _____ _____    ______ ____
ROOT
ATOM      1  CA  GLY A   1      29.084 -22.796 -16.093  0.00  0.00    +0.026 C 
ENDROOT
BRANCH   1   2
ATOM      2  N   GLY A   1      30.318 -22.659 -16.852  0.00  0.00    +0.388 N 
ATOM      3  H1  GLY A   1      31.111 -22.648 -16.212  0.00  0.00    -0.089 HD
ATOM      4  H2  GLY A   1      30.295 -21.789 -17.382  0.00  0.00    -0.089 HD
ATOM      5  H3  GLY A   1      30.411 -23.446 -17.494  0.00  0.00    -0.089 HD
ENDBRANCH   1   2
BRANCH   1   7
ATOM      6  OXT GLY A   1      27.308 -21.604 -17.203  0.00  0.00    -0.253 OA
ATOM      7  C   GLY A   1      27.922 -22.650 -17.034  0.00  0.00    +0.291 C 
BRANCH   7   8
ATOM      8  O   GLY A   1      27.591 -23.812 -17.653  0.00  0.00    -0.482 OA
ATOM      9  H   GLY A   1      26.690 -24.039 -17.772  0.00  0.00    +0.295 HD
ENDBRANCH   7   8
ENDBRANCH   1   7
TORSDOF 3
ENDMDL
MODEL 5
REMARK VINA RESULT:      -3.4      2.884      3.164
REMARK  Name = 750
REMARK  3 active torsions:
REMARK  status: ('A' for Active; 'I' for Inactive)
REMARK    1  A    between atoms: CA_1  and  N_2
REMARK    2  A    between atoms: CA_1  and  C_7
REMARK    3  A    between atoms: C_7  and  O_8
REMARK                            x       y       z     vdW  Elec       q    Type
REMARK                         _______ _______ _______ _____ _____    ______ ____
ROOT
ATOM      1  CA  GLY A   1      36.705 -25.435 -14.521  0.00  0.00    +0.026 C 
ENDROOT
BRANCH   1   2
ATOM      2  N   GLY A   1      35.278 -25.495 -14.793  0.00  0.00    +0.388 N 
ATOM      3  H1  GLY A   1      34.830 -24.647 -14.449  0.00  0.00    -0.089 HD
ATOM      4  H2  GLY A   1      34.876 -26.306 -14.323  0.00  0.00    -0.089 HD
ATOM      5  H3  GLY A   1      35.127 -25.575 -15.798  0.00  0.00    -0.089 HD
ENDBRANCH   1   2
BRANCH   1   7
ATOM      6  OXT GLY A   1      38.376 -27.168 -14.648  0.00  0.00    -0.253 OA
ATOM      7  C   GLY A   1      37.356 -26.661 -15.098  0.00  0.00    +0.291 C 
BRANCH   7   8
ATOM      8  O   GLY A   1      36.719 -27.130 -16.201  0.00  0.00    -0.482 OA
ATOM      9  H   GLY A   1      37.027 -27.906 -16.626  0.00  0.00    +0.295 HD
ENDBRANCH   7   8
ENDBRANCH   1   7
TORSDOF 3
ENDMDL
MODEL 6
REMARK VINA RESULT:      -3.3      3.260      3.762
REMARK  Name = 750
REMARK  3 active torsions:
REMARK  status: ('A' for Active; 'I' for Inactive)
REMARK    1  A    between atoms: CA_1  and  N_2
REMARK    2  A    between atoms: CA_1  and  C_7
REMARK    3  A    between atoms: C_7  and  O_8
REMARK                            x       y       z     vdW  Elec       q    Type
REMARK                         _______ _______ _______ _____ _____    ______ ____
ROOT
ATOM      1  CA  GLY A   1      37.956 -25.986 -14.723  0.00  0.00    +0.026 C 
ENDROOT
BRANCH   1   2
ATOM      2  N   GLY A   1      38.175 -24.658 -15.275  0.00  0.00    +0.388 N 
ATOM      3  H1  GLY A   1      38.858 -24.712 -16.028  0.00  0.00    -0.089 HD
ATOM      4  H2  GLY A   1      38.523 -24.039 -14.543  0.00  0.00    -0.089 HD
ATOM      5  H3  GLY A   1      37.295 -24.293 -15.639  0.00  0.00    -0.089 HD
ENDBRANCH   1   2
BRANCH   1   7
ATOM      6  OXT GLY A   1      36.715 -27.388 -16.241  0.00  0.00    -0.253 OA
ATOM      7  C   GLY A   1      36.710 -26.563 -15.336  0.00  0.00    +0.291 C 
BRANCH   7   8
ATOM      8  O   GLY A   1      35.571 -26.043 -14.811  0.00  0.00    -0.482 OA
ATOM      9  H   GLY A   1      34.756 -26.488 -14.930  0.00  0.00    +0.295 HD
ENDBRANCH   7   8
ENDBRANCH   1   7
TORSDOF 3
ENDMDL
MODEL 7
REMARK VINA RESULT:      -3.3      5.039      5.475
REMARK  Name = 750
REMARK  3 active torsions:
REMARK  status: ('A' for Active; 'I' for Inactive)
REMARK    1  A    between atoms: CA_1  and  N_2
REMARK    2  A    between atoms: CA_1  and  C_7
REMARK    3  A    between atoms: C_7  and  O_8
REMARK                            x       y       z     vdW  Elec       q    Type
REMARK                         _______ _______ _______ _____ _____    ______ ____
ROOT
ATOM      1  CA  GLY A   1      35.180 -24.278 -12.424  0.00  0.00    +0.026 C 
ENDROOT
BRANCH   1   2
ATOM      2  N   GLY A   1      35.711 -25.205 -13.411  0.00  0.00    +0.388 N 
ATOM      3  H1  GLY A   1      35.571 -24.823 -14.345  0.00  0.00    -0.089 HD
ATOM      4  H2  GLY A   1      35.226 -26.099 -13.333  0.00  0.00    -0.089 HD
ATOM      5  H3  GLY A   1      36.707 -25.343 -13.245  0.00  0.00    -0.089 HD
ENDBRANCH   1   2
BRANCH   1   7
ATOM      6  OXT GLY A   1      37.116 -24.102 -10.999  0.00  0.00    -0.253 OA
ATOM      7  C   GLY A   1      35.950 -24.446 -11.143  0.00  0.00    +0.291 C 
BRANCH   7   8
ATOM      8  O   GLY A   1      35.230 -25.057 -10.168  0.00  0.00    -0.482 OA
ATOM      9  H   GLY A   1      34.992 -24.585  -9.396  0.00  0.00    +0.295 HD
ENDBRANCH   7   8
ENDBRANCH   1   7
TORSDOF 3
ENDMDL
MODEL 8
REMARK VINA RESULT:      -3.3      2.982      3.292
REMARK  Name = 750
REMARK  3 active torsions:
REMARK  status: ('A' for Active; 'I' for Inactive)
REMARK    1  A    between atoms: CA_1  and  N_2
REMARK    2  A    between atoms: CA_1  and  C_7
REMARK    3  A    between atoms: C_7  and  O_8
REMARK                            x       y       z     vdW  Elec       q    Type
REMARK                         _______ _______ _______ _____ _____    ______ ____
ROOT
ATOM      1  CA  GLY A   1      36.684 -25.706 -14.334  0.00  0.00    +0.026 C 
ENDROOT
BRANCH   1   2
ATOM      2  N   GLY A   1      36.207 -26.898 -15.017  0.00  0.00    +0.388 N 
ATOM      3  H1  GLY A   1      35.336 -26.686 -15.502  0.00  0.00    -0.089 HD
ATOM      4  H2  GLY A   1      36.045 -27.638 -14.335  0.00  0.00    -0.089 HD
ATOM      5  H3  GLY A   1      36.906 -27.206 -15.692  0.00  0.00    -0.089 HD
ENDBRANCH   1   2
BRANCH   1   7
ATOM      6  OXT GLY A   1      36.976 -26.384 -12.040  0.00  0.00    -0.253 OA
ATOM      7  C   GLY A   1      37.476 -26.127 -13.127  0.00  0.00    +0.291 C 
BRANCH   7   8
ATOM      8  O   GLY A   1      38.814 -26.155 -13.354  0.00  0.00    -0.482 OA
ATOM      9  H   GLY A   1      39.408 -25.884 -12.683  0.00  0.00    +0.295 HD
ENDBRANCH   7   8
ENDBRANCH   1   7
TORSDOF 3
ENDMDL
MODEL 9
REMARK VINA RESULT:      -3.2     13.273     13.478
REMARK  Name = 750
REMARK  3 active torsions:
REMARK  status: ('A' for Active; 'I' for Inactive)
REMARK    1  A    between atoms: CA_1  and  N_2
REMARK    2  A    between atoms: CA_1  and  C_7
REMARK    3  A    between atoms: C_7  and  O_8
REMARK                            x       y       z     vdW  Elec       q    Type
REMARK                         _______ _______ _______ _____ _____    ______ ____
ROOT
ATOM      1  CA  GLY A   1      35.008 -18.216 -24.050  0.00  0.00    +0.026 C 
ENDROOT
BRANCH   1   2
ATOM      2  N   GLY A   1      36.112 -18.281 -23.106  0.00  0.00    +0.388 N 
ATOM      3  H1  GLY A   1      35.772 -18.621 -22.208  0.00  0.00    -0.089 HD
ATOM      4  H2  GLY A   1      36.512 -17.350 -22.988  0.00  0.00    -0.089 HD
ATOM      5  H3  GLY A   1      36.827 -18.915 -23.462  0.00  0.00    -0.089 HD
ENDBRANCH   1   2
BRANCH   1   7
ATOM      6  OXT GLY A   1      34.619 -16.624 -25.818  0.00  0.00    -0.253 OA
ATOM      7  C   GLY A   1      34.984 -16.847 -24.671  0.00  0.00    +0.291 C 
BRANCH   7   8
ATOM      8  O   GLY A   1      35.451 -15.881 -23.839  0.00  0.00    -0.482 OA
ATOM      9  H   GLY A   1      35.981 -16.113 -23.102  0.00  0.00    +0.295 HD
ENDBRANCH   7   8
ENDBRANCH   1   7
TORSDOF 3
ENDMDL
