MODEL 1
REMARK VINA RESULT:      -6.6      0.000      0.000
REMARK  Name = 7456
REMARK  3 active torsions:
REMARK  status: ('A' for Active; 'I' for Inactive)
REMARK    1  A    between atoms: C_1  and  C_10
REMARK    2  A    between atoms: C_6  and  O_7
REMARK    3  A    between atoms: C_10  and  O_11
REMARK                            x       y       z     vdW  Elec       q    Type
REMARK                         _______ _______ _______ _____ _____    ______ ____
ROOT
ATOM      1  C   UNL     1      34.791 -19.937 -20.645  0.00  0.00    +0.076 C 
ATOM      2  C   UNL     1      35.881 -20.657 -20.156  0.00  0.00    +0.010 C 
ATOM      3  C   UNL     1      33.491 -20.342 -20.335  0.00  0.00    +0.010 C 
ATOM      4  C   UNL     1      35.672 -21.781 -19.357  0.00  0.00    +0.037 C 
ATOM      5  C   UNL     1      33.284 -21.467 -19.536  0.00  0.00    +0.037 C 
ATOM      6  C   UNL     1      34.374 -22.186 -19.048  0.00  0.00    +0.134 C 
ENDROOT
BRANCH   6   7
ATOM      7  O   UNL     1      34.171 -23.284 -18.268  0.00  0.00    -0.506 OA
ATOM      8  H   UNL     1      34.830 -23.554 -17.660  0.00  0.00    +0.292 HD
ENDBRANCH   6   7
BRANCH   1  10
ATOM      9  O   UNL     1      34.835 -18.737 -22.704  0.00  0.00    -0.245 OA
ATOM     10  C   UNL     1      35.007 -18.765 -21.478  0.00  0.00    +0.341 C 
BRANCH  10  11
ATOM     11  O   UNL     1      35.423 -17.692 -20.739  0.00  0.00    -0.441 OA
ATOM     12  C   UNL     1      34.802 -16.433 -21.019  0.00  0.00    +0.256 C 
ENDBRANCH  10  11
ENDBRANCH   1  10
TORSDOF 3
ENDMDL
MODEL 2
REMARK VINA RESULT:      -6.6      0.012      1.457
REMARK  Name = 7456
REMARK  3 active torsions:
REMARK  status: ('A' for Active; 'I' for Inactive)
REMARK    1  A    between atoms: C_1  and  C_10
REMARK    2  A    between atoms: C_6  and  O_7
REMARK    3  A    between atoms: C_10  and  O_11
REMARK                            x       y       z     vdW  Elec       q    Type
REMARK                         _______ _______ _______ _____ _____    ______ ____
ROOT
ATOM      1  C   UNL     1      34.797 -19.942 -20.638  0.00  0.00    +0.076 C 
ATOM      2  C   UNL     1      33.499 -20.346 -20.328  0.00  0.00    +0.010 C 
ATOM      3  C   UNL     1      35.888 -20.660 -20.146  0.00  0.00    +0.010 C 
ATOM      4  C   UNL     1      33.291 -21.469 -19.527  0.00  0.00    +0.037 C 
ATOM      5  C   UNL     1      35.679 -21.782 -19.345  0.00  0.00    +0.037 C 
ATOM      6  C   UNL     1      34.381 -22.186 -19.035  0.00  0.00    +0.134 C 
ENDROOT
BRANCH   6   7
ATOM      7  O   UNL     1      34.176 -23.282 -18.252  0.00  0.00    -0.506 OA
ATOM      8  H   UNL     1      34.316 -23.229 -17.328  0.00  0.00    +0.292 HD
ENDBRANCH   6   7
BRANCH   1  10
ATOM      9  O   UNL     1      34.849 -18.746 -22.700  0.00  0.00    -0.245 OA
ATOM     10  C   UNL     1      35.015 -18.771 -21.473  0.00  0.00    +0.341 C 
BRANCH  10  11
ATOM     11  O   UNL     1      35.426 -17.696 -20.735  0.00  0.00    -0.441 OA
ATOM     12  C   UNL     1      34.806 -16.438 -21.024  0.00  0.00    +0.256 C 
ENDBRANCH  10  11
ENDBRANCH   1  10
TORSDOF 3
ENDMDL
MODEL 3
REMARK VINA RESULT:      -6.5      1.391      4.858
REMARK  Name = 7456
REMARK  3 active torsions:
REMARK  status: ('A' for Active; 'I' for Inactive)
REMARK    1  A    between atoms: C_1  and  C_10
REMARK    2  A    between atoms: C_6  and  O_7
REMARK    3  A    between atoms: C_10  and  O_11
REMARK                            x       y       z     vdW  Elec       q    Type
REMARK                         _______ _______ _______ _____ _____    ______ ____
ROOT
ATOM      1  C   UNL     1      34.064 -21.646 -19.478  0.00  0.00    +0.076 C 
ATOM      2  C   UNL     1      33.276 -20.696 -20.128  0.00  0.00    +0.010 C 
ATOM      3  C   UNL     1      35.455 -21.549 -19.525  0.00  0.00    +0.010 C 
ATOM      4  C   UNL     1      33.880 -19.649 -20.825  0.00  0.00    +0.037 C 
ATOM      5  C   UNL     1      36.058 -20.502 -20.222  0.00  0.00    +0.037 C 
ATOM      6  C   UNL     1      35.270 -19.552 -20.872  0.00  0.00    +0.134 C 
ENDROOT
BRANCH   6   7
ATOM      7  O   UNL     1      35.858 -18.530 -21.553  0.00  0.00    -0.506 OA
ATOM      8  H   UNL     1      35.530 -17.658 -21.464  0.00  0.00    +0.292 HD
ENDBRANCH   6   7
BRANCH   1  10
ATOM      9  O   UNL     1      33.851 -23.904 -18.746  0.00  0.00    -0.245 OA
ATOM     10  C   UNL     1      33.436 -22.738 -18.752  0.00  0.00    +0.341 C 
BRANCH  10  11
ATOM     11  O   UNL     1      32.327 -22.318 -18.070  0.00  0.00    -0.441 OA
ATOM     12  C   UNL     1      31.994 -23.031 -16.874  0.00  0.00    +0.256 C 
ENDBRANCH  10  11
ENDBRANCH   1  10
TORSDOF 3
ENDMDL
MODEL 4
REMARK VINA RESULT:      -6.4      2.509      5.529
REMARK  Name = 7456
REMARK  3 active torsions:
REMARK  status: ('A' for Active; 'I' for Inactive)
REMARK    1  A    between atoms: C_1  and  C_10
REMARK    2  A    between atoms: C_6  and  O_7
REMARK    3  A    between atoms: C_10  and  O_11
REMARK                            x       y       z     vdW  Elec       q    Type
REMARK                         _______ _______ _______ _____ _____    ______ ____
ROOT
ATOM      1  C   UNL     1      35.031 -18.321 -22.574  0.00  0.00    +0.076 C 
ATOM      2  C   UNL     1      35.096 -16.929 -22.555  0.00  0.00    +0.010 C 
ATOM      3  C   UNL     1      34.732 -18.990 -23.762  0.00  0.00    +0.010 C 
ATOM      4  C   UNL     1      34.863 -16.204 -23.724  0.00  0.00    +0.037 C 
ATOM      5  C   UNL     1      34.499 -18.264 -24.930  0.00  0.00    +0.037 C 
ATOM      6  C   UNL     1      34.564 -16.872 -24.911  0.00  0.00    +0.134 C 
ENDROOT
BRANCH   6   7
ATOM      7  O   UNL     1      34.336 -16.163 -26.051  0.00  0.00    -0.506 OA
ATOM      8  H   UNL     1      33.988 -16.592 -26.807  0.00  0.00    +0.292 HD
ENDBRANCH   6   7
BRANCH   1  10
ATOM      9  O   UNL     1      36.139 -18.794 -20.517  0.00  0.00    -0.245 OA
ATOM     10  C   UNL     1      35.274 -19.078 -21.356  0.00  0.00    +0.341 C 
BRANCH  10  11
ATOM     11  O   UNL     1      34.425 -20.145 -21.248  0.00  0.00    -0.441 OA
ATOM     12  C   UNL     1      33.180 -19.916 -20.579  0.00  0.00    +0.256 C 
ENDBRANCH  10  11
ENDBRANCH   1  10
TORSDOF 3
ENDMDL
MODEL 5
REMARK VINA RESULT:      -6.4      2.474      5.487
REMARK  Name = 7456
REMARK  3 active torsions:
REMARK  status: ('A' for Active; 'I' for Inactive)
REMARK    1  A    between atoms: C_1  and  C_10
REMARK    2  A    between atoms: C_6  and  O_7
REMARK    3  A    between atoms: C_10  and  O_11
REMARK                            x       y       z     vdW  Elec       q    Type
REMARK                         _______ _______ _______ _____ _____    ______ ____
ROOT
ATOM      1  C   UNL     1      35.033 -18.405 -22.515  0.00  0.00    +0.076 C 
ATOM      2  C   UNL     1      34.738 -19.082 -23.698  0.00  0.00    +0.010 C 
ATOM      3  C   UNL     1      35.110 -17.012 -22.508  0.00  0.00    +0.010 C 
ATOM      4  C   UNL     1      34.518 -18.365 -24.875  0.00  0.00    +0.037 C 
ATOM      5  C   UNL     1      34.891 -16.296 -23.685  0.00  0.00    +0.037 C 
ATOM      6  C   UNL     1      34.595 -16.972 -24.868  0.00  0.00    +0.134 C 
ENDROOT
BRANCH   6   7
ATOM      7  O   UNL     1      34.382 -16.274 -26.018  0.00  0.00    -0.506 OA
ATOM      8  H   UNL     1      34.686 -16.614 -26.835  0.00  0.00    +0.292 HD
ENDBRANCH   6   7
BRANCH   1  10
ATOM      9  O   UNL     1      36.119 -18.861 -20.443  0.00  0.00    -0.245 OA
ATOM     10  C   UNL     1      35.262 -19.151 -21.288  0.00  0.00    +0.341 C 
BRANCH  10  11
ATOM     11  O   UNL     1      34.410 -20.215 -21.179  0.00  0.00    -0.441 OA
ATOM     12  C   UNL     1      33.160 -19.979 -20.523  0.00  0.00    +0.256 C 
ENDBRANCH  10  11
ENDBRANCH   1  10
TORSDOF 3
ENDMDL
MODEL 6
REMARK VINA RESULT:      -6.4      7.341      8.229
REMARK  Name = 7456
REMARK  3 active torsions:
REMARK  status: ('A' for Active; 'I' for Inactive)
REMARK    1  A    between atoms: C_1  and  C_10
REMARK    2  A    between atoms: C_6  and  O_7
REMARK    3  A    between atoms: C_10  and  O_11
REMARK                            x       y       z     vdW  Elec       q    Type
REMARK                         _______ _______ _______ _____ _____    ______ ____
ROOT
ATOM      1  C   UNL     1      29.307 -23.758 -15.989  0.00  0.00    +0.076 C 
ATOM      2  C   UNL     1      29.127 -24.854 -15.147  0.00  0.00    +0.010 C 
ATOM      3  C   UNL     1      30.508 -23.046 -15.963  0.00  0.00    +0.010 C 
ATOM      4  C   UNL     1      30.148 -25.239 -14.277  0.00  0.00    +0.037 C 
ATOM      5  C   UNL     1      31.528 -23.432 -15.093  0.00  0.00    +0.037 C 
ATOM      6  C   UNL     1      31.347 -24.528 -14.250  0.00  0.00    +0.134 C 
ENDROOT
BRANCH   6   7
ATOM      7  O   UNL     1      32.343 -24.905 -13.400  0.00  0.00    -0.506 OA
ATOM      8  H   UNL     1      32.421 -25.801 -13.139  0.00  0.00    +0.292 HD
ENDBRANCH   6   7
BRANCH   1  10
ATOM      9  O   UNL     1      27.656 -24.122 -17.669  0.00  0.00    -0.245 OA
ATOM     10  C   UNL     1      28.244 -23.354 -16.896  0.00  0.00    +0.341 C 
BRANCH  10  11
ATOM     11  O   UNL     1      27.970 -22.019 -16.789  0.00  0.00    -0.441 OA
ATOM     12  C   UNL     1      26.631 -21.607 -17.082  0.00  0.00    +0.256 C 
ENDBRANCH  10  11
ENDBRANCH   1  10
TORSDOF 3
ENDMDL
MODEL 7
REMARK VINA RESULT:      -6.2      2.872      6.064
REMARK  Name = 7456
REMARK  3 active torsions:
REMARK  status: ('A' for Active; 'I' for Inactive)
REMARK    1  A    between atoms: C_1  and  C_10
REMARK    2  A    between atoms: C_6  and  O_7
REMARK    3  A    between atoms: C_10  and  O_11
REMARK                            x       y       z     vdW  Elec       q    Type
REMARK                         _______ _______ _______ _____ _____    ______ ____
ROOT
ATOM      1  C   UNL     1      34.894 -17.005 -22.777  0.00  0.00    +0.076 C 
ATOM      2  C   UNL     1      35.026 -17.813 -23.905  0.00  0.00    +0.010 C 
ATOM      3  C   UNL     1      34.322 -15.737 -22.889  0.00  0.00    +0.010 C 
ATOM      4  C   UNL     1      34.584 -17.355 -25.147  0.00  0.00    +0.037 C 
ATOM      5  C   UNL     1      33.881 -15.279 -24.130  0.00  0.00    +0.037 C 
ATOM      6  C   UNL     1      34.013 -16.087 -25.259  0.00  0.00    +0.134 C 
ENDROOT
BRANCH   6   7
ATOM      7  O   UNL     1      33.583 -15.640 -26.471  0.00  0.00    -0.506 OA
ATOM      8  H   UNL     1      32.944 -14.958 -26.519  0.00  0.00    +0.292 HD
ENDBRANCH   6   7
BRANCH   1  10
ATOM      9  O   UNL     1      35.278 -16.834 -20.430  0.00  0.00    -0.245 OA
ATOM     10  C   UNL     1      35.354 -17.482 -21.482  0.00  0.00    +0.341 C 
BRANCH  10  11
ATOM     11  O   UNL     1      35.881 -18.741 -21.568  0.00  0.00    -0.441 OA
ATOM     12  C   UNL     1      35.236 -19.766 -20.805  0.00  0.00    +0.256 C 
ENDBRANCH  10  11
ENDBRANCH   1  10
TORSDOF 3
ENDMDL
MODEL 8
REMARK VINA RESULT:      -6.2      2.048      5.014
REMARK  Name = 7456
REMARK  3 active torsions:
REMARK  status: ('A' for Active; 'I' for Inactive)
REMARK    1  A    between atoms: C_1  and  C_10
REMARK    2  A    between atoms: C_6  and  O_7
REMARK    3  A    between atoms: C_10  and  O_11
REMARK                            x       y       z     vdW  Elec       q    Type
REMARK                         _______ _______ _______ _____ _____    ______ ____
ROOT
ATOM      1  C   UNL     1      34.193 -19.116 -21.471  0.00  0.00    +0.076 C 
ATOM      2  C   UNL     1      34.031 -17.794 -21.056  0.00  0.00    +0.010 C 
ATOM      3  C   UNL     1      34.856 -19.396 -22.666  0.00  0.00    +0.010 C 
ATOM      4  C   UNL     1      34.532 -16.752 -21.836  0.00  0.00    +0.037 C 
ATOM      5  C   UNL     1      35.357 -18.353 -23.446  0.00  0.00    +0.037 C 
ATOM      6  C   UNL     1      35.195 -17.032 -23.031  0.00  0.00    +0.134 C 
ENDROOT
BRANCH   6   7
ATOM      7  O   UNL     1      35.683 -16.014 -23.793  0.00  0.00    -0.506 OA
ATOM      8  H   UNL     1      36.262 -15.382 -23.415  0.00  0.00    +0.292 HD
ENDBRANCH   6   7
BRANCH   1  10
ATOM      9  O   UNL     1      32.472 -20.499 -20.574  0.00  0.00    -0.245 OA
ATOM     10  C   UNL     1      33.671 -20.203 -20.658  0.00  0.00    +0.341 C 
BRANCH  10  11
ATOM     11  O   UNL     1      34.670 -20.862 -19.997  0.00  0.00    -0.441 OA
ATOM     12  C   UNL     1      34.287 -21.994 -19.208  0.00  0.00    +0.256 C 
ENDBRANCH  10  11
ENDBRANCH   1  10
TORSDOF 3
ENDMDL
MODEL 9
REMARK VINA RESULT:      -6.2      2.895      4.381
REMARK  Name = 7456
REMARK  3 active torsions:
REMARK  status: ('A' for Active; 'I' for Inactive)
REMARK    1  A    between atoms: C_1  and  C_10
REMARK    2  A    between atoms: C_6  and  O_7
REMARK    3  A    between atoms: C_10  and  O_11
REMARK                            x       y       z     vdW  Elec       q    Type
REMARK                         _______ _______ _______ _____ _____    ______ ____
ROOT
ATOM      1  C   UNL     1      34.699 -17.262 -23.613  0.00  0.00    +0.076 C 
ATOM      2  C   UNL     1      34.939 -16.652 -22.382  0.00  0.00    +0.010 C 
ATOM      3  C   UNL     1      34.757 -18.652 -23.725  0.00  0.00    +0.010 C 
ATOM      4  C   UNL     1      35.236 -17.431 -21.263  0.00  0.00    +0.037 C 
ATOM      5  C   UNL     1      35.054 -19.430 -22.606  0.00  0.00    +0.037 C 
ATOM      6  C   UNL     1      35.293 -18.820 -21.376  0.00  0.00    +0.134 C 
ENDROOT
BRANCH   6   7
ATOM      7  O   UNL     1      35.584 -19.579 -20.283  0.00  0.00    -0.506 OA
ATOM      8  H   UNL     1      36.201 -20.280 -20.351  0.00  0.00    +0.292 HD
ENDBRANCH   6   7
BRANCH   1  10
ATOM      9  O   UNL     1      34.825 -16.669 -25.918  0.00  0.00    -0.245 OA
ATOM     10  C   UNL     1      34.390 -16.452 -24.780  0.00  0.00    +0.341 C 
BRANCH  10  11
ATOM     11  O   UNL     1      33.554 -15.416 -24.466  0.00  0.00    -0.441 OA
ATOM     12  C   UNL     1      33.139 -14.570 -25.544  0.00  0.00    +0.256 C 
ENDBRANCH  10  11
ENDBRANCH   1  10
TORSDOF 3
ENDMDL
