MODEL 1
REMARK VINA RESULT:     -10.0      0.000      0.000
REMARK  Name = 121596701
REMARK  4 active torsions:
REMARK  status: ('A' for Active; 'I' for Inactive)
REMARK    1  A    between atoms: C_5  and  C_24
REMARK    2  A    between atoms: C_8  and  C_16
REMARK    3  A    between atoms: C_24  and  S_27
REMARK    4  A    between atoms: S_27  and  N_29
REMARK                            x       y       z     vdW  Elec       q    Type
REMARK                         _______ _______ _______ _____ _____    ______ ____
ROOT
ATOM      1  O   UNL     1      38.506 -26.038 -12.922  0.00  0.00    -0.350 OA
ATOM      2  N   UNL     1      33.693 -22.836 -16.759  0.00  0.00    -0.347 NA
ATOM      3  N   UNL     1      36.530 -24.792 -14.486  0.00  0.00    -0.283 N 
ATOM      4  N   UNL     1      35.996 -23.389 -16.315  0.00  0.00    -0.329 NA
ATOM      5  C   UNL     1      33.346 -23.588 -15.694  0.00  0.00    +0.118 C 
ATOM      6  C   UNL     1      34.254 -24.261 -14.901  0.00  0.00    +0.132 C 
ATOM      7  C   UNL     1      35.578 -24.123 -15.263  0.00  0.00    +0.179 C 
ATOM      8  C   UNL     1      35.015 -22.781 -17.008  0.00  0.00    +0.140 C 
ATOM      9  C   UNL     1      36.551 -24.581 -13.023  0.00  0.00    +0.104 C 
ATOM     10  C   UNL     1      37.781 -25.254 -15.101  0.00  0.00    +0.125 C 
ATOM     11  C   UNL     1      37.225 -25.781 -12.348  0.00  0.00    +0.162 C 
ATOM     12  C   UNL     1      38.372 -26.403 -14.294  0.00  0.00    +0.164 C 
ATOM     13  C   UNL     1      37.278 -23.274 -12.687  0.00  0.00    +0.024 C 
ENDROOT
BRANCH   8  16
ATOM     14  N   UNL     1      37.187 -20.935 -19.444  0.00  0.00    -0.240 NA
ATOM     15  N   UNL     1      33.825 -20.354 -20.854  0.00  0.00    -0.310 N 
ATOM     16  C   UNL     1      35.425 -21.988 -18.138  0.00  0.00    +0.106 C 
ATOM     17  C   UNL     1      34.481 -21.485 -19.045  0.00  0.00    +0.029 C 
ATOM     18  C   UNL     1      36.752 -21.674 -18.399  0.00  0.00    +0.111 C 
ATOM     19  C   UNL     1      34.931 -20.721 -20.124  0.00  0.00    +0.069 C 
ATOM     20  C   UNL     1      33.065 -21.563 -19.153  0.00  0.00    +0.018 C 
ATOM     21  C   UNL     1      36.278 -20.448 -20.321  0.00  0.00    +0.113 C 
ATOM     22  C   UNL     1      32.691 -20.858 -20.274  0.00  0.00    +0.062 C 
ATOM     23  H   UNL     1      33.845 -19.808 -21.672  0.00  0.00    +0.152 HD
ENDBRANCH   8  16
BRANCH   5  24
ATOM     24  C   UNL     1      31.893 -23.684 -15.370  0.00  0.00    +0.105 C 
ATOM     25  C   UNL     1      30.893 -22.830 -16.084  0.00  0.00    +0.020 C 
ATOM     26  C   UNL     1      30.936 -24.310 -16.333  0.00  0.00    +0.020 C 
BRANCH  24  27
ATOM     27  S   UNL     1      31.458 -23.985 -13.656  0.00  0.00    -0.007 S 
ATOM     28  O   UNL     1      31.835 -25.367 -13.329  0.00  0.00    -0.156 OA
ATOM     29  C   UNL     1      29.669 -23.955 -13.640  0.00  0.00    +0.097 C 
BRANCH  27  30
ATOM     30  N   UNL     1      31.911 -22.743 -12.828  0.00  0.00    -0.183 NA
ATOM     31  H   UNL     1      32.841 -22.424 -12.889  0.00  0.00    +0.156 HD
ENDBRANCH  27  30
ENDBRANCH  24  27
ENDBRANCH   5  24
TORSDOF 4
ENDMDL
MODEL 2
REMARK VINA RESULT:      -9.9      1.513      2.440
REMARK  Name = 121596701
REMARK  4 active torsions:
REMARK  status: ('A' for Active; 'I' for Inactive)
REMARK    1  A    between atoms: C_5  and  C_24
REMARK    2  A    between atoms: C_8  and  C_16
REMARK    3  A    between atoms: C_24  and  S_27
REMARK    4  A    between atoms: S_27  and  N_29
REMARK                            x       y       z     vdW  Elec       q    Type
REMARK                         _______ _______ _______ _____ _____    ______ ____
ROOT
ATOM      1  O   UNL     1      38.280 -26.093 -13.192  0.00  0.00    -0.350 OA
ATOM      2  N   UNL     1      32.568 -23.387 -16.055  0.00  0.00    -0.347 NA
ATOM      3  N   UNL     1      35.942 -25.049 -14.352  0.00  0.00    -0.283 N 
ATOM      4  N   UNL     1      34.942 -23.800 -16.096  0.00  0.00    -0.329 NA
ATOM      5  C   UNL     1      32.505 -24.080 -14.899  0.00  0.00    +0.118 C 
ATOM      6  C   UNL     1      33.601 -24.654 -14.288  0.00  0.00    +0.132 C 
ATOM      7  C   UNL     1      34.806 -24.480 -14.938  0.00  0.00    +0.179 C 
ATOM      8  C   UNL     1      33.800 -23.287 -16.590  0.00  0.00    +0.140 C 
ATOM      9  C   UNL     1      36.264 -24.739 -12.944  0.00  0.00    +0.104 C 
ATOM     10  C   UNL     1      37.056 -25.493 -15.200  0.00  0.00    +0.125 C 
ATOM     11  C   UNL     1      37.139 -25.857 -12.366  0.00  0.00    +0.162 C 
ATOM     12  C   UNL     1      37.875 -26.556 -14.478  0.00  0.00    +0.164 C 
ATOM     13  C   UNL     1      36.967 -23.379 -12.849  0.00  0.00    +0.024 C 
ENDROOT
BRANCH   8  16
ATOM     14  N   UNL     1      32.892 -21.715 -19.871  0.00  0.00    -0.240 NA
ATOM     15  N   UNL     1      36.449 -20.781 -19.557  0.00  0.00    -0.310 N 
ATOM     16  C   UNL     1      33.907 -22.555 -17.826  0.00  0.00    +0.106 C 
ATOM     17  C   UNL     1      35.118 -21.961 -18.208  0.00  0.00    +0.029 C 
ATOM     18  C   UNL     1      32.842 -22.392 -18.702  0.00  0.00    +0.111 C 
ATOM     19  C   UNL     1      35.168 -21.262 -19.416  0.00  0.00    +0.069 C 
ATOM     20  C   UNL     1      36.415 -21.884 -17.629  0.00  0.00    +0.018 C 
ATOM     21  C   UNL     1      34.059 -21.140 -20.242  0.00  0.00    +0.113 C 
ATOM     22  C   UNL     1      37.211 -21.153 -18.481  0.00  0.00    +0.062 C 
ATOM     23  H   UNL     1      36.771 -20.250 -20.320  0.00  0.00    +0.152 HD
ENDBRANCH   8  16
BRANCH   5  24
ATOM     24  C   UNL     1      31.164 -24.221 -14.260  0.00  0.00    +0.105 C 
ATOM     25  C   UNL     1      31.038 -24.699 -12.848  0.00  0.00    +0.020 C 
ATOM     26  C   UNL     1      30.726 -23.271 -13.191  0.00  0.00    +0.020 C 
BRANCH  24  27
ATOM     27  S   UNL     1      29.814 -24.767 -15.307  0.00  0.00    -0.007 S 
ATOM     28  O   UNL     1      30.393 -25.444 -16.475  0.00  0.00    -0.156 OA
ATOM     29  C   UNL     1      29.096 -23.253 -15.931  0.00  0.00    +0.097 C 
BRANCH  27  30
ATOM     30  N   UNL     1      28.729 -25.404 -14.384  0.00  0.00    -0.183 NA
ATOM     31  H   UNL     1      28.223 -26.190 -14.692  0.00  0.00    +0.156 HD
ENDBRANCH  27  30
ENDBRANCH  24  27
ENDBRANCH   5  24
TORSDOF 4
ENDMDL
MODEL 3
REMARK VINA RESULT:      -9.5      2.594      6.245
REMARK  Name = 121596701
REMARK  4 active torsions:
REMARK  status: ('A' for Active; 'I' for Inactive)
REMARK    1  A    between atoms: C_5  and  C_24
REMARK    2  A    between atoms: C_8  and  C_16
REMARK    3  A    between atoms: C_24  and  S_27
REMARK    4  A    between atoms: S_27  and  N_29
REMARK                            x       y       z     vdW  Elec       q    Type
REMARK                         _______ _______ _______ _____ _____    ______ ____
ROOT
ATOM      1  O   UNL     1      35.371 -21.003 -20.626  0.00  0.00    -0.350 OA
ATOM      2  N   UNL     1      33.824 -24.251 -14.693  0.00  0.00    -0.347 NA
ATOM      3  N   UNL     1      34.725 -22.269 -18.201  0.00  0.00    -0.283 N 
ATOM      4  N   UNL     1      35.421 -23.616 -16.383  0.00  0.00    -0.329 NA
ATOM      5  C   UNL     1      32.886 -23.561 -15.373  0.00  0.00    +0.118 C 
ATOM      6  C   UNL     1      33.134 -22.883 -16.549  0.00  0.00    +0.132 C 
ATOM      7  C   UNL     1      34.432 -22.945 -17.011  0.00  0.00    +0.179 C 
ATOM      8  C   UNL     1      35.052 -24.236 -15.247  0.00  0.00    +0.140 C 
ATOM      9  C   UNL     1      33.918 -22.540 -19.408  0.00  0.00    +0.104 C 
ATOM     10  C   UNL     1      36.072 -21.726 -18.418  0.00  0.00    +0.125 C 
ATOM     11  C   UNL     1      34.010 -21.341 -20.359  0.00  0.00    +0.162 C 
ATOM     12  C   UNL     1      36.024 -20.586 -19.429  0.00  0.00    +0.164 C 
ATOM     13  C   UNL     1      34.399 -23.826 -20.089  0.00  0.00    +0.024 C 
ENDROOT
BRANCH   8  16
ATOM     14  N   UNL     1      37.483 -26.938 -14.326  0.00  0.00    -0.240 NA
ATOM     15  N   UNL     1      38.131 -24.427 -11.701  0.00  0.00    -0.310 N 
ATOM     16  C   UNL     1      36.082 -24.962 -14.549  0.00  0.00    +0.106 C 
ATOM     17  C   UNL     1      36.698 -24.422 -13.412  0.00  0.00    +0.029 C 
ATOM     18  C   UNL     1      36.522 -26.218 -14.947  0.00  0.00    +0.111 C 
ATOM     19  C   UNL     1      37.691 -25.167 -12.772  0.00  0.00    +0.069 C 
ATOM     20  C   UNL     1      36.558 -23.207 -12.685  0.00  0.00    +0.018 C 
ATOM     21  C   UNL     1      38.081 -26.419 -13.229  0.00  0.00    +0.113 C 
ATOM     22  C   UNL     1      37.451 -23.239 -11.639  0.00  0.00    +0.062 C 
ATOM     23  H   UNL     1      38.831 -24.709 -11.069  0.00  0.00    +0.152 HD
ENDBRANCH   8  16
BRANCH   5  24
ATOM     24  C   UNL     1      31.506 -23.544 -14.806  0.00  0.00    +0.105 C 
ATOM     25  C   UNL     1      31.166 -24.360 -13.599  0.00  0.00    +0.020 C 
ATOM     26  C   UNL     1      31.225 -22.863 -13.504  0.00  0.00    +0.020 C 
BRANCH  24  27
ATOM     27  S   UNL     1      30.147 -23.417 -15.970  0.00  0.00    -0.007 S 
ATOM     28  O   UNL     1      30.590 -22.582 -17.094  0.00  0.00    -0.156 OA
ATOM     29  C   UNL     1      28.913 -22.452 -15.107  0.00  0.00    +0.097 C 
BRANCH  27  30
ATOM     30  N   UNL     1      29.533 -24.842 -16.136  0.00  0.00    -0.183 NA
ATOM     31  H   UNL     1      29.267 -25.161 -17.028  0.00  0.00    +0.156 HD
ENDBRANCH  27  30
ENDBRANCH  24  27
ENDBRANCH   5  24
TORSDOF 4
ENDMDL
MODEL 4
REMARK VINA RESULT:      -9.4      1.710      5.193
REMARK  Name = 121596701
REMARK  4 active torsions:
REMARK  status: ('A' for Active; 'I' for Inactive)
REMARK    1  A    between atoms: C_5  and  C_24
REMARK    2  A    between atoms: C_8  and  C_16
REMARK    3  A    between atoms: C_24  and  S_27
REMARK    4  A    between atoms: S_27  and  N_29
REMARK                            x       y       z     vdW  Elec       q    Type
REMARK                         _______ _______ _______ _____ _____    ______ ____
ROOT
ATOM      1  O   UNL     1      28.408 -23.789 -15.361  0.00  0.00    -0.350 OA
ATOM      2  N   UNL     1      35.321 -23.313 -15.714  0.00  0.00    -0.347 NA
ATOM      3  N   UNL     1      31.209 -23.568 -15.454  0.00  0.00    -0.283 N 
ATOM      4  N   UNL     1      33.138 -22.883 -16.640  0.00  0.00    -0.329 NA
ATOM      5  C   UNL     1      34.718 -23.893 -14.657  0.00  0.00    +0.118 C 
ATOM      6  C   UNL     1      33.349 -24.005 -14.521  0.00  0.00    +0.132 C 
ATOM      7  C   UNL     1      32.602 -23.476 -15.554  0.00  0.00    +0.179 C 
ATOM      8  C   UNL     1      34.484 -22.836 -16.655  0.00  0.00    +0.140 C 
ATOM      9  C   UNL     1      30.584 -24.886 -15.217  0.00  0.00    +0.104 C 
ATOM     10  C   UNL     1      30.364 -22.540 -16.074  0.00  0.00    +0.125 C 
ATOM     11  C   UNL     1      29.202 -24.684 -14.584  0.00  0.00    +0.162 C 
ATOM     12  C   UNL     1      29.003 -22.493 -15.389  0.00  0.00    +0.164 C 
ATOM     13  C   UNL     1      30.483 -25.667 -16.532  0.00  0.00    +0.024 C 
ENDROOT
BRANCH   8  16
ATOM     14  N   UNL     1      37.085 -21.522 -19.014  0.00  0.00    -0.240 NA
ATOM     15  N   UNL     1      33.965 -20.624 -20.771  0.00  0.00    -0.310 N 
ATOM     16  C   UNL     1      35.092 -22.209 -17.800  0.00  0.00    +0.106 C 
ATOM     17  C   UNL     1      34.306 -21.667 -18.826  0.00  0.00    +0.029 C 
ATOM     18  C   UNL     1      36.467 -22.100 -17.959  0.00  0.00    +0.111 C 
ATOM     19  C   UNL     1      34.945 -21.070 -19.915  0.00  0.00    +0.069 C 
ATOM     20  C   UNL     1      32.906 -21.563 -19.060  0.00  0.00    +0.018 C 
ATOM     21  C   UNL     1      36.329 -20.998 -20.006  0.00  0.00    +0.113 C 
ATOM     22  C   UNL     1      32.728 -20.918 -20.262  0.00  0.00    +0.062 C 
ATOM     23  H   UNL     1      34.129 -20.161 -21.623  0.00  0.00    +0.152 HD
ENDBRANCH   8  16
BRANCH   5  24
ATOM     24  C   UNL     1      35.598 -24.440 -13.583  0.00  0.00    +0.105 C 
ATOM     25  C   UNL     1      36.205 -23.536 -12.559  0.00  0.00    +0.020 C 
ATOM     26  C   UNL     1      35.124 -24.502 -12.167  0.00  0.00    +0.020 C 
BRANCH  24  27
ATOM     27  S   UNL     1      36.665 -25.813 -14.025  0.00  0.00    -0.007 S 
ATOM     28  O   UNL     1      36.985 -26.551 -12.796  0.00  0.00    -0.156 OA
ATOM     29  C   UNL     1      38.194 -25.038 -14.536  0.00  0.00    +0.097 C 
BRANCH  27  30
ATOM     30  N   UNL     1      36.075 -26.477 -15.307  0.00  0.00    -0.183 NA
ATOM     31  H   UNL     1      35.100 -26.563 -15.412  0.00  0.00    +0.156 HD
ENDBRANCH  27  30
ENDBRANCH  24  27
ENDBRANCH   5  24
TORSDOF 4
ENDMDL
MODEL 5
REMARK VINA RESULT:      -8.1      1.948      5.541
REMARK  Name = 121596701
REMARK  4 active torsions:
REMARK  status: ('A' for Active; 'I' for Inactive)
REMARK    1  A    between atoms: C_5  and  C_24
REMARK    2  A    between atoms: C_8  and  C_16
REMARK    3  A    between atoms: C_24  and  S_27
REMARK    4  A    between atoms: S_27  and  N_29
REMARK                            x       y       z     vdW  Elec       q    Type
REMARK                         _______ _______ _______ _____ _____    ______ ____
ROOT
ATOM      1  O   UNL     1      27.947 -24.279 -15.015  0.00  0.00    -0.350 OA
ATOM      2  N   UNL     1      34.651 -23.137 -16.394  0.00  0.00    -0.347 NA
ATOM      3  N   UNL     1      30.669 -23.789 -15.523  0.00  0.00    -0.283 N 
ATOM      4  N   UNL     1      32.322 -22.921 -16.976  0.00  0.00    -0.329 NA
ATOM      5  C   UNL     1      34.272 -23.772 -15.266  0.00  0.00    +0.118 C 
ATOM      6  C   UNL     1      32.956 -24.016 -14.928  0.00  0.00    +0.132 C 
ATOM      7  C   UNL     1      32.015 -23.563 -15.830  0.00  0.00    +0.179 C 
ATOM      8  C   UNL     1      33.639 -22.745 -17.192  0.00  0.00    +0.140 C 
ATOM      9  C   UNL     1      30.215 -25.160 -15.214  0.00  0.00    +0.104 C 
ATOM     10  C   UNL     1      29.645 -22.849 -15.996  0.00  0.00    +0.125 C 
ATOM     11  C   UNL     1      28.932 -25.093 -14.378  0.00  0.00    +0.162 C 
ATOM     12  C   UNL     1      28.405 -22.932 -15.114  0.00  0.00    +0.164 C 
ATOM     13  C   UNL     1      29.992 -25.950 -16.509  0.00  0.00    +0.024 C 
ENDROOT
BRANCH   8  16
ATOM     14  N   UNL     1      33.374 -21.073 -20.538  0.00  0.00    -0.240 NA
ATOM     15  N   UNL     1      36.996 -20.829 -19.868  0.00  0.00    -0.310 N 
ATOM     16  C   UNL     1      34.005 -22.063 -18.407  0.00  0.00    +0.106 C 
ATOM     17  C   UNL     1      35.338 -21.715 -18.664  0.00  0.00    +0.029 C 
ATOM     18  C   UNL     1      33.082 -21.713 -19.383  0.00  0.00    +0.111 C 
ATOM     19  C   UNL     1      35.640 -21.055 -19.857  0.00  0.00    +0.069 C 
ATOM     20  C   UNL     1      36.564 -21.878 -17.959  0.00  0.00    +0.018 C 
ATOM     21  C   UNL     1      34.661 -20.736 -20.789  0.00  0.00    +0.113 C 
ATOM     22  C   UNL     1      37.564 -21.324 -18.724  0.00  0.00    +0.062 C 
ATOM     23  H   UNL     1      37.487 -20.378 -20.592  0.00  0.00    +0.152 HD
ENDBRANCH   8  16
BRANCH   5  24
ATOM     24  C   UNL     1      35.352 -24.230 -14.344  0.00  0.00    +0.105 C 
ATOM     25  C   UNL     1      35.932 -23.301 -13.326  0.00  0.00    +0.020 C 
ATOM     26  C   UNL     1      35.072 -24.452 -12.892  0.00  0.00    +0.020 C 
BRANCH  24  27
ATOM     27  S   UNL     1      36.557 -25.381 -15.008  0.00  0.00    -0.007 S 
ATOM     28  O   UNL     1      35.831 -26.410 -15.766  0.00  0.00    -0.156 OA
ATOM     29  C   UNL     1      37.214 -26.214 -13.569  0.00  0.00    +0.097 C 
BRANCH  27  30
ATOM     30  N   UNL     1      37.737 -24.545 -15.592  0.00  0.00    -0.183 NA
ATOM     31  H   UNL     1      37.580 -23.932 -16.346  0.00  0.00    +0.156 HD
ENDBRANCH  27  30
ENDBRANCH  24  27
ENDBRANCH   5  24
TORSDOF 4
ENDMDL
MODEL 6
REMARK VINA RESULT:      -8.0      1.643      4.845
REMARK  Name = 121596701
REMARK  4 active torsions:
REMARK  status: ('A' for Active; 'I' for Inactive)
REMARK    1  A    between atoms: C_5  and  C_24
REMARK    2  A    between atoms: C_8  and  C_16
REMARK    3  A    between atoms: C_24  and  S_27
REMARK    4  A    between atoms: S_27  and  N_29
REMARK                            x       y       z     vdW  Elec       q    Type
REMARK                         _______ _______ _______ _____ _____    ______ ____
ROOT
ATOM      1  O   UNL     1      29.572 -23.730 -13.793  0.00  0.00    -0.350 OA
ATOM      2  N   UNL     1      36.157 -23.694 -15.978  0.00  0.00    -0.347 NA
ATOM      3  N   UNL     1      32.257 -23.699 -14.625  0.00  0.00    -0.283 N 
ATOM      4  N   UNL     1      33.879 -22.932 -16.168  0.00  0.00    -0.329 NA
ATOM      5  C   UNL     1      35.784 -24.428 -14.909  0.00  0.00    +0.118 C 
ATOM      6  C   UNL     1      34.494 -24.465 -14.418  0.00  0.00    +0.132 C 
ATOM      7  C   UNL     1      33.575 -23.690 -15.094  0.00  0.00    +0.179 C 
ATOM      8  C   UNL     1      35.169 -22.981 -16.551  0.00  0.00    +0.140 C 
ATOM      9  C   UNL     1      31.556 -24.988 -14.453  0.00  0.00    +0.104 C 
ATOM     10  C   UNL     1      31.413 -22.510 -14.799  0.00  0.00    +0.125 C 
ATOM     11  C   UNL     1      30.424 -24.817 -13.434  0.00  0.00    +0.162 C 
ATOM     12  C   UNL     1      30.295 -22.501 -13.763  0.00  0.00    +0.164 C 
ATOM     13  C   UNL     1      31.020 -25.483 -15.801  0.00  0.00    +0.024 C 
ENDROOT
BRANCH   8  16
ATOM     14  N   UNL     1      37.210 -20.974 -18.973  0.00  0.00    -0.240 NA
ATOM     15  N   UNL     1      33.866 -20.847 -20.532  0.00  0.00    -0.310 N 
ATOM     16  C   UNL     1      35.530 -22.184 -17.695  0.00  0.00    +0.106 C 
ATOM     17  C   UNL     1      34.573 -21.829 -18.656  0.00  0.00    +0.029 C 
ATOM     18  C   UNL     1      36.821 -21.724 -17.916  0.00  0.00    +0.111 C 
ATOM     19  C   UNL     1      34.976 -21.055 -19.746  0.00  0.00    +0.069 C 
ATOM     20  C   UNL     1      33.181 -22.078 -18.815  0.00  0.00    +0.018 C 
ATOM     21  C   UNL     1      36.288 -20.630 -19.902  0.00  0.00    +0.113 C 
ATOM     22  C   UNL     1      32.776 -21.462 -19.976  0.00  0.00    +0.062 C 
ATOM     23  H   UNL     1      33.857 -20.331 -21.369  0.00  0.00    +0.152 HD
ENDBRANCH   8  16
BRANCH   5  24
ATOM     24  C   UNL     1      36.838 -25.240 -14.236  0.00  0.00    +0.105 C 
ATOM     25  C   UNL     1      36.905 -26.721 -14.435  0.00  0.00    +0.020 C 
ATOM     26  C   UNL     1      37.963 -25.832 -15.022  0.00  0.00    +0.020 C 
BRANCH  24  27
ATOM     27  S   UNL     1      37.328 -24.733 -12.586  0.00  0.00    -0.007 S 
ATOM     28  O   UNL     1      38.101 -25.829 -11.986  0.00  0.00    -0.156 OA
ATOM     29  C   UNL     1      35.794 -24.664 -11.670  0.00  0.00    +0.097 C 
BRANCH  27  30
ATOM     30  N   UNL     1      37.837 -23.261 -12.676  0.00  0.00    -0.183 NA
ATOM     31  H   UNL     1      37.205 -22.534 -12.878  0.00  0.00    +0.156 HD
ENDBRANCH  27  30
ENDBRANCH  24  27
ENDBRANCH   5  24
TORSDOF 4
ENDMDL
MODEL 7
REMARK VINA RESULT:      -7.8      2.482      6.159
REMARK  Name = 121596701
REMARK  4 active torsions:
REMARK  status: ('A' for Active; 'I' for Inactive)
REMARK    1  A    between atoms: C_5  and  C_24
REMARK    2  A    between atoms: C_8  and  C_16
REMARK    3  A    between atoms: C_24  and  S_27
REMARK    4  A    between atoms: S_27  and  N_29
REMARK                            x       y       z     vdW  Elec       q    Type
REMARK                         _______ _______ _______ _____ _____    ______ ____
ROOT
ATOM      1  O   UNL     1      35.059 -21.553 -20.363  0.00  0.00    -0.350 OA
ATOM      2  N   UNL     1      33.116 -24.254 -14.274  0.00  0.00    -0.347 NA
ATOM      3  N   UNL     1      34.249 -22.597 -17.882  0.00  0.00    -0.283 N 
ATOM      4  N   UNL     1      34.832 -23.712 -15.878  0.00  0.00    -0.329 NA
ATOM      5  C   UNL     1      32.215 -23.688 -15.103  0.00  0.00    +0.118 C 
ATOM      6  C   UNL     1      32.540 -23.122 -16.319  0.00  0.00    +0.132 C 
ATOM      7  C   UNL     1      33.877 -23.163 -16.657  0.00  0.00    +0.179 C 
ATOM      8  C   UNL     1      34.388 -24.232 -14.718  0.00  0.00    +0.140 C 
ATOM      9  C   UNL     1      33.568 -23.032 -19.119  0.00  0.00    +0.104 C 
ATOM     10  C   UNL     1      35.585 -22.008 -18.038  0.00  0.00    +0.125 C 
ATOM     11  C   UNL     1      33.695 -21.933 -20.180  0.00  0.00    +0.162 C 
ATOM     12  C   UNL     1      35.581 -20.982 -19.165  0.00  0.00    +0.164 C 
ATOM     13  C   UNL     1      34.165 -24.354 -19.614  0.00  0.00    +0.024 C 
ENDROOT
BRANCH   8  16
ATOM     14  N   UNL     1      36.409 -25.044 -11.666  0.00  0.00    -0.240 NA
ATOM     15  N   UNL     1      37.998 -27.199 -14.207  0.00  0.00    -0.310 N 
ATOM     16  C   UNL     1      35.379 -24.827 -13.860  0.00  0.00    +0.106 C 
ATOM     17  C   UNL     1      36.291 -25.768 -14.358  0.00  0.00    +0.029 C 
ATOM     18  C   UNL     1      35.496 -24.514 -12.512  0.00  0.00    +0.111 C 
ATOM     19  C   UNL     1      37.233 -26.314 -13.483  0.00  0.00    +0.069 C 
ATOM     20  C   UNL     1      36.519 -26.355 -15.633  0.00  0.00    +0.018 C 
ATOM     21  C   UNL     1      37.290 -25.953 -12.144  0.00  0.00    +0.113 C 
ATOM     22  C   UNL     1      37.574 -27.230 -15.509  0.00  0.00    +0.062 C 
ATOM     23  H   UNL     1      38.742 -27.730 -13.843  0.00  0.00    +0.152 HD
ENDBRANCH   8  16
BRANCH   5  24
ATOM     24  C   UNL     1      30.789 -23.686 -14.663  0.00  0.00    +0.105 C 
ATOM     25  C   UNL     1      30.429 -23.378 -13.244  0.00  0.00    +0.020 C 
ATOM     26  C   UNL     1      30.094 -22.403 -14.336  0.00  0.00    +0.020 C 
BRANCH  24  27
ATOM     27  S   UNL     1      29.702 -24.900 -15.413  0.00  0.00    -0.007 S 
ATOM     28  O   UNL     1      30.521 -25.780 -16.258  0.00  0.00    -0.156 OA
ATOM     29  C   UNL     1      28.689 -23.951 -16.541  0.00  0.00    +0.097 C 
BRANCH  27  30
ATOM     30  N   UNL     1      28.734 -25.416 -14.304  0.00  0.00    -0.183 NA
ATOM     31  H   UNL     1      27.936 -24.892 -14.064  0.00  0.00    +0.156 HD
ENDBRANCH  27  30
ENDBRANCH  24  27
ENDBRANCH   5  24
TORSDOF 4
ENDMDL
