MODEL 1
REMARK VINA RESULT:      -9.0      0.000      0.000
REMARK  Name = 24875489
REMARK  12 active torsions:
REMARK  status: ('A' for Active; 'I' for Inactive)
REMARK    1  A    between atoms: C_2  and  O_3
REMARK    2  A    between atoms: C_2  and  C_14
REMARK    3  A    between atoms: O_3  and  C_4
REMARK    4  A    between atoms: C_7  and  C_11
REMARK    5  A    between atoms: C_11  and  O_12
REMARK    6  A    between atoms: C_14  and  C_15
REMARK    7  A    between atoms: C_15  and  C_16
REMARK    8  A    between atoms: C_16  and  C_17
REMARK    9  A    between atoms: C_17  and  C_18
REMARK   10  A    between atoms: C_18  and  C_19
REMARK   11  A    between atoms: C_19  and  C_22
REMARK   12  A    between atoms: N_21  and  O_24
REMARK                            x       y       z     vdW  Elec       q    Type
REMARK                         _______ _______ _______ _____ _____    ______ ____
ROOT
ATOM      1  O   UNL     1      31.616 -22.406 -17.475  0.00  0.00    -0.250 OA
ATOM      2  C   UNL     1      32.743 -22.879 -17.526  0.00  0.00    +0.321 C 
ENDROOT
BRANCH   2   3
ATOM      3  O   UNL     1      33.457 -23.199 -18.679  0.00  0.00    -0.424 OA
BRANCH   3   4
ATOM      4  C   UNL     1      33.968 -22.075 -19.333  0.00  0.00    +0.148 C 
ATOM      5  C   UNL     1      33.099 -21.152 -19.917  0.00  0.00    +0.038 C 
ATOM      6  C   UNL     1      35.347 -21.877 -19.406  0.00  0.00    +0.038 C 
ATOM      7  C   UNL     1      34.989 -19.834 -20.645  0.00  0.00    +0.076 C 
ATOM      8  C   UNL     1      33.610 -20.032 -20.572  0.00  0.00    +0.010 C 
ATOM      9  C   UNL     1      35.857 -20.757 -20.062  0.00  0.00    +0.010 C 
BRANCH   7  11
ATOM     10  O   UNL     1      35.989 -18.679 -22.475  0.00  0.00    -0.245 OA
ATOM     11  C   UNL     1      35.521 -18.666 -21.329  0.00  0.00    +0.341 C 
BRANCH  11  12
ATOM     12  O   UNL     1      35.438 -17.545 -20.550  0.00  0.00    -0.441 OA
ATOM     13  C   UNL     1      34.762 -16.415 -21.112  0.00  0.00    +0.256 C 
ENDBRANCH  11  12
ENDBRANCH   7  11
ENDBRANCH   3   4
ENDBRANCH   2   3
BRANCH   2  14
ATOM     14  C   UNL     1      33.588 -23.255 -16.327  0.00  0.00    +0.110 C 
BRANCH  14  15
ATOM     15  C   UNL     1      32.826 -23.154 -15.006  0.00  0.00    +0.012 C 
BRANCH  15  16
ATOM     16  C   UNL     1      32.641 -24.518 -14.335  0.00  0.00    +0.001 C 
BRANCH  16  17
ATOM     17  C   UNL     1      31.227 -24.673 -13.772  0.00  0.00    +0.001 C 
BRANCH  17  18
ATOM     18  C   UNL     1      30.216 -23.858 -14.583  0.00  0.00    +0.010 C 
BRANCH  18  19
ATOM     19  C   UNL     1      29.541 -24.688 -15.675  0.00  0.00    +0.087 C 
BRANCH  19  22
ATOM     20  O   UNL     1      27.811 -24.414 -17.346  0.00  0.00    -0.273 OA
ATOM     21  N   UNL     1      28.702 -22.542 -16.330  0.00  0.00    -0.197 N 
ATOM     22  C   UNL     1      28.578 -23.894 -16.541  0.00  0.00    +0.244 C 
ATOM     23  H   UNL     1      29.333 -22.171 -15.671  0.00  0.00    +0.182 HD
BRANCH  21  24
ATOM     24  O   UNL     1      27.875 -21.723 -17.110  0.00  0.00    -0.295 OA
ATOM     25  H   UNL     1      28.165 -21.758 -18.035  0.00  0.00    +0.241 HD
ENDBRANCH  21  24
ENDBRANCH  19  22
ENDBRANCH  18  19
ENDBRANCH  17  18
ENDBRANCH  16  17
ENDBRANCH  15  16
ENDBRANCH  14  15
ENDBRANCH   2  14
TORSDOF 12
ENDMDL
MODEL 2
REMARK VINA RESULT:      -8.8      3.928      5.653
REMARK  Name = 24875489
REMARK  12 active torsions:
REMARK  status: ('A' for Active; 'I' for Inactive)
REMARK    1  A    between atoms: C_2  and  O_3
REMARK    2  A    between atoms: C_2  and  C_14
REMARK    3  A    between atoms: O_3  and  C_4
REMARK    4  A    between atoms: C_7  and  C_11
REMARK    5  A    between atoms: C_11  and  O_12
REMARK    6  A    between atoms: C_14  and  C_15
REMARK    7  A    between atoms: C_15  and  C_16
REMARK    8  A    between atoms: C_16  and  C_17
REMARK    9  A    between atoms: C_17  and  C_18
REMARK   10  A    between atoms: C_18  and  C_19
REMARK   11  A    between atoms: C_19  and  C_22
REMARK   12  A    between atoms: N_21  and  O_24
REMARK                            x       y       z     vdW  Elec       q    Type
REMARK                         _______ _______ _______ _____ _____    ______ ____
ROOT
ATOM      1  O   UNL     1      32.002 -22.743 -17.322  0.00  0.00    -0.250 OA
ATOM      2  C   UNL     1      33.174 -23.025 -17.530  0.00  0.00    +0.321 C 
ENDROOT
BRANCH   2   3
ATOM      3  O   UNL     1      33.758 -23.282 -18.769  0.00  0.00    -0.424 OA
BRANCH   3   4
ATOM      4  C   UNL     1      34.166 -22.122 -19.432  0.00  0.00    +0.148 C 
ATOM      5  C   UNL     1      35.525 -21.845 -19.583  0.00  0.00    +0.038 C 
ATOM      6  C   UNL     1      33.214 -21.237 -19.939  0.00  0.00    +0.038 C 
ATOM      7  C   UNL     1      34.979 -19.801 -20.749  0.00  0.00    +0.076 C 
ATOM      8  C   UNL     1      35.931 -20.685 -20.242  0.00  0.00    +0.010 C 
ATOM      9  C   UNL     1      33.620 -20.077 -20.598  0.00  0.00    +0.010 C 
BRANCH   7  11
ATOM     10  O   UNL     1      35.657 -18.524 -22.645  0.00  0.00    -0.245 OA
ATOM     11  C   UNL     1      35.403 -18.591 -21.435  0.00  0.00    +0.341 C 
BRANCH  11  12
ATOM     12  O   UNL     1      35.486 -17.528 -20.577  0.00  0.00    -0.441 OA
ATOM     13  C   UNL     1      34.764 -16.347 -20.939  0.00  0.00    +0.256 C 
ENDBRANCH  11  12
ENDBRANCH   7  11
ENDBRANCH   3   4
ENDBRANCH   2   3
BRANCH   2  14
ATOM     14  C   UNL     1      34.235 -23.188 -16.463  0.00  0.00    +0.110 C 
BRANCH  14  15
ATOM     15  C   UNL     1      33.731 -23.938 -15.230  0.00  0.00    +0.012 C 
BRANCH  15  16
ATOM     16  C   UNL     1      34.867 -24.325 -14.280  0.00  0.00    +0.001 C 
BRANCH  16  17
ATOM     17  C   UNL     1      36.223 -24.286 -14.989  0.00  0.00    +0.001 C 
BRANCH  17  18
ATOM     18  C   UNL     1      37.327 -23.798 -14.046  0.00  0.00    +0.010 C 
BRANCH  18  19
ATOM     19  C   UNL     1      38.133 -24.951 -13.448  0.00  0.00    +0.087 C 
BRANCH  19  22
ATOM     20  O   UNL     1      38.483 -27.025 -14.646  0.00  0.00    -0.273 OA
ATOM     21  N   UNL     1      39.760 -25.181 -15.191  0.00  0.00    -0.197 N 
ATOM     22  C   UNL     1      38.784 -25.846 -14.488  0.00  0.00    +0.244 C 
ATOM     23  H   UNL     1      39.967 -24.232 -15.028  0.00  0.00    +0.182 HD
BRANCH  21  24
ATOM     24  O   UNL     1      40.444 -25.936 -16.153  0.00  0.00    -0.295 OA
ATOM     25  H   UNL     1      39.952 -26.752 -16.332  0.00  0.00    +0.241 HD
ENDBRANCH  21  24
ENDBRANCH  19  22
ENDBRANCH  18  19
ENDBRANCH  17  18
ENDBRANCH  16  17
ENDBRANCH  15  16
ENDBRANCH  14  15
ENDBRANCH   2  14
TORSDOF 12
ENDMDL
MODEL 3
REMARK VINA RESULT:      -8.7      4.134      9.130
REMARK  Name = 24875489
REMARK  12 active torsions:
REMARK  status: ('A' for Active; 'I' for Inactive)
REMARK    1  A    between atoms: C_2  and  O_3
REMARK    2  A    between atoms: C_2  and  C_14
REMARK    3  A    between atoms: O_3  and  C_4
REMARK    4  A    between atoms: C_7  and  C_11
REMARK    5  A    between atoms: C_11  and  O_12
REMARK    6  A    between atoms: C_14  and  C_15
REMARK    7  A    between atoms: C_15  and  C_16
REMARK    8  A    between atoms: C_16  and  C_17
REMARK    9  A    between atoms: C_17  and  C_18
REMARK   10  A    between atoms: C_18  and  C_19
REMARK   11  A    between atoms: C_19  and  C_22
REMARK   12  A    between atoms: N_21  and  O_24
REMARK                            x       y       z     vdW  Elec       q    Type
REMARK                         _______ _______ _______ _____ _____    ______ ____
ROOT
ATOM      1  O   UNL     1      36.032 -17.675 -22.758  0.00  0.00    -0.250 OA
ATOM      2  C   UNL     1      35.066 -17.857 -22.030  0.00  0.00    +0.321 C 
ENDROOT
BRANCH   2   3
ATOM      3  O   UNL     1      34.120 -18.873 -22.146  0.00  0.00    -0.424 OA
BRANCH   3   4
ATOM      4  C   UNL     1      34.217 -19.827 -21.129  0.00  0.00    +0.148 C 
ATOM      5  C   UNL     1      35.463 -20.341 -20.771  0.00  0.00    +0.038 C 
ATOM      6  C   UNL     1      33.067 -20.268 -20.475  0.00  0.00    +0.038 C 
ATOM      7  C   UNL     1      34.409 -21.736 -19.104  0.00  0.00    +0.076 C 
ATOM      8  C   UNL     1      35.559 -21.295 -19.758  0.00  0.00    +0.010 C 
ATOM      9  C   UNL     1      33.162 -21.221 -19.462  0.00  0.00    +0.010 C 
BRANCH   7  11
ATOM     10  O   UNL     1      33.673 -23.621 -17.843  0.00  0.00    -0.245 OA
ATOM     11  C   UNL     1      34.509 -22.731 -18.048  0.00  0.00    +0.341 C 
BRANCH  11  12
ATOM     12  O   UNL     1      35.647 -22.565 -17.307  0.00  0.00    -0.441 OA
ATOM     13  C   UNL     1      35.615 -23.043 -15.958  0.00  0.00    +0.256 C 
ENDBRANCH  11  12
ENDBRANCH   7  11
ENDBRANCH   3   4
ENDBRANCH   2   3
BRANCH   2  14
ATOM     14  C   UNL     1      34.676 -16.978 -20.861  0.00  0.00    +0.110 C 
BRANCH  14  15
ATOM     15  C   UNL     1      34.458 -15.518 -21.258  0.00  0.00    +0.012 C 
BRANCH  15  16
ATOM     16  C   UNL     1      32.985 -15.107 -21.176  0.00  0.00    +0.001 C 
BRANCH  16  17
ATOM     17  C   UNL     1      32.626 -14.108 -22.278  0.00  0.00    +0.001 C 
BRANCH  17  18
ATOM     18  C   UNL     1      33.678 -14.109 -23.391  0.00  0.00    +0.010 C 
BRANCH  18  19
ATOM     19  C   UNL     1      33.052 -14.151 -24.784  0.00  0.00    +0.087 C 
BRANCH  19  22
ATOM     20  O   UNL     1      33.244 -15.448 -26.820  0.00  0.00    -0.273 OA
ATOM     21  N   UNL     1      34.238 -16.230 -24.888  0.00  0.00    -0.197 N 
ATOM     22  C   UNL     1      33.516 -15.325 -25.629  0.00  0.00    +0.244 C 
ATOM     23  H   UNL     1      34.431 -16.088 -23.933  0.00  0.00    +0.182 HD
BRANCH  21  24
ATOM     24  O   UNL     1      34.682 -17.368 -25.575  0.00  0.00    -0.295 OA
ATOM     25  H   UNL     1      35.483 -17.150 -26.077  0.00  0.00    +0.241 HD
ENDBRANCH  21  24
ENDBRANCH  19  22
ENDBRANCH  18  19
ENDBRANCH  17  18
ENDBRANCH  16  17
ENDBRANCH  15  16
ENDBRANCH  14  15
ENDBRANCH   2  14
TORSDOF 12
ENDMDL
MODEL 4
REMARK VINA RESULT:      -8.7      5.070     10.041
REMARK  Name = 24875489
REMARK  12 active torsions:
REMARK  status: ('A' for Active; 'I' for Inactive)
REMARK    1  A    between atoms: C_2  and  O_3
REMARK    2  A    between atoms: C_2  and  C_14
REMARK    3  A    between atoms: O_3  and  C_4
REMARK    4  A    between atoms: C_7  and  C_11
REMARK    5  A    between atoms: C_11  and  O_12
REMARK    6  A    between atoms: C_14  and  C_15
REMARK    7  A    between atoms: C_15  and  C_16
REMARK    8  A    between atoms: C_16  and  C_17
REMARK    9  A    between atoms: C_17  and  C_18
REMARK   10  A    between atoms: C_18  and  C_19
REMARK   11  A    between atoms: C_19  and  C_22
REMARK   12  A    between atoms: N_21  and  O_24
REMARK                            x       y       z     vdW  Elec       q    Type
REMARK                         _______ _______ _______ _____ _____    ______ ____
ROOT
ATOM      1  O   UNL     1      34.954 -15.926 -20.470  0.00  0.00    -0.250 OA
ATOM      2  C   UNL     1      34.913 -16.346 -21.619  0.00  0.00    +0.321 C 
ENDROOT
BRANCH   2   3
ATOM      3  O   UNL     1      35.520 -17.504 -22.102  0.00  0.00    -0.424 OA
BRANCH   3   4
ATOM      4  C   UNL     1      35.178 -18.644 -21.371  0.00  0.00    +0.148 C 
ATOM      5  C   UNL     1      36.176 -19.418 -20.777  0.00  0.00    +0.038 C 
ATOM      6  C   UNL     1      33.839 -19.011 -21.238  0.00  0.00    +0.038 C 
ATOM      7  C   UNL     1      34.495 -20.925 -19.917  0.00  0.00    +0.076 C 
ATOM      8  C   UNL     1      35.834 -20.558 -20.050  0.00  0.00    +0.010 C 
ATOM      9  C   UNL     1      33.497 -20.151 -20.510  0.00  0.00    +0.010 C 
BRANCH   7  11
ATOM     10  O   UNL     1      33.008 -22.618 -19.138  0.00  0.00    -0.245 OA
ATOM     11  C   UNL     1      34.139 -22.114 -19.159  0.00  0.00    +0.341 C 
BRANCH  11  12
ATOM     12  O   UNL     1      35.211 -22.612 -18.471  0.00  0.00    -0.441 OA
ATOM     13  C   UNL     1      35.081 -22.705 -17.049  0.00  0.00    +0.256 C 
ENDBRANCH  11  12
ENDBRANCH   7  11
ENDBRANCH   3   4
ENDBRANCH   2   3
BRANCH   2  14
ATOM     14  C   UNL     1      34.214 -15.661 -22.774  0.00  0.00    +0.110 C 
BRANCH  14  15
ATOM     15  C   UNL     1      33.912 -14.188 -22.500  0.00  0.00    +0.012 C 
BRANCH  15  16
ATOM     16  C   UNL     1      32.446 -13.954 -22.126  0.00  0.00    +0.001 C 
BRANCH  16  17
ATOM     17  C   UNL     1      32.324 -13.069 -20.884  0.00  0.00    +0.001 C 
BRANCH  17  18
ATOM     18  C   UNL     1      31.361 -11.903 -21.128  0.00  0.00    +0.010 C 
BRANCH  18  19
ATOM     19  C   UNL     1      31.419 -10.858 -20.014  0.00  0.00    +0.087 C 
BRANCH  19  22
ATOM     20  O   UNL     1      31.929  -9.124 -21.625  0.00  0.00    -0.273 OA
ATOM     21  N   UNL     1      32.538  -8.825 -19.418  0.00  0.00    -0.197 N 
ATOM     22  C   UNL     1      31.969  -9.515 -20.462  0.00  0.00    +0.244 C 
ATOM     23  H   UNL     1      32.546  -9.181 -18.500  0.00  0.00    +0.182 HD
BRANCH  21  24
ATOM     24  O   UNL     1      33.105  -7.585 -19.741  0.00  0.00    -0.295 OA
ATOM     25  H   UNL     1      33.987  -7.521 -19.344  0.00  0.00    +0.241 HD
ENDBRANCH  21  24
ENDBRANCH  19  22
ENDBRANCH  18  19
ENDBRANCH  17  18
ENDBRANCH  16  17
ENDBRANCH  15  16
ENDBRANCH  14  15
ENDBRANCH   2  14
TORSDOF 12
ENDMDL
MODEL 5
REMARK VINA RESULT:      -8.7      3.535      5.086
REMARK  Name = 24875489
REMARK  12 active torsions:
REMARK  status: ('A' for Active; 'I' for Inactive)
REMARK    1  A    between atoms: C_2  and  O_3
REMARK    2  A    between atoms: C_2  and  C_14
REMARK    3  A    between atoms: O_3  and  C_4
REMARK    4  A    between atoms: C_7  and  C_11
REMARK    5  A    between atoms: C_11  and  O_12
REMARK    6  A    between atoms: C_14  and  C_15
REMARK    7  A    between atoms: C_15  and  C_16
REMARK    8  A    between atoms: C_16  and  C_17
REMARK    9  A    between atoms: C_17  and  C_18
REMARK   10  A    between atoms: C_18  and  C_19
REMARK   11  A    between atoms: C_19  and  C_22
REMARK   12  A    between atoms: N_21  and  O_24
REMARK                            x       y       z     vdW  Elec       q    Type
REMARK                         _______ _______ _______ _____ _____    ______ ____
ROOT
ATOM      1  O   UNL     1      32.622 -23.171 -16.818  0.00  0.00    -0.250 OA
ATOM      2  C   UNL     1      33.749 -23.103 -17.288  0.00  0.00    +0.321 C 
ENDROOT
BRANCH   2   3
ATOM      3  O   UNL     1      34.111 -23.330 -18.614  0.00  0.00    -0.424 OA
BRANCH   3   4
ATOM      4  C   UNL     1      34.373 -22.152 -19.318  0.00  0.00    +0.148 C 
ATOM      5  C   UNL     1      33.317 -21.355 -19.762  0.00  0.00    +0.038 C 
ATOM      6  C   UNL     1      35.690 -21.775 -19.581  0.00  0.00    +0.038 C 
ATOM      7  C   UNL     1      34.896 -19.804 -20.730  0.00  0.00    +0.076 C 
ATOM      8  C   UNL     1      33.579 -20.181 -20.467  0.00  0.00    +0.010 C 
ATOM      9  C   UNL     1      35.952 -20.601 -20.286  0.00  0.00    +0.010 C 
BRANCH   7  11
ATOM     10  O   UNL     1      35.254 -18.508 -22.699  0.00  0.00    -0.245 OA
ATOM     11  C   UNL     1      35.169 -18.579 -21.466  0.00  0.00    +0.341 C 
BRANCH  11  12
ATOM     12  O   UNL     1      35.319 -17.510 -20.626  0.00  0.00    -0.441 OA
ATOM     13  C   UNL     1      34.508 -16.361 -20.891  0.00  0.00    +0.256 C 
ENDBRANCH  11  12
ENDBRANCH   7  11
ENDBRANCH   3   4
ENDBRANCH   2   3
BRANCH   2  14
ATOM     14  C   UNL     1      35.005 -22.787 -16.503  0.00  0.00    +0.110 C 
BRANCH  14  15
ATOM     15  C   UNL     1      35.041 -23.471 -15.136  0.00  0.00    +0.012 C 
BRANCH  15  16
ATOM     16  C   UNL     1      36.364 -23.234 -14.402  0.00  0.00    +0.001 C 
BRANCH  16  17
ATOM     17  C   UNL     1      36.296 -23.739 -12.958  0.00  0.00    +0.001 C 
BRANCH  17  18
ATOM     18  C   UNL     1      37.439 -24.713 -12.659  0.00  0.00    +0.010 C 
BRANCH  18  19
ATOM     19  C   UNL     1      37.063 -26.162 -12.965  0.00  0.00    +0.087 C 
BRANCH  19  22
ATOM     20  O   UNL     1      38.720 -26.749 -14.630  0.00  0.00    -0.273 OA
ATOM     21  N   UNL     1      36.480 -26.905 -15.167  0.00  0.00    -0.197 N 
ATOM     22  C   UNL     1      37.536 -26.643 -14.326  0.00  0.00    +0.244 C 
ATOM     23  H   UNL     1      35.544 -26.805 -14.877  0.00  0.00    +0.182 HD
BRANCH  21  24
ATOM     24  O   UNL     1      36.818 -27.323 -16.461  0.00  0.00    -0.295 OA
ATOM     25  H   UNL     1      36.798 -26.562 -17.061  0.00  0.00    +0.241 HD
ENDBRANCH  21  24
ENDBRANCH  19  22
ENDBRANCH  18  19
ENDBRANCH  17  18
ENDBRANCH  16  17
ENDBRANCH  15  16
ENDBRANCH  14  15
ENDBRANCH   2  14
TORSDOF 12
ENDMDL
MODEL 6
REMARK VINA RESULT:      -8.5      4.339      9.769
REMARK  Name = 24875489
REMARK  12 active torsions:
REMARK  status: ('A' for Active; 'I' for Inactive)
REMARK    1  A    between atoms: C_2  and  O_3
REMARK    2  A    between atoms: C_2  and  C_14
REMARK    3  A    between atoms: O_3  and  C_4
REMARK    4  A    between atoms: C_7  and  C_11
REMARK    5  A    between atoms: C_11  and  O_12
REMARK    6  A    between atoms: C_14  and  C_15
REMARK    7  A    between atoms: C_15  and  C_16
REMARK    8  A    between atoms: C_16  and  C_17
REMARK    9  A    between atoms: C_17  and  C_18
REMARK   10  A    between atoms: C_18  and  C_19
REMARK   11  A    between atoms: C_19  and  C_22
REMARK   12  A    between atoms: N_21  and  O_24
REMARK                            x       y       z     vdW  Elec       q    Type
REMARK                         _______ _______ _______ _____ _____    ______ ____
ROOT
ATOM      1  O   UNL     1      35.386 -17.144 -20.402  0.00  0.00    -0.250 OA
ATOM      2  C   UNL     1      35.362 -17.540 -21.559  0.00  0.00    +0.321 C 
ENDROOT
BRANCH   2   3
ATOM      3  O   UNL     1      35.522 -18.856 -21.990  0.00  0.00    -0.424 OA
BRANCH   3   4
ATOM      4  C   UNL     1      35.009 -19.791 -21.087  0.00  0.00    +0.148 C 
ATOM      5  C   UNL     1      33.631 -19.893 -20.894  0.00  0.00    +0.038 C 
ATOM      6  C   UNL     1      35.876 -20.620 -20.375  0.00  0.00    +0.038 C 
ATOM      7  C   UNL     1      33.987 -21.654 -19.279  0.00  0.00    +0.076 C 
ATOM      8  C   UNL     1      33.120 -20.824 -19.991  0.00  0.00    +0.010 C 
ATOM      9  C   UNL     1      35.365 -21.552 -19.472  0.00  0.00    +0.010 C 
BRANCH   7  11
ATOM     10  O   UNL     1      34.104 -23.561 -17.854  0.00  0.00    -0.245 OA
ATOM     11  C   UNL     1      33.454 -22.625 -18.337  0.00  0.00    +0.341 C 
BRANCH  11  12
ATOM     12  O   UNL     1      32.141 -22.374 -18.045  0.00  0.00    -0.441 OA
ATOM     13  C   UNL     1      31.641 -22.902 -16.812  0.00  0.00    +0.256 C 
ENDBRANCH  11  12
ENDBRANCH   7  11
ENDBRANCH   3   4
ENDBRANCH   2   3
BRANCH   2  14
ATOM     14  C   UNL     1      35.187 -16.661 -22.780  0.00  0.00    +0.110 C 
BRANCH  14  15
ATOM     15  C   UNL     1      34.700 -17.433 -24.006  0.00  0.00    +0.012 C 
BRANCH  15  16
ATOM     16  C   UNL     1      34.731 -16.583 -25.279  0.00  0.00    +0.001 C 
BRANCH  16  17
ATOM     17  C   UNL     1      33.378 -15.915 -25.534  0.00  0.00    +0.001 C 
BRANCH  17  18
ATOM     18  C   UNL     1      33.453 -14.404 -25.297  0.00  0.00    +0.010 C 
BRANCH  18  19
ATOM     19  C   UNL     1      32.990 -14.012 -23.894  0.00  0.00    +0.087 C 
BRANCH  19  22
ATOM     20  O   UNL     1      32.485 -11.912 -22.800  0.00  0.00    -0.273 OA
ATOM     21  N   UNL     1      34.275 -12.022 -24.254  0.00  0.00    -0.197 N 
ATOM     22  C   UNL     1      33.206 -12.544 -23.566  0.00  0.00    +0.244 C 
ATOM     23  H   UNL     1      34.825 -12.570 -24.860  0.00  0.00    +0.182 HD
BRANCH  21  24
ATOM     24  O   UNL     1      34.533 -10.661 -24.042  0.00  0.00    -0.295 OA
ATOM     25  H   UNL     1      33.744 -10.144 -24.264  0.00  0.00    +0.241 HD
ENDBRANCH  21  24
ENDBRANCH  19  22
ENDBRANCH  18  19
ENDBRANCH  17  18
ENDBRANCH  16  17
ENDBRANCH  15  16
ENDBRANCH  14  15
ENDBRANCH   2  14
TORSDOF 12
ENDMDL
MODEL 7
REMARK VINA RESULT:      -8.3      4.025      5.336
REMARK  Name = 24875489
REMARK  12 active torsions:
REMARK  status: ('A' for Active; 'I' for Inactive)
REMARK    1  A    between atoms: C_2  and  O_3
REMARK    2  A    between atoms: C_2  and  C_14
REMARK    3  A    between atoms: O_3  and  C_4
REMARK    4  A    between atoms: C_7  and  C_11
REMARK    5  A    between atoms: C_11  and  O_12
REMARK    6  A    between atoms: C_14  and  C_15
REMARK    7  A    between atoms: C_15  and  C_16
REMARK    8  A    between atoms: C_16  and  C_17
REMARK    9  A    between atoms: C_17  and  C_18
REMARK   10  A    between atoms: C_18  and  C_19
REMARK   11  A    between atoms: C_19  and  C_22
REMARK   12  A    between atoms: N_21  and  O_24
REMARK                            x       y       z     vdW  Elec       q    Type
REMARK                         _______ _______ _______ _____ _____    ______ ____
ROOT
ATOM      1  O   UNL     1      31.810 -22.820 -17.320  0.00  0.00    -0.250 OA
ATOM      2  C   UNL     1      32.977 -23.124 -17.110  0.00  0.00    +0.321 C 
ENDROOT
BRANCH   2   3
ATOM      3  O   UNL     1      33.947 -23.405 -18.070  0.00  0.00    -0.424 OA
BRANCH   3   4
ATOM      4  C   UNL     1      34.254 -22.304 -18.873  0.00  0.00    +0.148 C 
ATOM      5  C   UNL     1      33.230 -21.577 -19.482  0.00  0.00    +0.038 C 
ATOM      6  C   UNL     1      35.584 -21.934 -19.070  0.00  0.00    +0.038 C 
ATOM      7  C   UNL     1      34.869 -20.110 -20.483  0.00  0.00    +0.076 C 
ATOM      8  C   UNL     1      33.538 -20.480 -20.286  0.00  0.00    +0.010 C 
ATOM      9  C   UNL     1      35.892 -20.837 -19.874  0.00  0.00    +0.010 C 
BRANCH   7  11
ATOM     10  O   UNL     1      35.544 -17.860 -20.893  0.00  0.00    -0.245 OA
ATOM     11  C   UNL     1      35.189 -18.966 -21.322  0.00  0.00    +0.341 C 
BRANCH  11  12
ATOM     12  O   UNL     1      35.052 -19.263 -22.650  0.00  0.00    -0.441 OA
ATOM     13  C   UNL     1      35.316 -18.206 -23.579  0.00  0.00    +0.256 C 
ENDBRANCH  11  12
ENDBRANCH   7  11
ENDBRANCH   3   4
ENDBRANCH   2   3
BRANCH   2  14
ATOM     14  C   UNL     1      33.602 -23.295 -15.741  0.00  0.00    +0.110 C 
BRANCH  14  15
ATOM     15  C   UNL     1      35.099 -23.599 -15.804  0.00  0.00    +0.012 C 
BRANCH  15  16
ATOM     16  C   UNL     1      35.451 -24.929 -15.134  0.00  0.00    +0.001 C 
BRANCH  16  17
ATOM     17  C   UNL     1      36.963 -25.075 -14.949  0.00  0.00    +0.001 C 
BRANCH  17  18
ATOM     18  C   UNL     1      37.299 -26.278 -14.062  0.00  0.00    +0.010 C 
BRANCH  18  19
ATOM     19  C   UNL     1      38.069 -25.877 -12.804  0.00  0.00    +0.087 C 
BRANCH  19  22
ATOM     20  O   UNL     1      36.196 -25.216 -11.420  0.00  0.00    -0.273 OA
ATOM     21  N   UNL     1      37.972 -23.764 -11.679  0.00  0.00    -0.197 N 
ATOM     22  C   UNL     1      37.298 -24.944 -11.886  0.00  0.00    +0.244 C 
ATOM     23  H   UNL     1      38.856 -23.591 -12.076  0.00  0.00    +0.182 HD
BRANCH  21  24
ATOM     24  O   UNL     1      37.322 -22.823 -10.869  0.00  0.00    -0.295 OA
ATOM     25  H   UNL     1      36.507 -23.210 -10.515  0.00  0.00    +0.241 HD
ENDBRANCH  21  24
ENDBRANCH  19  22
ENDBRANCH  18  19
ENDBRANCH  17  18
ENDBRANCH  16  17
ENDBRANCH  15  16
ENDBRANCH  14  15
ENDBRANCH   2  14
TORSDOF 12
ENDMDL
MODEL 8
REMARK VINA RESULT:      -8.2      3.227      8.893
REMARK  Name = 24875489
REMARK  12 active torsions:
REMARK  status: ('A' for Active; 'I' for Inactive)
REMARK    1  A    between atoms: C_2  and  O_3
REMARK    2  A    between atoms: C_2  and  C_14
REMARK    3  A    between atoms: O_3  and  C_4
REMARK    4  A    between atoms: C_7  and  C_11
REMARK    5  A    between atoms: C_11  and  O_12
REMARK    6  A    between atoms: C_14  and  C_15
REMARK    7  A    between atoms: C_15  and  C_16
REMARK    8  A    between atoms: C_16  and  C_17
REMARK    9  A    between atoms: C_17  and  C_18
REMARK   10  A    between atoms: C_18  and  C_19
REMARK   11  A    between atoms: C_19  and  C_22
REMARK   12  A    between atoms: N_21  and  O_24
REMARK                            x       y       z     vdW  Elec       q    Type
REMARK                         _______ _______ _______ _____ _____    ______ ____
ROOT
ATOM      1  O   UNL     1      35.413 -19.699 -24.179  0.00  0.00    -0.250 OA
ATOM      2  C   UNL     1      34.844 -18.731 -23.695  0.00  0.00    +0.321 C 
ENDROOT
BRANCH   2   3
ATOM      3  O   UNL     1      34.919 -18.300 -22.372  0.00  0.00    -0.424 OA
BRANCH   3   4
ATOM      4  C   UNL     1      34.628 -19.310 -21.452  0.00  0.00    +0.148 C 
ATOM      5  C   UNL     1      33.305 -19.563 -21.089  0.00  0.00    +0.038 C 
ATOM      6  C   UNL     1      35.661 -20.063 -20.893  0.00  0.00    +0.038 C 
ATOM      7  C   UNL     1      34.048 -21.323 -19.610  0.00  0.00    +0.076 C 
ATOM      8  C   UNL     1      33.015 -20.570 -20.169  0.00  0.00    +0.010 C 
ATOM      9  C   UNL     1      35.371 -21.070 -19.972  0.00  0.00    +0.010 C 
BRANCH   7  11
ATOM     10  O   UNL     1      34.578 -23.168 -18.196  0.00  0.00    -0.245 OA
ATOM     11  C   UNL     1      33.745 -22.372 -18.649  0.00  0.00    +0.341 C 
BRANCH  11  12
ATOM     12  O   UNL     1      32.421 -22.372 -18.304  0.00  0.00    -0.441 OA
ATOM     13  C   UNL     1      32.088 -22.905 -17.018  0.00  0.00    +0.256 C 
ENDBRANCH  11  12
ENDBRANCH   7  11
ENDBRANCH   3   4
ENDBRANCH   2   3
BRANCH   2  14
ATOM     14  C   UNL     1      33.899 -17.811 -24.439  0.00  0.00    +0.110 C 
BRANCH  14  15
ATOM     15  C   UNL     1      34.569 -16.518 -24.905  0.00  0.00    +0.012 C 
BRANCH  15  16
ATOM     16  C   UNL     1      33.601 -15.600 -25.656  0.00  0.00    +0.001 C 
BRANCH  16  17
ATOM     17  C   UNL     1      33.517 -14.222 -24.995  0.00  0.00    +0.001 C 
BRANCH  17  18
ATOM     18  C   UNL     1      33.988 -14.278 -23.538  0.00  0.00    +0.010 C 
BRANCH  18  19
ATOM     19  C   UNL     1      32.836 -14.520 -22.563  0.00  0.00    +0.087 C 
BRANCH  19  22
ATOM     20  O   UNL     1      32.384 -15.897 -20.624  0.00  0.00    -0.273 OA
ATOM     21  N   UNL     1      34.574 -15.497 -21.236  0.00  0.00    -0.197 N 
ATOM     22  C   UNL     1      33.211 -15.388 -21.375  0.00  0.00    +0.244 C 
ATOM     23  H   UNL     1      35.200 -15.069 -21.865  0.00  0.00    +0.182 HD
BRANCH  21  24
ATOM     24  O   UNL     1      35.019 -16.254 -20.143  0.00  0.00    -0.295 OA
ATOM     25  H   UNL     1      34.419 -16.122 -19.393  0.00  0.00    +0.241 HD
ENDBRANCH  21  24
ENDBRANCH  19  22
ENDBRANCH  18  19
ENDBRANCH  17  18
ENDBRANCH  16  17
ENDBRANCH  15  16
ENDBRANCH  14  15
ENDBRANCH   2  14
TORSDOF 12
ENDMDL
MODEL 9
REMARK VINA RESULT:      -8.2      1.328      1.938
REMARK  Name = 24875489
REMARK  12 active torsions:
REMARK  status: ('A' for Active; 'I' for Inactive)
REMARK    1  A    between atoms: C_2  and  O_3
REMARK    2  A    between atoms: C_2  and  C_14
REMARK    3  A    between atoms: O_3  and  C_4
REMARK    4  A    between atoms: C_7  and  C_11
REMARK    5  A    between atoms: C_11  and  O_12
REMARK    6  A    between atoms: C_14  and  C_15
REMARK    7  A    between atoms: C_15  and  C_16
REMARK    8  A    between atoms: C_16  and  C_17
REMARK    9  A    between atoms: C_17  and  C_18
REMARK   10  A    between atoms: C_18  and  C_19
REMARK   11  A    between atoms: C_19  and  C_22
REMARK   12  A    between atoms: N_21  and  O_24
REMARK                            x       y       z     vdW  Elec       q    Type
REMARK                         _______ _______ _______ _____ _____    ______ ____
ROOT
ATOM      1  O   UNL     1      33.974 -23.977 -19.359  0.00  0.00    -0.250 OA
ATOM      2  C   UNL     1      33.484 -23.170 -18.582  0.00  0.00    +0.321 C 
ENDROOT
BRANCH   2   3
ATOM      3  O   UNL     1      32.765 -22.025 -18.919  0.00  0.00    -0.424 OA
BRANCH   3   4
ATOM      4  C   UNL     1      33.497 -21.135 -19.708  0.00  0.00    +0.148 C 
ATOM      5  C   UNL     1      34.890 -21.211 -19.739  0.00  0.00    +0.038 C 
ATOM      6  C   UNL     1      32.835 -20.167 -20.464  0.00  0.00    +0.038 C 
ATOM      7  C   UNL     1      34.958 -19.352 -21.281  0.00  0.00    +0.076 C 
ATOM      8  C   UNL     1      35.620 -20.320 -20.525  0.00  0.00    +0.010 C 
ATOM      9  C   UNL     1      33.565 -19.276 -21.250  0.00  0.00    +0.010 C 
BRANCH   7  11
ATOM     10  O   UNL     1      36.955 -18.356 -22.118  0.00  0.00    -0.245 OA
ATOM     11  C   UNL     1      35.719 -18.423 -22.100  0.00  0.00    +0.341 C 
BRANCH  11  12
ATOM     12  O   UNL     1      34.899 -17.628 -22.854  0.00  0.00    -0.441 OA
ATOM     13  C   UNL     1      34.962 -17.799 -24.274  0.00  0.00    +0.256 C 
ENDBRANCH  11  12
ENDBRANCH   7  11
ENDBRANCH   3   4
ENDBRANCH   2   3
BRANCH   2  14
ATOM     14  C   UNL     1      33.593 -23.234 -17.073  0.00  0.00    +0.110 C 
BRANCH  14  15
ATOM     15  C   UNL     1      32.232 -23.243 -16.377  0.00  0.00    +0.012 C 
BRANCH  15  16
ATOM     16  C   UNL     1      32.337 -23.631 -14.899  0.00  0.00    +0.001 C 
BRANCH  16  17
ATOM     17  C   UNL     1      31.105 -23.173 -14.116  0.00  0.00    +0.001 C 
BRANCH  17  18
ATOM     18  C   UNL     1      30.220 -24.362 -13.731  0.00  0.00    +0.010 C 
BRANCH  18  19
ATOM     19  C   UNL     1      29.547 -25.003 -14.944  0.00  0.00    +0.087 C 
BRANCH  19  22
ATOM     20  O   UNL     1      27.904 -23.230 -15.076  0.00  0.00    -0.273 OA
ATOM     21  N   UNL     1      28.486 -24.370 -16.997  0.00  0.00    -0.197 N 
ATOM     22  C   UNL     1      28.563 -24.089 -15.654  0.00  0.00    +0.244 C 
ATOM     23  H   UNL     1      29.036 -25.071 -17.417  0.00  0.00    +0.182 HD
BRANCH  21  24
ATOM     24  O   UNL     1      27.577 -23.598 -17.732  0.00  0.00    -0.295 OA
ATOM     25  H   UNL     1      26.735 -24.074 -17.806  0.00  0.00    +0.241 HD
ENDBRANCH  21  24
ENDBRANCH  19  22
ENDBRANCH  18  19
ENDBRANCH  17  18
ENDBRANCH  16  17
ENDBRANCH  15  16
ENDBRANCH  14  15
ENDBRANCH   2  14
TORSDOF 12
ENDMDL
