MODEL 1
REMARK VINA RESULT:     -10.0      0.000      0.000
REMARK  Name = 3792
REMARK  9 active torsions:
REMARK  status: ('A' for Active; 'I' for Inactive)
REMARK    1  A    between atoms: N_2  and  C_15
REMARK    2  A    between atoms: C_3  and  C_5
REMARK    3  A    between atoms: C_8  and  O_11
REMARK    4  A    between atoms: C_9  and  O_13
REMARK    5  A    between atoms: C_15  and  C_16
REMARK    6  A    between atoms: C_17  and  O_22
REMARK    7  A    between atoms: O_22  and  C_23
REMARK    8  A    between atoms: C_23  and  C_24
REMARK    9  A    between atoms: C_24  and  N_25
REMARK                            x       y       z     vdW  Elec       q    Type
REMARK                         _______ _______ _______ _____ _____    ______ ____
ROOT
ATOM      1  O   UNL     1      35.226 -16.346 -20.936  0.00  0.00    -0.270 OA
ATOM      2  N   UNL     1      35.706 -18.127 -22.343  0.00  0.00    -0.297 N 
ATOM      3  C   UNL     1      35.186 -16.875 -22.044  0.00  0.00    +0.246 C 
ATOM      4  H   UNL     1      35.624 -18.466 -23.264  0.00  0.00    +0.150 HD
ENDROOT
BRANCH   3   5
ATOM      5  C   UNL     1      34.519 -16.162 -23.165  0.00  0.00    +0.057 C 
ATOM      6  C   UNL     1      33.920 -14.923 -22.945  0.00  0.00    +0.045 C 
ATOM      7  C   UNL     1      34.493 -16.734 -24.437  0.00  0.00    +0.008 C 
ATOM      8  C   UNL     1      33.293 -14.255 -23.996  0.00  0.00    +0.173 C 
ATOM      9  C   UNL     1      33.266 -14.827 -25.269  0.00  0.00    +0.172 C 
ATOM     10  C   UNL     1      33.866 -16.066 -25.489  0.00  0.00    +0.040 C 
BRANCH   8  11
ATOM     11  O   UNL     1      32.711 -13.044 -23.770  0.00  0.00    -0.468 OA
ATOM     12  C   UNL     1      33.547 -11.893 -23.876  0.00  0.00    +0.253 C 
ENDBRANCH   8  11
BRANCH   9  13
ATOM     13  O   UNL     1      32.658 -14.182 -26.304  0.00  0.00    -0.468 OA
ATOM     14  C   UNL     1      33.500 -13.463 -27.203  0.00  0.00    +0.253 C 
ENDBRANCH   9  13
ENDBRANCH   3   5
BRANCH   2  15
ATOM     15  C   UNL     1      36.358 -18.951 -21.357  0.00  0.00    +0.117 C 
BRANCH  15  16
ATOM     16  C   UNL     1      35.409 -19.880 -20.678  0.00  0.00    -0.002 C 
ATOM     17  C   UNL     1      33.634 -21.620 -19.412  0.00  0.00    +0.138 C 
ATOM     18  C   UNL     1      35.896 -20.896 -19.856  0.00  0.00    +0.000 C 
ATOM     19  C   UNL     1      34.035 -19.734 -20.869  0.00  0.00    +0.000 C 
ATOM     20  C   UNL     1      35.008 -21.765 -19.221  0.00  0.00    +0.037 C 
ATOM     21  C   UNL     1      33.147 -20.604 -20.236  0.00  0.00    +0.037 C 
BRANCH  17  22
ATOM     22  O   UNL     1      32.761 -22.474 -18.789  0.00  0.00    -0.478 OA
BRANCH  22  23
ATOM     23  C   UNL     1      33.227 -23.121 -17.613  0.00  0.00    +0.183 C 
BRANCH  23  24
ATOM     24  C   UNL     1      32.093 -23.171 -16.601  0.00  0.00    -0.029 C 
BRANCH  24  25
ATOM     25  N   UNL     1      32.571 -23.680 -15.315  0.00  0.00    +0.387 N 
ATOM     26  C   UNL     1      33.986 -23.361 -15.134  0.00  0.00    -0.101 C 
ATOM     27  C   UNL     1      31.777 -23.125 -14.220  0.00  0.00    -0.101 C 
ATOM     28  H   UNL     1      32.465 -24.695 -15.310  0.00  0.00    -0.080 HD
ENDBRANCH  24  25
ENDBRANCH  23  24
ENDBRANCH  22  23
ENDBRANCH  17  22
ENDBRANCH  15  16
ENDBRANCH   2  15
TORSDOF 9
ENDMDL
MODEL 2
REMARK VINA RESULT:     -10.0      1.317      2.600
REMARK  Name = 3792
REMARK  9 active torsions:
REMARK  status: ('A' for Active; 'I' for Inactive)
REMARK    1  A    between atoms: N_2  and  C_15
REMARK    2  A    between atoms: C_3  and  C_5
REMARK    3  A    between atoms: C_8  and  O_11
REMARK    4  A    between atoms: C_9  and  O_13
REMARK    5  A    between atoms: C_15  and  C_16
REMARK    6  A    between atoms: C_17  and  O_22
REMARK    7  A    between atoms: O_22  and  C_23
REMARK    8  A    between atoms: C_23  and  C_24
REMARK    9  A    between atoms: C_24  and  N_25
REMARK                            x       y       z     vdW  Elec       q    Type
REMARK                         _______ _______ _______ _____ _____    ______ ____
ROOT
ATOM      1  O   UNL     1      35.347 -16.456 -20.067  0.00  0.00    -0.270 OA
ATOM      2  N   UNL     1      34.964 -17.453 -22.126  0.00  0.00    -0.297 N 
ATOM      3  C   UNL     1      34.839 -16.440 -21.186  0.00  0.00    +0.246 C 
ATOM      4  H   UNL     1      34.519 -17.348 -22.998  0.00  0.00    +0.150 HD
ENDROOT
BRANCH   3   5
ATOM      5  C   UNL     1      34.005 -15.277 -21.588  0.00  0.00    +0.057 C 
ATOM      6  C   UNL     1      34.084 -14.778 -22.888  0.00  0.00    +0.045 C 
ATOM      7  C   UNL     1      33.143 -14.685 -20.665  0.00  0.00    +0.008 C 
ATOM      8  C   UNL     1      33.303 -13.686 -23.265  0.00  0.00    +0.173 C 
ATOM      9  C   UNL     1      32.441 -13.094 -22.341  0.00  0.00    +0.172 C 
ATOM     10  C   UNL     1      32.362 -13.593 -21.042  0.00  0.00    +0.040 C 
BRANCH   8  11
ATOM     11  O   UNL     1      33.389 -13.208 -24.537  0.00  0.00    -0.468 OA
ATOM     12  C   UNL     1      33.061 -14.110 -25.593  0.00  0.00    +0.253 C 
ENDBRANCH   8  11
BRANCH   9  13
ATOM     13  O   UNL     1      31.671 -12.028 -22.698  0.00  0.00    -0.468 OA
ATOM     14  C   UNL     1      31.651 -10.916 -21.805  0.00  0.00    +0.253 C 
ENDBRANCH   9  13
ENDBRANCH   3   5
BRANCH   2  15
ATOM     15  C   UNL     1      35.719 -18.655 -21.875  0.00  0.00    +0.117 C 
BRANCH  15  16
ATOM     16  C   UNL     1      34.956 -19.641 -21.056  0.00  0.00    -0.002 C 
ATOM     17  C   UNL     1      33.530 -21.485 -19.523  0.00  0.00    +0.138 C 
ATOM     18  C   UNL     1      33.563 -19.590 -21.022  0.00  0.00    +0.000 C 
ATOM     19  C   UNL     1      35.637 -20.613 -20.323  0.00  0.00    +0.000 C 
ATOM     20  C   UNL     1      32.849 -20.513 -20.256  0.00  0.00    +0.037 C 
ATOM     21  C   UNL     1      34.925 -21.535 -19.557  0.00  0.00    +0.037 C 
BRANCH  17  22
ATOM     22  O   UNL     1      32.830 -22.391 -18.770  0.00  0.00    -0.478 OA
BRANCH  22  23
ATOM     23  C   UNL     1      33.561 -23.102 -17.779  0.00  0.00    +0.183 C 
BRANCH  23  24
ATOM     24  C   UNL     1      32.693 -23.243 -16.539  0.00  0.00    -0.029 C 
BRANCH  24  25
ATOM     25  N   UNL     1      33.512 -23.191 -15.328  0.00  0.00    +0.387 N 
ATOM     26  C   UNL     1      33.121 -24.253 -14.402  0.00  0.00    -0.101 C 
ATOM     27  C   UNL     1      34.930 -23.303 -15.666  0.00  0.00    -0.101 C 
ATOM     28  H   UNL     1      33.357 -22.291 -14.872  0.00  0.00    -0.080 HD
ENDBRANCH  24  25
ENDBRANCH  23  24
ENDBRANCH  22  23
ENDBRANCH  17  22
ENDBRANCH  15  16
ENDBRANCH   2  15
TORSDOF 9
ENDMDL
MODEL 3
REMARK VINA RESULT:      -9.7      1.336      2.519
REMARK  Name = 3792
REMARK  9 active torsions:
REMARK  status: ('A' for Active; 'I' for Inactive)
REMARK    1  A    between atoms: N_2  and  C_15
REMARK    2  A    between atoms: C_3  and  C_5
REMARK    3  A    between atoms: C_8  and  O_11
REMARK    4  A    between atoms: C_9  and  O_13
REMARK    5  A    between atoms: C_15  and  C_16
REMARK    6  A    between atoms: C_17  and  O_22
REMARK    7  A    between atoms: O_22  and  C_23
REMARK    8  A    between atoms: C_23  and  C_24
REMARK    9  A    between atoms: C_24  and  N_25
REMARK                            x       y       z     vdW  Elec       q    Type
REMARK                         _______ _______ _______ _____ _____    ______ ____
ROOT
ATOM      1  O   UNL     1      35.448 -17.844 -23.488  0.00  0.00    -0.270 OA
ATOM      2  N   UNL     1      35.432 -17.816 -21.169  0.00  0.00    -0.297 N 
ATOM      3  C   UNL     1      35.113 -17.323 -22.427  0.00  0.00    +0.246 C 
ATOM      4  H   UNL     1      35.116 -17.325 -20.375  0.00  0.00    +0.150 HD
ENDROOT
BRANCH   3   5
ATOM      5  C   UNL     1      34.328 -16.061 -22.453  0.00  0.00    +0.057 C 
ATOM      6  C   UNL     1      34.016 -15.459 -23.671  0.00  0.00    +0.045 C 
ATOM      7  C   UNL     1      33.905 -15.478 -21.258  0.00  0.00    +0.008 C 
ATOM      8  C   UNL     1      33.281 -14.274 -23.696  0.00  0.00    +0.173 C 
ATOM      9  C   UNL     1      32.858 -13.691 -22.501  0.00  0.00    +0.172 C 
ATOM     10  C   UNL     1      33.171 -14.293 -21.282  0.00  0.00    +0.040 C 
BRANCH   8  11
ATOM     11  O   UNL     1      32.982 -13.696 -24.892  0.00  0.00    -0.468 OA
ATOM     12  C   UNL     1      32.920 -14.554 -26.030  0.00  0.00    +0.253 C 
ENDBRANCH   8  11
BRANCH   9  13
ATOM     13  O   UNL     1      32.138 -12.535 -22.512  0.00  0.00    -0.468 OA
ATOM     14  C   UNL     1      31.605 -12.092 -21.265  0.00  0.00    +0.253 C 
ENDBRANCH   9  13
ENDBRANCH   3   5
BRANCH   2  15
ATOM     15  C   UNL     1      36.209 -19.014 -20.979  0.00  0.00    +0.117 C 
BRANCH  15  16
ATOM     16  C   UNL     1      35.420 -20.104 -20.334  0.00  0.00    -0.002 C 
ATOM     17  C   UNL     1      33.944 -22.139 -19.126  0.00  0.00    +0.138 C 
ATOM     18  C   UNL     1      34.035 -20.150 -20.493  0.00  0.00    +0.000 C 
ATOM     19  C   UNL     1      36.067 -21.075 -19.571  0.00  0.00    +0.000 C 
ATOM     20  C   UNL     1      33.297 -21.168 -19.890  0.00  0.00    +0.037 C 
ATOM     21  C   UNL     1      35.330 -22.093 -18.967  0.00  0.00    +0.037 C 
BRANCH  17  22
ATOM     22  O   UNL     1      33.220 -23.140 -18.532  0.00  0.00    -0.478 OA
BRANCH  22  23
ATOM     23  C   UNL     1      33.235 -23.186 -17.111  0.00  0.00    +0.183 C 
BRANCH  23  24
ATOM     24  C   UNL     1      31.805 -23.098 -16.604  0.00  0.00    -0.029 C 
BRANCH  24  25
ATOM     25  N   UNL     1      31.646 -23.868 -15.370  0.00  0.00    +0.387 N 
ATOM     26  C   UNL     1      31.770 -22.994 -14.204  0.00  0.00    -0.101 C 
ATOM     27  C   UNL     1      30.356 -24.555 -15.360  0.00  0.00    -0.101 C 
ATOM     28  H   UNL     1      32.387 -24.568 -15.330  0.00  0.00    -0.080 HD
ENDBRANCH  24  25
ENDBRANCH  23  24
ENDBRANCH  22  23
ENDBRANCH  17  22
ENDBRANCH  15  16
ENDBRANCH   2  15
TORSDOF 9
ENDMDL
MODEL 4
REMARK VINA RESULT:      -9.7      2.864      9.887
REMARK  Name = 3792
REMARK  9 active torsions:
REMARK  status: ('A' for Active; 'I' for Inactive)
REMARK    1  A    between atoms: N_2  and  C_15
REMARK    2  A    between atoms: C_3  and  C_5
REMARK    3  A    between atoms: C_8  and  O_11
REMARK    4  A    between atoms: C_9  and  O_13
REMARK    5  A    between atoms: C_15  and  C_16
REMARK    6  A    between atoms: C_17  and  O_22
REMARK    7  A    between atoms: O_22  and  C_23
REMARK    8  A    between atoms: C_23  and  C_24
REMARK    9  A    between atoms: C_24  and  N_25
REMARK                            x       y       z     vdW  Elec       q    Type
REMARK                         _______ _______ _______ _____ _____    ______ ____
ROOT
ATOM      1  O   UNL     1      34.569 -19.410 -22.968  0.00  0.00    -0.270 OA
ATOM      2  N   UNL     1      35.150 -17.832 -21.372  0.00  0.00    -0.297 N 
ATOM      3  C   UNL     1      34.786 -19.101 -21.799  0.00  0.00    +0.246 C 
ATOM      4  H   UNL     1      35.303 -17.682 -20.410  0.00  0.00    +0.150 HD
ENDROOT
BRANCH   3   5
ATOM      5  C   UNL     1      34.636 -20.128 -20.736  0.00  0.00    +0.057 C 
ATOM      6  C   UNL     1      35.764 -20.633 -20.089  0.00  0.00    +0.045 C 
ATOM      7  C   UNL     1      33.367 -20.589 -20.386  0.00  0.00    +0.008 C 
ATOM      8  C   UNL     1      35.624 -21.598 -19.093  0.00  0.00    +0.173 C 
ATOM      9  C   UNL     1      34.354 -22.059 -18.743  0.00  0.00    +0.172 C 
ATOM     10  C   UNL     1      33.226 -21.555 -19.390  0.00  0.00    +0.040 C 
BRANCH   8  11
ATOM     11  O   UNL     1      36.732 -22.083 -18.468  0.00  0.00    -0.468 OA
ATOM     12  C   UNL     1      37.037 -21.548 -17.181  0.00  0.00    +0.253 C 
ENDBRANCH   8  11
BRANCH   9  13
ATOM     13  O   UNL     1      34.204 -23.001 -17.770  0.00  0.00    -0.468 OA
ATOM     14  C   UNL     1      32.889 -23.190 -17.250  0.00  0.00    +0.253 C 
ENDBRANCH   9  13
ENDBRANCH   3   5
BRANCH   2  15
ATOM     15  C   UNL     1      35.311 -16.724 -22.280  0.00  0.00    +0.117 C 
BRANCH  15  16
ATOM     16  C   UNL     1      34.344 -15.622 -22.004  0.00  0.00    -0.002 C 
ATOM     17  C   UNL     1      32.536 -13.561 -21.487  0.00  0.00    +0.138 C 
ATOM     18  C   UNL     1      34.122 -14.632 -22.961  0.00  0.00    +0.000 C 
ATOM     19  C   UNL     1      33.662 -15.581 -20.787  0.00  0.00    +0.000 C 
ATOM     20  C   UNL     1      33.217 -13.602 -22.703  0.00  0.00    +0.037 C 
ATOM     21  C   UNL     1      32.759 -14.551 -20.528  0.00  0.00    +0.037 C 
BRANCH  17  22
ATOM     22  O   UNL     1      31.648 -12.549 -21.232  0.00  0.00    -0.478 OA
BRANCH  22  23
ATOM     23  C   UNL     1      31.603 -11.484 -22.173  0.00  0.00    +0.183 C 
BRANCH  23  24
ATOM     24  C   UNL     1      31.667 -10.164 -21.420  0.00  0.00    -0.029 C 
BRANCH  24  25
ATOM     25  N   UNL     1      32.502  -9.201 -22.138  0.00  0.00    +0.387 N 
ATOM     26  C   UNL     1      32.883  -9.731 -23.447  0.00  0.00    -0.101 C 
ATOM     27  C   UNL     1      31.798  -7.927 -22.288  0.00  0.00    -0.101 C 
ATOM     28  H   UNL     1      33.350  -9.040 -21.595  0.00  0.00    -0.080 HD
ENDBRANCH  24  25
ENDBRANCH  23  24
ENDBRANCH  22  23
ENDBRANCH  17  22
ENDBRANCH  15  16
ENDBRANCH   2  15
TORSDOF 9
ENDMDL
MODEL 5
REMARK VINA RESULT:      -9.5      3.310     11.059
REMARK  Name = 3792
REMARK  9 active torsions:
REMARK  status: ('A' for Active; 'I' for Inactive)
REMARK    1  A    between atoms: N_2  and  C_15
REMARK    2  A    between atoms: C_3  and  C_5
REMARK    3  A    between atoms: C_8  and  O_11
REMARK    4  A    between atoms: C_9  and  O_13
REMARK    5  A    between atoms: C_15  and  C_16
REMARK    6  A    between atoms: C_17  and  O_22
REMARK    7  A    between atoms: O_22  and  C_23
REMARK    8  A    between atoms: C_23  and  C_24
REMARK    9  A    between atoms: C_24  and  N_25
REMARK                            x       y       z     vdW  Elec       q    Type
REMARK                         _______ _______ _______ _____ _____    ______ ____
ROOT
ATOM      1  O   UNL     1      32.997 -23.268 -15.810  0.00  0.00    -0.270 OA
ATOM      2  N   UNL     1      34.382 -22.840 -17.620  0.00  0.00    -0.297 N 
ATOM      3  C   UNL     1      34.118 -23.216 -16.311  0.00  0.00    +0.246 C 
ATOM      4  H   UNL     1      35.317 -22.829 -17.930  0.00  0.00    +0.150 HD
ENDROOT
BRANCH   3   5
ATOM      5  C   UNL     1      35.302 -23.551 -15.477  0.00  0.00    +0.057 C 
ATOM      6  C   UNL     1      35.141 -24.271 -14.294  0.00  0.00    +0.045 C 
ATOM      7  C   UNL     1      36.575 -23.143 -15.879  0.00  0.00    +0.008 C 
ATOM      8  C   UNL     1      36.252 -24.583 -13.511  0.00  0.00    +0.173 C 
ATOM      9  C   UNL     1      37.524 -24.176 -13.912  0.00  0.00    +0.172 C 
ATOM     10  C   UNL     1      37.685 -23.456 -15.096  0.00  0.00    +0.040 C 
BRANCH   8  11
ATOM     11  O   UNL     1      36.082 -25.287 -12.357  0.00  0.00    -0.468 OA
ATOM     12  C   UNL     1      35.658 -24.556 -11.208  0.00  0.00    +0.253 C 
ENDBRANCH   8  11
BRANCH   9  13
ATOM     13  O   UNL     1      38.617 -24.477 -13.156  0.00  0.00    -0.468 OA
ATOM     14  C   UNL     1      39.427 -25.567 -13.594  0.00  0.00    +0.253 C 
ENDBRANCH   9  13
ENDBRANCH   3   5
BRANCH   2  15
ATOM     15  C   UNL     1      33.342 -22.462 -18.544  0.00  0.00    +0.117 C 
BRANCH  15  16
ATOM     16  C   UNL     1      33.788 -21.404 -19.495  0.00  0.00    -0.002 C 
ATOM     17  C   UNL     1      34.623 -19.426 -21.277  0.00  0.00    +0.138 C 
ATOM     18  C   UNL     1      32.850 -20.565 -20.097  0.00  0.00    +0.000 C 
ATOM     19  C   UNL     1      35.144 -21.254 -19.786  0.00  0.00    +0.000 C 
ATOM     20  C   UNL     1      33.267 -19.576 -20.987  0.00  0.00    +0.037 C 
ATOM     21  C   UNL     1      35.562 -20.265 -20.676  0.00  0.00    +0.037 C 
BRANCH  17  22
ATOM     22  O   UNL     1      35.033 -18.454 -22.152  0.00  0.00    -0.478 OA
BRANCH  22  23
ATOM     23  C   UNL     1      35.170 -17.138 -21.631  0.00  0.00    +0.183 C 
BRANCH  23  24
ATOM     24  C   UNL     1      34.870 -16.141 -22.739  0.00  0.00    -0.029 C 
BRANCH  24  25
ATOM     25  N   UNL     1      34.568 -14.823 -22.178  0.00  0.00    +0.387 N 
ATOM     26  C   UNL     1      33.422 -14.227 -22.864  0.00  0.00    -0.101 C 
ATOM     27  C   UNL     1      34.308 -14.927 -20.743  0.00  0.00    -0.101 C 
ATOM     28  H   UNL     1      35.379 -14.220 -22.318  0.00  0.00    -0.080 HD
ENDBRANCH  24  25
ENDBRANCH  23  24
ENDBRANCH  22  23
ENDBRANCH  17  22
ENDBRANCH  15  16
ENDBRANCH   2  15
TORSDOF 9
ENDMDL
MODEL 6
REMARK VINA RESULT:      -9.4      2.965     11.079
REMARK  Name = 3792
REMARK  9 active torsions:
REMARK  status: ('A' for Active; 'I' for Inactive)
REMARK    1  A    between atoms: N_2  and  C_15
REMARK    2  A    between atoms: C_3  and  C_5
REMARK    3  A    between atoms: C_8  and  O_11
REMARK    4  A    between atoms: C_9  and  O_13
REMARK    5  A    between atoms: C_15  and  C_16
REMARK    6  A    between atoms: C_17  and  O_22
REMARK    7  A    between atoms: O_22  and  C_23
REMARK    8  A    between atoms: C_23  and  C_24
REMARK    9  A    between atoms: C_24  and  N_25
REMARK                            x       y       z     vdW  Elec       q    Type
REMARK                         _______ _______ _______ _____ _____    ______ ____
ROOT
ATOM      1  O   UNL     1      32.286 -23.482 -16.409  0.00  0.00    -0.270 OA
ATOM      2  N   UNL     1      34.163 -22.830 -17.606  0.00  0.00    -0.297 N 
ATOM      3  C   UNL     1      33.500 -23.304 -16.483  0.00  0.00    +0.246 C 
ATOM      4  H   UNL     1      35.142 -22.721 -17.567  0.00  0.00    +0.150 HD
ENDROOT
BRANCH   3   5
ATOM      5  C   UNL     1      34.348 -23.587 -15.296  0.00  0.00    +0.057 C 
ATOM      6  C   UNL     1      35.736 -23.499 -15.393  0.00  0.00    +0.045 C 
ATOM      7  C   UNL     1      33.755 -23.940 -14.083  0.00  0.00    +0.008 C 
ATOM      8  C   UNL     1      36.533 -23.766 -14.280  0.00  0.00    +0.173 C 
ATOM      9  C   UNL     1      35.939 -24.120 -13.068  0.00  0.00    +0.172 C 
ATOM     10  C   UNL     1      34.551 -24.207 -12.970  0.00  0.00    +0.040 C 
BRANCH   8  11
ATOM     11  O   UNL     1      37.888 -23.678 -14.388  0.00  0.00    -0.468 OA
ATOM     12  C   UNL     1      38.590 -24.871 -14.731  0.00  0.00    +0.253 C 
ENDBRANCH   8  11
BRANCH   9  13
ATOM     13  O   UNL     1      36.707 -24.381 -11.972  0.00  0.00    -0.468 OA
ATOM     14  C   UNL     1      36.877 -23.321 -11.033  0.00  0.00    +0.253 C 
ENDBRANCH   9  13
ENDBRANCH   3   5
BRANCH   2  15
ATOM     15  C   UNL     1      33.476 -22.487 -18.825  0.00  0.00    +0.117 C 
BRANCH  15  16
ATOM     16  C   UNL     1      34.170 -21.403 -19.580  0.00  0.00    -0.002 C 
ATOM     17  C   UNL     1      35.468 -19.378 -20.993  0.00  0.00    +0.138 C 
ATOM     18  C   UNL     1      33.425 -20.435 -20.254  0.00  0.00    +0.000 C 
ATOM     19  C   UNL     1      35.564 -21.359 -19.613  0.00  0.00    +0.000 C 
ATOM     20  C   UNL     1      34.074 -19.422 -20.959  0.00  0.00    +0.037 C 
ATOM     21  C   UNL     1      36.213 -20.347 -20.319  0.00  0.00    +0.037 C 
BRANCH  17  22
ATOM     22  O   UNL     1      36.106 -18.383 -21.686  0.00  0.00    -0.478 OA
BRANCH  22  23
ATOM     23  C   UNL     1      35.708 -18.186 -23.037  0.00  0.00    +0.183 C 
BRANCH  23  24
ATOM     24  C   UNL     1      35.307 -16.730 -23.220  0.00  0.00    -0.029 C 
BRANCH  24  25
ATOM     25  N   UNL     1      34.904 -16.477 -24.603  0.00  0.00    +0.387 N 
ATOM     26  C   UNL     1      34.488 -17.721 -25.250  0.00  0.00    -0.101 C 
ATOM     27  C   UNL     1      33.823 -15.492 -24.647  0.00  0.00    -0.101 C 
ATOM     28  H   UNL     1      35.705 -16.101 -25.110  0.00  0.00    -0.080 HD
ENDBRANCH  24  25
ENDBRANCH  23  24
ENDBRANCH  22  23
ENDBRANCH  17  22
ENDBRANCH  15  16
ENDBRANCH   2  15
TORSDOF 9
ENDMDL
MODEL 7
REMARK VINA RESULT:      -9.3      3.018      4.578
REMARK  Name = 3792
REMARK  9 active torsions:
REMARK  status: ('A' for Active; 'I' for Inactive)
REMARK    1  A    between atoms: N_2  and  C_15
REMARK    2  A    between atoms: C_3  and  C_5
REMARK    3  A    between atoms: C_8  and  O_11
REMARK    4  A    between atoms: C_9  and  O_13
REMARK    5  A    between atoms: C_15  and  C_16
REMARK    6  A    between atoms: C_17  and  O_22
REMARK    7  A    between atoms: O_22  and  C_23
REMARK    8  A    between atoms: C_23  and  C_24
REMARK    9  A    between atoms: C_24  and  N_25
REMARK                            x       y       z     vdW  Elec       q    Type
REMARK                         _______ _______ _______ _____ _____    ______ ____
ROOT
ATOM      1  O   UNL     1      32.362 -20.157 -19.916  0.00  0.00    -0.270 OA
ATOM      2  N   UNL     1      34.412 -21.240 -20.005  0.00  0.00    -0.297 N 
ATOM      3  C   UNL     1      33.515 -20.233 -20.335  0.00  0.00    +0.246 C 
ATOM      4  H   UNL     1      35.317 -21.213 -20.393  0.00  0.00    +0.150 HD
ENDROOT
BRANCH   3   5
ATOM      5  C   UNL     1      34.013 -19.201 -21.281  0.00  0.00    +0.057 C 
ATOM      6  C   UNL     1      33.837 -17.848 -20.994  0.00  0.00    +0.045 C 
ATOM      7  C   UNL     1      34.656 -19.586 -22.458  0.00  0.00    +0.008 C 
ATOM      8  C   UNL     1      34.302 -16.879 -21.883  0.00  0.00    +0.173 C 
ATOM      9  C   UNL     1      34.945 -17.265 -23.060  0.00  0.00    +0.172 C 
ATOM     10  C   UNL     1      35.121 -18.618 -23.347  0.00  0.00    +0.040 C 
BRANCH   8  11
ATOM     11  O   UNL     1      34.125 -15.560 -21.591  0.00  0.00    -0.468 OA
ATOM     12  C   UNL     1      32.839 -15.004 -21.862  0.00  0.00    +0.253 C 
ENDBRANCH   8  11
BRANCH   9  13
ATOM     13  O   UNL     1      35.405 -16.327 -23.935  0.00  0.00    -0.468 OA
ATOM     14  C   UNL     1      34.698 -16.188 -25.166  0.00  0.00    +0.253 C 
ENDBRANCH   9  13
ENDBRANCH   3   5
BRANCH   2  15
ATOM     15  C   UNL     1      34.069 -22.325 -19.121  0.00  0.00    +0.117 C 
BRANCH  15  16
ATOM     16  C   UNL     1      34.993 -22.416 -17.954  0.00  0.00    -0.002 C 
ATOM     17  C   UNL     1      36.722 -22.589 -15.771  0.00  0.00    +0.138 C 
ATOM     18  C   UNL     1      36.272 -21.863 -18.031  0.00  0.00    +0.000 C 
ATOM     19  C   UNL     1      34.580 -23.056 -16.786  0.00  0.00    +0.000 C 
ATOM     20  C   UNL     1      37.136 -21.948 -16.939  0.00  0.00    +0.037 C 
ATOM     21  C   UNL     1      35.444 -23.143 -15.694  0.00  0.00    +0.037 C 
BRANCH  17  22
ATOM     22  O   UNL     1      37.571 -22.674 -14.698  0.00  0.00    -0.478 OA
BRANCH  22  23
ATOM     23  C   UNL     1      37.482 -23.849 -13.902  0.00  0.00    +0.183 C 
BRANCH  23  24
ATOM     24  C   UNL     1      38.360 -24.925 -14.521  0.00  0.00    -0.029 C 
BRANCH  24  25
ATOM     25  N   UNL     1      37.859 -26.257 -14.180  0.00  0.00    +0.387 N 
ATOM     26  C   UNL     1      37.216 -26.240 -12.867  0.00  0.00    -0.101 C 
ATOM     27  C   UNL     1      36.924 -26.728 -15.202  0.00  0.00    -0.101 C 
ATOM     28  H   UNL     1      38.651 -26.900 -14.145  0.00  0.00    -0.080 HD
ENDBRANCH  24  25
ENDBRANCH  23  24
ENDBRANCH  22  23
ENDBRANCH  17  22
ENDBRANCH  15  16
ENDBRANCH   2  15
TORSDOF 9
ENDMDL
MODEL 8
REMARK VINA RESULT:      -9.2      3.211      6.315
REMARK  Name = 3792
REMARK  9 active torsions:
REMARK  status: ('A' for Active; 'I' for Inactive)
REMARK    1  A    between atoms: N_2  and  C_15
REMARK    2  A    between atoms: C_3  and  C_5
REMARK    3  A    between atoms: C_8  and  O_11
REMARK    4  A    between atoms: C_9  and  O_13
REMARK    5  A    between atoms: C_15  and  C_16
REMARK    6  A    between atoms: C_17  and  O_22
REMARK    7  A    between atoms: O_22  and  C_23
REMARK    8  A    between atoms: C_23  and  C_24
REMARK    9  A    between atoms: C_24  and  N_25
REMARK                            x       y       z     vdW  Elec       q    Type
REMARK                         _______ _______ _______ _____ _____    ______ ____
ROOT
ATOM      1  O   UNL     1      34.310 -11.523 -25.595  0.00  0.00    -0.270 OA
ATOM      2  N   UNL     1      33.506 -12.765 -23.809  0.00  0.00    -0.297 N 
ATOM      3  C   UNL     1      33.832 -11.587 -24.465  0.00  0.00    +0.246 C 
ATOM      4  H   UNL     1      33.126 -12.713 -22.901  0.00  0.00    +0.150 HD
ENDROOT
BRANCH   3   5
ATOM      5  C   UNL     1      33.594 -10.331 -23.706  0.00  0.00    +0.057 C 
ATOM      6  C   UNL     1      32.648 -10.304 -22.682  0.00  0.00    +0.045 C 
ATOM      7  C   UNL     1      34.315  -9.179 -24.020  0.00  0.00    +0.008 C 
ATOM      8  C   UNL     1      32.423  -9.126 -21.971  0.00  0.00    +0.173 C 
ATOM      9  C   UNL     1      33.144  -7.973 -22.285  0.00  0.00    +0.172 C 
ATOM     10  C   UNL     1      34.090  -8.000 -23.310  0.00  0.00    +0.040 C 
BRANCH   8  11
ATOM     11  O   UNL     1      31.497  -9.111 -20.972  0.00  0.00    -0.468 OA
ATOM     12  C   UNL     1      31.917  -9.583 -19.693  0.00  0.00    +0.253 C 
ENDBRANCH   8  11
BRANCH   9  13
ATOM     13  O   UNL     1      32.934  -6.817 -21.597  0.00  0.00    -0.468 OA
ATOM     14  C   UNL     1      32.081  -5.847 -22.204  0.00  0.00    +0.253 C 
ENDBRANCH   9  13
ENDBRANCH   3   5
BRANCH   2  15
ATOM     15  C   UNL     1      33.703 -14.064 -24.403  0.00  0.00    +0.117 C 
BRANCH  15  16
ATOM     16  C   UNL     1      34.195 -15.068 -23.416  0.00  0.00    -0.002 C 
ATOM     17  C   UNL     1      35.117 -16.946 -21.570  0.00  0.00    +0.138 C 
ATOM     18  C   UNL     1      34.071 -14.822 -22.049  0.00  0.00    +0.000 C 
ATOM     19  C   UNL     1      34.782 -16.253 -23.861  0.00  0.00    +0.000 C 
ATOM     20  C   UNL     1      34.531 -15.761 -21.126  0.00  0.00    +0.037 C 
ATOM     21  C   UNL     1      35.243 -17.192 -22.939  0.00  0.00    +0.037 C 
BRANCH  17  22
ATOM     22  O   UNL     1      35.570 -17.869 -20.664  0.00  0.00    -0.478 OA
BRANCH  22  23
ATOM     23  C   UNL     1      35.701 -19.208 -21.124  0.00  0.00    +0.183 C 
BRANCH  23  24
ATOM     24  C   UNL     1      34.561 -20.034 -20.551  0.00  0.00    -0.029 C 
BRANCH  24  25
ATOM     25  N   UNL     1      35.046 -20.915 -19.488  0.00  0.00    +0.387 N 
ATOM     26  C   UNL     1      34.243 -22.136 -19.431  0.00  0.00    -0.101 C 
ATOM     27  C   UNL     1      36.456 -21.240 -19.699  0.00  0.00    -0.101 C 
ATOM     28  H   UNL     1      34.955 -20.427 -18.597  0.00  0.00    -0.080 HD
ENDBRANCH  24  25
ENDBRANCH  23  24
ENDBRANCH  22  23
ENDBRANCH  17  22
ENDBRANCH  15  16
ENDBRANCH   2  15
TORSDOF 9
ENDMDL
MODEL 9
REMARK VINA RESULT:      -9.1      4.778     11.652
REMARK  Name = 3792
REMARK  9 active torsions:
REMARK  status: ('A' for Active; 'I' for Inactive)
REMARK    1  A    between atoms: N_2  and  C_15
REMARK    2  A    between atoms: C_3  and  C_5
REMARK    3  A    between atoms: C_8  and  O_11
REMARK    4  A    between atoms: C_9  and  O_13
REMARK    5  A    between atoms: C_15  and  C_16
REMARK    6  A    between atoms: C_17  and  O_22
REMARK    7  A    between atoms: O_22  and  C_23
REMARK    8  A    between atoms: C_23  and  C_24
REMARK    9  A    between atoms: C_24  and  N_25
REMARK                            x       y       z     vdW  Elec       q    Type
REMARK                         _______ _______ _______ _____ _____    ______ ____
ROOT
ATOM      1  O   UNL     1      32.825 -13.983 -24.977  0.00  0.00    -0.270 OA
ATOM      2  N   UNL     1      34.248 -12.523 -23.873  0.00  0.00    -0.297 N 
ATOM      3  C   UNL     1      33.682 -13.765 -24.125  0.00  0.00    +0.246 C 
ATOM      4  H   UNL     1      34.931 -12.449 -23.166  0.00  0.00    +0.150 HD
ENDROOT
BRANCH   3   5
ATOM      5  C   UNL     1      34.155 -14.883 -23.267  0.00  0.00    +0.057 C 
ATOM      6  C   UNL     1      34.652 -16.048 -23.851  0.00  0.00    +0.045 C 
ATOM      7  C   UNL     1      34.100 -14.767 -21.878  0.00  0.00    +0.008 C 
ATOM      8  C   UNL     1      35.093 -17.098 -23.046  0.00  0.00    +0.173 C 
ATOM      9  C   UNL     1      35.038 -16.982 -21.657  0.00  0.00    +0.172 C 
ATOM     10  C   UNL     1      34.541 -15.817 -21.073  0.00  0.00    +0.040 C 
BRANCH   8  11
ATOM     11  O   UNL     1      35.577 -18.230 -23.628  0.00  0.00    -0.468 OA
ATOM     12  C   UNL     1      34.683 -18.962 -24.464  0.00  0.00    +0.253 C 
ENDBRANCH   8  11
BRANCH   9  13
ATOM     13  O   UNL     1      35.468 -18.000 -20.860  0.00  0.00    -0.468 OA
ATOM     14  C   UNL     1      34.637 -19.157 -20.783  0.00  0.00    +0.253 C 
ENDBRANCH   9  13
ENDBRANCH   3   5
BRANCH   2  15
ATOM     15  C   UNL     1      33.875 -11.338 -24.603  0.00  0.00    +0.117 C 
BRANCH  15  16
ATOM     16  C   UNL     1      33.412 -10.242 -23.703  0.00  0.00    -0.002 C 
ATOM     17  C   UNL     1      32.543  -8.192 -22.022  0.00  0.00    +0.138 C 
ATOM     18  C   UNL     1      32.331 -10.453 -22.846  0.00  0.00    +0.000 C 
ATOM     19  C   UNL     1      34.057  -9.006 -23.721  0.00  0.00    +0.000 C 
ATOM     20  C   UNL     1      31.898  -9.428 -22.005  0.00  0.00    +0.037 C 
ATOM     21  C   UNL     1      33.624  -7.981 -22.881  0.00  0.00    +0.037 C 
BRANCH  17  22
ATOM     22  O   UNL     1      32.117  -7.184 -21.197  0.00  0.00    -0.478 OA
BRANCH  22  23
ATOM     23  C   UNL     1      32.103  -5.871 -21.742  0.00  0.00    +0.183 C 
BRANCH  23  24
ATOM     24  C   UNL     1      30.664  -5.485 -22.047  0.00  0.00    -0.029 C 
BRANCH  24  25
ATOM     25  N   UNL     1      30.583  -4.751 -23.310  0.00  0.00    +0.387 N 
ATOM     26  C   UNL     1      31.221  -3.441 -23.181  0.00  0.00    -0.101 C 
ATOM     27  C   UNL     1      31.206  -5.520 -24.387  0.00  0.00    -0.101 C 
ATOM     28  H   UNL     1      29.599  -4.610 -23.539  0.00  0.00    -0.080 HD
ENDBRANCH  24  25
ENDBRANCH  23  24
ENDBRANCH  22  23
ENDBRANCH  17  22
ENDBRANCH  15  16
ENDBRANCH   2  15
TORSDOF 9
ENDMDL
