MODEL 1
REMARK VINA RESULT:     -11.6      0.000      0.000
REMARK  Name = 5288708
REMARK  4 active torsions:
REMARK  status: ('A' for Active; 'I' for Inactive)
REMARK    1  A    between atoms: N_1  and  C_9
REMARK    2  A    between atoms: N_1  and  C_16
REMARK    3  A    between atoms: C_15  and  S_21
REMARK    4  A    between atoms: S_21  and  N_24
REMARK                            x       y       z     vdW  Elec       q    Type
REMARK                         _______ _______ _______ _____ _____    ______ ____
ROOT
ATOM      1  N   UNL     1      35.936 -18.406 -21.758  0.00  0.00    -0.311 N 
ATOM      2  H   UNL     1      36.828 -18.087 -21.489  0.00  0.00    +0.152 HD
ENDROOT
BRANCH   1   9
ATOM      3  O   UNL     1      35.019 -15.966 -20.488  0.00  0.00    -0.270 OA
ATOM      4  N   UNL     1      33.969 -14.570 -22.080  0.00  0.00    -0.280 N 
ATOM      5  C   UNL     1      34.183 -15.872 -23.963  0.00  0.00    +0.019 C 
ATOM      6  C   UNL     1      34.786 -16.572 -22.834  0.00  0.00    +0.069 C 
ATOM      7  C   UNL     1      33.703 -14.663 -23.450  0.00  0.00    +0.051 C 
ATOM      8  C   UNL     1      34.636 -15.709 -21.614  0.00  0.00    +0.251 C 
ATOM      9  C   UNL     1      35.378 -17.767 -22.817  0.00  0.00    +0.066 C 
ATOM     10  C   UNL     1      34.029 -16.180 -25.302  0.00  0.00    +0.001 C 
ATOM     11  C   UNL     1      33.061 -13.727 -24.238  0.00  0.00    +0.015 C 
ATOM     12  C   UNL     1      33.383 -15.246 -26.119  0.00  0.00    +0.000 C 
ATOM     13  C   UNL     1      32.902 -14.032 -25.591  0.00  0.00    +0.001 C 
ATOM     14  H   UNL     1      33.719 -13.803 -21.515  0.00  0.00    +0.155 HD
ENDBRANCH   1   9
BRANCH   1  16
ATOM     15  C   UNL     1      34.359 -21.557 -19.472  0.00  0.00    +0.122 C 
ATOM     16  C   UNL     1      35.409 -19.459 -20.994  0.00  0.00    +0.048 C 
ATOM     17  C   UNL     1      33.503 -20.694 -20.155  0.00  0.00    +0.021 C 
ATOM     18  C   UNL     1      35.740 -21.374 -19.548  0.00  0.00    +0.021 C 
ATOM     19  C   UNL     1      34.026 -19.648 -20.915  0.00  0.00    +0.016 C 
ATOM     20  C   UNL     1      36.264 -20.327 -20.307  0.00  0.00    +0.016 C 
BRANCH  15  21
ATOM     21  S   UNL     1      33.704 -22.866 -18.521  0.00  0.00    +0.060 S 
ATOM     22  O   UNL     1      32.374 -22.490 -18.057  0.00  0.00    -0.153 OA
ATOM     23  O   UNL     1      33.873 -24.096 -19.283  0.00  0.00    -0.153 OA
BRANCH  21  24
ATOM     24  N   UNL     1      34.760 -22.909 -17.176  0.00  0.00    -0.178 NA
ATOM     25  C   UNL     1      34.324 -23.544 -15.924  0.00  0.00    +0.110 C 
ATOM     26  H   UNL     1      34.990 -21.942 -16.951  0.00  0.00    +0.149 HD
ENDBRANCH  21  24
ENDBRANCH  15  21
ENDBRANCH   1  16
TORSDOF 4
ENDMDL
MODEL 2
REMARK VINA RESULT:     -11.5      1.490      1.900
REMARK  Name = 5288708
REMARK  4 active torsions:
REMARK  status: ('A' for Active; 'I' for Inactive)
REMARK    1  A    between atoms: N_1  and  C_9
REMARK    2  A    between atoms: N_1  and  C_16
REMARK    3  A    between atoms: C_15  and  S_21
REMARK    4  A    between atoms: S_21  and  N_24
REMARK                            x       y       z     vdW  Elec       q    Type
REMARK                         _______ _______ _______ _____ _____    ______ ____
ROOT
ATOM      1  N   UNL     1      36.175 -18.514 -21.684  0.00  0.00    -0.311 N 
ATOM      2  H   UNL     1      37.110 -18.664 -21.951  0.00  0.00    +0.152 HD
ENDROOT
BRANCH   1   9
ATOM      3  O   UNL     1      35.192 -19.257 -24.309  0.00  0.00    -0.270 OA
ATOM      4  N   UNL     1      34.147 -17.404 -25.337  0.00  0.00    -0.280 N 
ATOM      5  C   UNL     1      34.421 -15.820 -23.692  0.00  0.00    +0.019 C 
ATOM      6  C   UNL     1      35.013 -17.076 -23.243  0.00  0.00    +0.069 C 
ATOM      7  C   UNL     1      33.910 -16.076 -24.968  0.00  0.00    +0.051 C 
ATOM      8  C   UNL     1      34.826 -18.096 -24.328  0.00  0.00    +0.251 C 
ATOM      9  C   UNL     1      35.628 -17.339 -22.089  0.00  0.00    +0.066 C 
ATOM     10  C   UNL     1      34.301 -14.567 -23.121  0.00  0.00    +0.001 C 
ATOM     11  C   UNL     1      33.268 -15.107 -25.715  0.00  0.00    +0.015 C 
ATOM     12  C   UNL     1      33.654 -13.571 -23.860  0.00  0.00    +0.000 C 
ATOM     13  C   UNL     1      33.143 -13.838 -25.145  0.00  0.00    +0.001 C 
ATOM     14  H   UNL     1      33.873 -17.800 -26.195  0.00  0.00    +0.155 HD
ENDBRANCH   1   9
BRANCH   1  16
ATOM     15  C   UNL     1      34.403 -21.589 -19.438  0.00  0.00    +0.122 C 
ATOM     16  C   UNL     1      35.582 -19.542 -20.933  0.00  0.00    +0.048 C 
ATOM     17  C   UNL     1      33.603 -20.686 -20.136  0.00  0.00    +0.021 C 
ATOM     18  C   UNL     1      35.793 -21.472 -19.486  0.00  0.00    +0.021 C 
ATOM     19  C   UNL     1      34.191 -19.664 -20.883  0.00  0.00    +0.016 C 
ATOM     20  C   UNL     1      36.381 -20.450 -20.232  0.00  0.00    +0.016 C 
BRANCH  15  21
ATOM     21  S   UNL     1      33.668 -22.867 -18.503  0.00  0.00    +0.060 S 
ATOM     22  O   UNL     1      32.329 -22.449 -18.108  0.00  0.00    -0.153 OA
ATOM     23  O   UNL     1      33.838 -24.112 -19.242  0.00  0.00    -0.153 OA
BRANCH  21  24
ATOM     24  N   UNL     1      34.657 -22.921 -17.110  0.00  0.00    -0.178 NA
ATOM     25  C   UNL     1      34.176 -23.597 -15.897  0.00  0.00    +0.110 C 
ATOM     26  H   UNL     1      34.853 -21.955 -16.850  0.00  0.00    +0.149 HD
ENDBRANCH  21  24
ENDBRANCH  15  21
ENDBRANCH   1  16
TORSDOF 4
ENDMDL
MODEL 3
REMARK VINA RESULT:     -10.5      3.832      6.615
REMARK  Name = 5288708
REMARK  4 active torsions:
REMARK  status: ('A' for Active; 'I' for Inactive)
REMARK    1  A    between atoms: N_1  and  C_9
REMARK    2  A    between atoms: N_1  and  C_16
REMARK    3  A    between atoms: C_15  and  S_21
REMARK    4  A    between atoms: S_21  and  N_24
REMARK                            x       y       z     vdW  Elec       q    Type
REMARK                         _______ _______ _______ _____ _____    ______ ____
ROOT
ATOM      1  N   UNL     1      34.975 -22.939 -17.374  0.00  0.00    -0.311 N 
ATOM      2  H   UNL     1      34.275 -23.544 -17.709  0.00  0.00    +0.152 HD
ENDROOT
BRANCH   1   9
ATOM      3  O   UNL     1      32.539 -22.232 -18.779  0.00  0.00    -0.270 OA
ATOM      4  N   UNL     1      33.008 -20.640 -20.461  0.00  0.00    -0.280 N 
ATOM      5  C   UNL     1      35.277 -20.400 -20.171  0.00  0.00    +0.019 C 
ATOM      6  C   UNL     1      34.776 -21.367 -19.200  0.00  0.00    +0.069 C 
ATOM      7  C   UNL     1      34.163 -19.990 -20.909  0.00  0.00    +0.051 C 
ATOM      8  C   UNL     1      33.295 -21.512 -19.405  0.00  0.00    +0.251 C 
ATOM      9  C   UNL     1      35.456 -22.042 -18.271  0.00  0.00    +0.066 C 
ATOM     10  C   UNL     1      36.531 -19.886 -20.442  0.00  0.00    +0.001 C 
ATOM     11  C   UNL     1      34.253 -19.066 -21.932  0.00  0.00    +0.015 C 
ATOM     12  C   UNL     1      36.645 -18.948 -21.473  0.00  0.00    +0.000 C 
ATOM     13  C   UNL     1      35.517 -18.543 -22.212  0.00  0.00    +0.001 C 
ATOM     14  H   UNL     1      32.110 -20.502 -20.839  0.00  0.00    +0.155 HD
ENDBRANCH   1   9
BRANCH   1  16
ATOM     15  C   UNL     1      36.087 -23.482 -13.360  0.00  0.00    +0.122 C 
ATOM     16  C   UNL     1      35.347 -23.121 -16.032  0.00  0.00    +0.048 C 
ATOM     17  C   UNL     1      37.018 -23.008 -14.284  0.00  0.00    +0.021 C 
ATOM     18  C   UNL     1      34.785 -23.775 -13.769  0.00  0.00    +0.021 C 
ATOM     19  C   UNL     1      36.649 -22.828 -15.617  0.00  0.00    +0.016 C 
ATOM     20  C   UNL     1      34.416 -23.595 -15.102  0.00  0.00    +0.016 C 
BRANCH  15  21
ATOM     21  S   UNL     1      36.549 -23.709 -11.692  0.00  0.00    +0.060 S 
ATOM     22  O   UNL     1      37.246 -22.515 -11.231  0.00  0.00    -0.153 OA
ATOM     23  O   UNL     1      35.374 -24.175 -10.965  0.00  0.00    -0.153 OA
BRANCH  21  24
ATOM     24  N   UNL     1      37.672 -24.994 -11.792  0.00  0.00    -0.178 NA
ATOM     25  C   UNL     1      37.342 -26.196 -12.570  0.00  0.00    +0.110 C 
ATOM     26  H   UNL     1      37.854 -25.302 -10.837  0.00  0.00    +0.149 HD
ENDBRANCH  21  24
ENDBRANCH  15  21
ENDBRANCH   1  16
TORSDOF 4
ENDMDL
MODEL 4
REMARK VINA RESULT:     -10.4      1.648      2.350
REMARK  Name = 5288708
REMARK  4 active torsions:
REMARK  status: ('A' for Active; 'I' for Inactive)
REMARK    1  A    between atoms: N_1  and  C_9
REMARK    2  A    between atoms: N_1  and  C_16
REMARK    3  A    between atoms: C_15  and  S_21
REMARK    4  A    between atoms: S_21  and  N_24
REMARK                            x       y       z     vdW  Elec       q    Type
REMARK                         _______ _______ _______ _____ _____    ______ ____
ROOT
ATOM      1  N   UNL     1      34.528 -17.779 -21.689  0.00  0.00    -0.311 N 
ATOM      2  H   UNL     1      35.175 -17.804 -22.429  0.00  0.00    +0.152 HD
ENDROOT
BRANCH   1   9
ATOM      3  O   UNL     1      34.975 -16.495 -24.250  0.00  0.00    -0.270 OA
ATOM      4  N   UNL     1      34.022 -14.333 -24.249  0.00  0.00    -0.280 N 
ATOM      5  C   UNL     1      33.157 -14.272 -22.119  0.00  0.00    +0.019 C 
ATOM      6  C   UNL     1      33.806 -15.562 -22.329  0.00  0.00    +0.069 C 
ATOM      7  C   UNL     1      33.317 -13.566 -23.315  0.00  0.00    +0.051 C 
ATOM      8  C   UNL     1      34.365 -15.583 -23.723  0.00  0.00    +0.251 C 
ATOM      9  C   UNL     1      33.921 -16.583 -21.479  0.00  0.00    +0.066 C 
ATOM     10  C   UNL     1      32.488 -13.706 -21.050  0.00  0.00    +0.001 C 
ATOM     11  C   UNL     1      32.825 -12.287 -23.491  0.00  0.00    +0.015 C 
ATOM     12  C   UNL     1      31.980 -12.412 -21.206  0.00  0.00    +0.000 C 
ATOM     13  C   UNL     1      32.148 -11.709 -22.415  0.00  0.00    +0.001 C 
ATOM     14  H   UNL     1      34.248 -14.031 -25.158  0.00  0.00    +0.155 HD
ENDBRANCH   1   9
BRANCH   1  16
ATOM     15  C   UNL     1      34.012 -21.382 -19.593  0.00  0.00    +0.122 C 
ATOM     16  C   UNL     1      34.355 -18.984 -20.988  0.00  0.00    +0.048 C 
ATOM     17  C   UNL     1      32.901 -20.623 -19.961  0.00  0.00    +0.021 C 
ATOM     18  C   UNL     1      35.295 -20.944 -19.922  0.00  0.00    +0.021 C 
ATOM     19  C   UNL     1      33.072 -19.427 -20.658  0.00  0.00    +0.016 C 
ATOM     20  C   UNL     1      35.467 -19.747 -20.618  0.00  0.00    +0.016 C 
BRANCH  15  21
ATOM     21  S   UNL     1      33.798 -22.879 -18.721  0.00  0.00    +0.060 S 
ATOM     22  O   UNL     1      32.515 -22.841 -18.030  0.00  0.00    -0.153 OA
ATOM     23  O   UNL     1      34.081 -23.973 -19.641  0.00  0.00    -0.153 OA
BRANCH  21  24
ATOM     24  N   UNL     1      35.048 -22.808 -17.556  0.00  0.00    -0.178 NA
ATOM     25  C   UNL     1      34.771 -23.185 -16.163  0.00  0.00    +0.110 C 
ATOM     26  H   UNL     1      35.382 -21.845 -17.540  0.00  0.00    +0.149 HD
ENDBRANCH  21  24
ENDBRANCH  15  21
ENDBRANCH   1  16
TORSDOF 4
ENDMDL
MODEL 5
REMARK VINA RESULT:     -10.4      2.921      9.345
REMARK  Name = 5288708
REMARK  4 active torsions:
REMARK  status: ('A' for Active; 'I' for Inactive)
REMARK    1  A    between atoms: N_1  and  C_9
REMARK    2  A    between atoms: N_1  and  C_16
REMARK    3  A    between atoms: C_15  and  S_21
REMARK    4  A    between atoms: S_21  and  N_24
REMARK                            x       y       z     vdW  Elec       q    Type
REMARK                         _______ _______ _______ _____ _____    ______ ____
ROOT
ATOM      1  N   UNL     1      34.220 -22.558 -18.592  0.00  0.00    -0.311 N 
ATOM      2  H   UNL     1      34.969 -23.191 -18.506  0.00  0.00    +0.152 HD
ENDROOT
BRANCH   1   9
ATOM      3  O   UNL     1      35.488 -23.661 -16.229  0.00  0.00    -0.270 OA
ATOM      4  N   UNL     1      33.849 -24.256 -14.634  0.00  0.00    -0.280 N 
ATOM      5  C   UNL     1      31.942 -23.652 -15.768  0.00  0.00    +0.019 C 
ATOM      6  C   UNL     1      33.101 -23.356 -16.602  0.00  0.00    +0.069 C 
ATOM      7  C   UNL     1      32.453 -24.195 -14.585  0.00  0.00    +0.051 C 
ATOM      8  C   UNL     1      34.336 -23.758 -15.848  0.00  0.00    +0.251 C 
ATOM      9  C   UNL     1      33.132 -22.828 -17.827  0.00  0.00    +0.066 C 
ATOM     10  C   UNL     1      30.580 -23.496 -15.942  0.00  0.00    +0.001 C 
ATOM     11  C   UNL     1      31.638 -24.599 -13.545  0.00  0.00    +0.015 C 
ATOM     12  C   UNL     1      29.736 -23.899 -14.901  0.00  0.00    +0.000 C 
ATOM     13  C   UNL     1      30.261 -24.446 -13.714  0.00  0.00    +0.001 C 
ATOM     14  H   UNL     1      34.416 -24.604 -13.909  0.00  0.00    +0.155 HD
ENDBRANCH   1   9
BRANCH   1  16
ATOM     15  C   UNL     1      34.810 -19.386 -21.281  0.00  0.00    +0.122 C 
ATOM     16  C   UNL     1      34.417 -21.497 -19.491  0.00  0.00    +0.048 C 
ATOM     17  C   UNL     1      33.516 -19.780 -20.940  0.00  0.00    +0.021 C 
ATOM     18  C   UNL     1      35.909 -20.045 -20.728  0.00  0.00    +0.021 C 
ATOM     19  C   UNL     1      33.320 -20.833 -20.047  0.00  0.00    +0.016 C 
ATOM     20  C   UNL     1      35.713 -21.099 -19.835  0.00  0.00    +0.016 C 
BRANCH  15  21
ATOM     21  S   UNL     1      35.056 -18.068 -22.399  0.00  0.00    +0.060 S 
ATOM     22  O   UNL     1      34.199 -16.956 -22.009  0.00  0.00    -0.153 OA
ATOM     23  O   UNL     1      36.492 -17.854 -22.524  0.00  0.00    -0.153 OA
BRANCH  21  24
ATOM     24  N   UNL     1      34.472 -18.718 -23.869  0.00  0.00    -0.178 NA
ATOM     25  C   UNL     1      34.456 -17.887 -25.081  0.00  0.00    +0.110 C 
ATOM     26  H   UNL     1      33.510 -19.011 -23.701  0.00  0.00    +0.149 HD
ENDBRANCH  21  24
ENDBRANCH  15  21
ENDBRANCH   1  16
TORSDOF 4
ENDMDL
MODEL 6
REMARK VINA RESULT:     -10.2      3.057      9.181
REMARK  Name = 5288708
REMARK  4 active torsions:
REMARK  status: ('A' for Active; 'I' for Inactive)
REMARK    1  A    between atoms: N_1  and  C_9
REMARK    2  A    between atoms: N_1  and  C_16
REMARK    3  A    between atoms: C_15  and  S_21
REMARK    4  A    between atoms: S_21  and  N_24
REMARK                            x       y       z     vdW  Elec       q    Type
REMARK                         _______ _______ _______ _____ _____    ______ ____
ROOT
ATOM      1  N   UNL     1      34.071 -22.915 -18.861  0.00  0.00    -0.311 N 
ATOM      2  H   UNL     1      34.644 -23.693 -19.044  0.00  0.00    +0.152 HD
ENDROOT
BRANCH   1   9
ATOM      3  O   UNL     1      35.591 -23.022 -16.393  0.00  0.00    -0.270 OA
ATOM      4  N   UNL     1      34.139 -23.370 -14.562  0.00  0.00    -0.280 N 
ATOM      5  C   UNL     1      32.119 -23.465 -15.659  0.00  0.00    +0.019 C 
ATOM      6  C   UNL     1      33.179 -23.248 -16.638  0.00  0.00    +0.069 C 
ATOM      7  C   UNL     1      32.757 -23.531 -14.417  0.00  0.00    +0.051 C 
ATOM      8  C   UNL     1      34.489 -23.190 -15.905  0.00  0.00    +0.251 C 
ATOM      9  C   UNL     1      33.075 -23.117 -17.961  0.00  0.00    +0.066 C 
ATOM     10  C   UNL     1      30.747 -23.600 -15.756  0.00  0.00    +0.001 C 
ATOM     11  C   UNL     1      32.063 -23.732 -13.239  0.00  0.00    +0.015 C 
ATOM     12  C   UNL     1      30.024 -23.803 -14.576  0.00  0.00    +0.000 C 
ATOM     13  C   UNL     1      30.676 -23.869 -13.329  0.00  0.00    +0.001 C 
ATOM     14  H   UNL     1      34.782 -23.383 -13.817  0.00  0.00    +0.155 HD
ENDBRANCH   1   9
BRANCH   1  16
ATOM     15  C   UNL     1      35.027 -19.407 -20.965  0.00  0.00    +0.122 C 
ATOM     16  C   UNL     1      34.391 -21.742 -19.564  0.00  0.00    +0.048 C 
ATOM     17  C   UNL     1      36.044 -20.231 -20.483  0.00  0.00    +0.021 C 
ATOM     18  C   UNL     1      33.691 -19.750 -20.749  0.00  0.00    +0.021 C 
ATOM     19  C   UNL     1      35.727 -21.396 -19.784  0.00  0.00    +0.016 C 
ATOM     20  C   UNL     1      33.374 -20.914 -20.050  0.00  0.00    +0.016 C 
BRANCH  15  21
ATOM     21  S   UNL     1      35.423 -17.949 -21.839  0.00  0.00    +0.060 S 
ATOM     22  O   UNL     1      36.806 -18.034 -22.291  0.00  0.00    -0.153 OA
ATOM     23  O   UNL     1      34.366 -17.715 -22.815  0.00  0.00    -0.153 OA
BRANCH  21  24
ATOM     24  N   UNL     1      35.318 -16.751 -20.624  0.00  0.00    -0.178 NA
ATOM     25  C   UNL     1      34.450 -15.582 -20.822  0.00  0.00    +0.110 C 
ATOM     26  H   UNL     1      36.262 -16.395 -20.478  0.00  0.00    +0.149 HD
ENDBRANCH  21  24
ENDBRANCH  15  21
ENDBRANCH   1  16
TORSDOF 4
ENDMDL
MODEL 7
REMARK VINA RESULT:     -10.0      5.721     10.301
REMARK  Name = 5288708
REMARK  4 active torsions:
REMARK  status: ('A' for Active; 'I' for Inactive)
REMARK    1  A    between atoms: N_1  and  C_9
REMARK    2  A    between atoms: N_1  and  C_16
REMARK    3  A    between atoms: C_15  and  S_21
REMARK    4  A    between atoms: S_21  and  N_24
REMARK                            x       y       z     vdW  Elec       q    Type
REMARK                         _______ _______ _______ _____ _____    ______ ____
ROOT
ATOM      1  N   UNL     1      33.706 -13.410 -24.420  0.00  0.00    -0.311 N 
ATOM      2  H   UNL     1      33.451 -13.670 -25.334  0.00  0.00    +0.152 HD
ENDROOT
BRANCH   1   9
ATOM      3  O   UNL     1      33.805 -15.615 -26.300  0.00  0.00    -0.270 OA
ATOM      4  N   UNL     1      34.396 -17.609 -25.179  0.00  0.00    -0.280 N 
ATOM      5  C   UNL     1      34.620 -16.816 -23.032  0.00  0.00    +0.019 C 
ATOM      6  C   UNL     1      34.248 -15.710 -23.908  0.00  0.00    +0.069 C 
ATOM      7  C   UNL     1      34.696 -17.944 -23.854  0.00  0.00    +0.051 C 
ATOM      8  C   UNL     1      34.106 -16.246 -25.304  0.00  0.00    +0.251 C 
ATOM      9  C   UNL     1      34.051 -14.429 -23.593  0.00  0.00    +0.066 C 
ATOM     10  C   UNL     1      34.877 -16.911 -21.677  0.00  0.00    +0.001 C 
ATOM     11  C   UNL     1      35.027 -19.194 -23.367  0.00  0.00    +0.015 C 
ATOM     12  C   UNL     1      35.215 -18.167 -21.162  0.00  0.00    +0.000 C 
ATOM     13  C   UNL     1      35.288 -19.298 -21.999  0.00  0.00    +0.001 C 
ATOM     14  H   UNL     1      34.390 -18.250 -25.926  0.00  0.00    +0.155 HD
ENDBRANCH   1   9
BRANCH   1  16
ATOM     15  C   UNL     1      33.576  -9.294 -23.593  0.00  0.00    +0.122 C 
ATOM     16  C   UNL     1      33.662 -12.034 -24.144  0.00  0.00    +0.048 C 
ATOM     17  C   UNL     1      34.511  -9.794 -24.499  0.00  0.00    +0.021 C 
ATOM     18  C   UNL     1      32.683 -10.161 -22.962  0.00  0.00    +0.021 C 
ATOM     19  C   UNL     1      34.554 -11.161 -24.774  0.00  0.00    +0.016 C 
ATOM     20  C   UNL     1      32.726 -11.528 -23.237  0.00  0.00    +0.016 C 
BRANCH  15  21
ATOM     21  S   UNL     1      33.522  -7.584 -23.248  0.00  0.00    +0.060 S 
ATOM     22  O   UNL     1      33.493  -7.397 -21.803  0.00  0.00    -0.153 OA
ATOM     23  O   UNL     1      34.569  -6.939 -24.031  0.00  0.00    -0.153 OA
BRANCH  21  24
ATOM     24  N   UNL     1      32.004  -7.127 -23.888  0.00  0.00    -0.178 NA
ATOM     25  C   UNL     1      30.960  -6.605 -22.994  0.00  0.00    +0.110 C 
ATOM     26  H   UNL     1      31.615  -7.952 -24.344  0.00  0.00    +0.149 HD
ENDBRANCH  21  24
ENDBRANCH  15  21
ENDBRANCH   1  16
TORSDOF 4
ENDMDL
MODEL 8
REMARK VINA RESULT:     -10.0      5.633      9.933
REMARK  Name = 5288708
REMARK  4 active torsions:
REMARK  status: ('A' for Active; 'I' for Inactive)
REMARK    1  A    between atoms: N_1  and  C_9
REMARK    2  A    between atoms: N_1  and  C_16
REMARK    3  A    between atoms: C_15  and  S_21
REMARK    4  A    between atoms: S_21  and  N_24
REMARK                            x       y       z     vdW  Elec       q    Type
REMARK                         _______ _______ _______ _____ _____    ______ ____
ROOT
ATOM      1  N   UNL     1      33.902 -13.448 -24.266  0.00  0.00    -0.311 N 
ATOM      2  H   UNL     1      33.961 -13.618 -25.234  0.00  0.00    +0.152 HD
ENDROOT
BRANCH   1   9
ATOM      3  O   UNL     1      33.870 -15.612 -26.196  0.00  0.00    -0.270 OA
ATOM      4  N   UNL     1      34.369 -17.659 -25.127  0.00  0.00    -0.280 N 
ATOM      5  C   UNL     1      34.653 -16.927 -22.965  0.00  0.00    +0.019 C 
ATOM      6  C   UNL     1      34.331 -15.785 -23.812  0.00  0.00    +0.069 C 
ATOM      7  C   UNL     1      34.664 -18.039 -23.813  0.00  0.00    +0.051 C 
ATOM      8  C   UNL     1      34.148 -16.280 -25.218  0.00  0.00    +0.251 C 
ATOM      9  C   UNL     1      34.203 -14.503 -23.466  0.00  0.00    +0.066 C 
ATOM     10  C   UNL     1      34.919 -17.067 -21.616  0.00  0.00    +0.001 C 
ATOM     11  C   UNL     1      34.935 -19.315 -23.357  0.00  0.00    +0.015 C 
ATOM     12  C   UNL     1      35.197 -18.350 -21.133  0.00  0.00    +0.000 C 
ATOM     13  C   UNL     1      35.204 -19.463 -21.995  0.00  0.00    +0.001 C 
ATOM     14  H   UNL     1      34.322 -18.281 -25.888  0.00  0.00    +0.155 HD
ENDBRANCH   1   9
BRANCH   1  16
ATOM     15  C   UNL     1      32.750  -9.564 -23.160  0.00  0.00    +0.122 C 
ATOM     16  C   UNL     1      33.517 -12.150 -23.897  0.00  0.00    +0.048 C 
ATOM     17  C   UNL     1      33.756  -9.750 -24.108  0.00  0.00    +0.021 C 
ATOM     18  C   UNL     1      32.125 -10.669 -22.580  0.00  0.00    +0.021 C 
ATOM     19  C   UNL     1      34.139 -11.040 -24.476  0.00  0.00    +0.016 C 
ATOM     20  C   UNL     1      32.508 -11.959 -22.947  0.00  0.00    +0.016 C 
BRANCH  15  21
ATOM     21  S   UNL     1      32.271  -7.950 -22.699  0.00  0.00    +0.060 S 
ATOM     22  O   UNL     1      33.417  -7.061 -22.842  0.00  0.00    -0.153 OA
ATOM     23  O   UNL     1      31.033  -7.637 -23.401  0.00  0.00    -0.153 OA
BRANCH  21  24
ATOM     24  N   UNL     1      31.923  -8.130 -21.035  0.00  0.00    -0.178 NA
ATOM     25  C   UNL     1      32.571  -7.248 -20.053  0.00  0.00    +0.110 C 
ATOM     26  H   UNL     1      32.174  -9.085 -20.783  0.00  0.00    +0.149 HD
ENDBRANCH  21  24
ENDBRANCH  15  21
ENDBRANCH   1  16
TORSDOF 4
ENDMDL
MODEL 9
REMARK VINA RESULT:      -9.7      2.797      9.465
REMARK  Name = 5288708
REMARK  4 active torsions:
REMARK  status: ('A' for Active; 'I' for Inactive)
REMARK    1  A    between atoms: N_1  and  C_9
REMARK    2  A    between atoms: N_1  and  C_16
REMARK    3  A    between atoms: C_15  and  S_21
REMARK    4  A    between atoms: S_21  and  N_24
REMARK                            x       y       z     vdW  Elec       q    Type
REMARK                         _______ _______ _______ _____ _____    ______ ____
ROOT
ATOM      1  N   UNL     1      33.302 -22.401 -18.947  0.00  0.00    -0.311 N 
ATOM      2  H   UNL     1      32.474 -22.858 -19.217  0.00  0.00    +0.152 HD
ENDROOT
BRANCH   1   9
ATOM      3  O   UNL     1      31.034 -22.544 -17.146  0.00  0.00    -0.270 OA
ATOM      4  N   UNL     1      31.722 -23.366 -15.041  0.00  0.00    -0.280 N 
ATOM      5  C   UNL     1      33.966 -23.674 -15.440  0.00  0.00    +0.019 C 
ATOM      6  C   UNL     1      33.337 -23.157 -16.650  0.00  0.00    +0.069 C 
ATOM      7  C   UNL     1      32.941 -23.783 -14.495  0.00  0.00    +0.051 C 
ATOM      8  C   UNL     1      31.874 -22.961 -16.372  0.00  0.00    +0.251 C 
ATOM      9  C   UNL     1      33.901 -22.882 -17.827  0.00  0.00    +0.066 C 
ATOM     10  C   UNL     1      35.262 -24.031 -15.118  0.00  0.00    +0.001 C 
ATOM     11  C   UNL     1      33.163 -24.244 -13.212  0.00  0.00    +0.015 C 
ATOM     12  C   UNL     1      35.509 -24.502 -13.824  0.00  0.00    +0.000 C 
ATOM     13  C   UNL     1      34.470 -24.606 -12.880  0.00  0.00    +0.001 C 
ATOM     14  H   UNL     1      30.867 -23.359 -14.552  0.00  0.00    +0.155 HD
ENDBRANCH   1   9
BRANCH   1  16
ATOM     15  C   UNL     1      34.515 -19.217 -21.404  0.00  0.00    +0.122 C 
ATOM     16  C   UNL     1      33.707 -21.337 -19.768  0.00  0.00    +0.048 C 
ATOM     17  C   UNL     1      35.468 -20.059 -20.831  0.00  0.00    +0.021 C 
ATOM     18  C   UNL     1      33.158 -19.434 -21.161  0.00  0.00    +0.021 C 
ATOM     19  C   UNL     1      35.065 -21.117 -20.015  0.00  0.00    +0.016 C 
ATOM     20  C   UNL     1      32.755 -20.491 -20.345  0.00  0.00    +0.016 C 
BRANCH  15  21
ATOM     21  S   UNL     1      35.018 -17.893 -22.424  0.00  0.00    +0.060 S 
ATOM     22  O   UNL     1      34.220 -16.719 -22.097  0.00  0.00    -0.153 OA
ATOM     23  O   UNL     1      36.471 -17.810 -22.359  0.00  0.00    -0.153 OA
BRANCH  21  24
ATOM     24  N   UNL     1      34.573 -18.440 -23.982  0.00  0.00    -0.178 NA
ATOM     25  C   UNL     1      34.585 -17.505 -25.116  0.00  0.00    +0.110 C 
ATOM     26  H   UNL     1      33.622 -18.800 -23.908  0.00  0.00    +0.149 HD
ENDBRANCH  21  24
ENDBRANCH  15  21
ENDBRANCH   1  16
TORSDOF 4
ENDMDL
