MODEL 1
REMARK VINA RESULT:      -6.9      0.000      0.000
REMARK  Name = 501391
REMARK  8 active torsions:
REMARK  status: ('A' for Active; 'I' for Inactive)
REMARK    1  A    between atoms: N_1  and  C_14
REMARK    2  A    between atoms: C_2  and  C_18
REMARK    3  A    between atoms: C_3  and  O_8
REMARK    4  A    between atoms: C_4  and  O_10
REMARK    5  A    between atoms: C_5  and  O_12
REMARK    6  A    between atoms: C_14  and  C_15
REMARK    7  A    between atoms: C_15  and  C_16
REMARK    8  A    between atoms: C_18  and  O_19
REMARK                            x       y       z     vdW  Elec       q    Type
REMARK                         _______ _______ _______ _____ _____    ______ ____
ROOT
ATOM      1  N   UNL     1      36.891 -24.342 -14.236  0.00  0.00    +0.393 N 
ATOM      2  C   UNL     1      37.852 -24.443 -13.109  0.00  0.00    +0.002 C 
ATOM      3  C   UNL     1      37.186 -25.133 -11.896  0.00  0.00    +0.123 C 
ATOM      4  C   UNL     1      35.914 -24.399 -11.471  0.00  0.00    +0.160 C 
ATOM      5  C   UNL     1      34.962 -24.252 -12.653  0.00  0.00    +0.119 C 
ATOM      6  C   UNL     1      35.677 -23.607 -13.841  0.00  0.00    -0.045 C 
ATOM      7  H   UNL     1      36.645 -25.301 -14.480  0.00  0.00    -0.079 HD
ENDROOT
BRANCH   3   8
ATOM      8  O   UNL     1      36.877 -26.488 -12.234  0.00  0.00    -0.384 OA
ATOM      9  H   UNL     1      37.661 -27.042 -12.094  0.00  0.00    +0.210 HD
ENDBRANCH   3   8
BRANCH   4  10
ATOM     10  O   UNL     1      35.259 -25.119 -10.430  0.00  0.00    -0.380 OA
ATOM     11  H   UNL     1      35.095 -24.526  -9.680  0.00  0.00    +0.211 HD
ENDBRANCH   4  10
BRANCH   5  12
ATOM     12  O   UNL     1      33.871 -23.411 -12.282  0.00  0.00    -0.384 OA
ATOM     13  H   UNL     1      33.392 -23.132 -13.078  0.00  0.00    +0.210 HD
ENDBRANCH   5  12
BRANCH   1  14
ATOM     14  C   UNL     1      37.475 -23.704 -15.419  0.00  0.00    -0.077 C 
BRANCH  14  15
ATOM     15  C   UNL     1      36.470 -22.743 -16.053  0.00  0.00    -0.023 C 
BRANCH  15  16
ATOM     16  C   UNL     1      37.178 -21.673 -16.885  0.00  0.00    -0.002 C 
ATOM     17  C   UNL     1      36.609 -21.596 -18.293  0.00  0.00    -0.000 C 
ENDBRANCH  15  16
ENDBRANCH  14  15
ENDBRANCH   1  14
BRANCH   2  18
ATOM     18  C   UNL     1      39.126 -25.214 -13.494  0.00  0.00    +0.119 C 
BRANCH  18  19
ATOM     19  O   UNL     1      38.739 -26.385 -14.181  0.00  0.00    -0.384 OA
ATOM     20  H   UNL     1      38.406 -26.148 -15.060  0.00  0.00    +0.210 HD
ENDBRANCH  18  19
ENDBRANCH   2  18
TORSDOF 8
ENDMDL
MODEL 2
REMARK VINA RESULT:      -6.7     10.305     13.161
REMARK  Name = 501391
REMARK  8 active torsions:
REMARK  status: ('A' for Active; 'I' for Inactive)
REMARK    1  A    between atoms: N_1  and  C_14
REMARK    2  A    between atoms: C_2  and  C_18
REMARK    3  A    between atoms: C_3  and  O_8
REMARK    4  A    between atoms: C_4  and  O_10
REMARK    5  A    between atoms: C_5  and  O_12
REMARK    6  A    between atoms: C_14  and  C_15
REMARK    7  A    between atoms: C_15  and  C_16
REMARK    8  A    between atoms: C_18  and  O_19
REMARK                            x       y       z     vdW  Elec       q    Type
REMARK                         _______ _______ _______ _____ _____    ______ ____
ROOT
ATOM      1  N   UNL     1      34.502 -17.078 -23.152  0.00  0.00    +0.393 N 
ATOM      2  C   UNL     1      34.839 -15.850 -22.389  0.00  0.00    +0.002 C 
ATOM      3  C   UNL     1      33.875 -14.701 -22.767  0.00  0.00    +0.123 C 
ATOM      4  C   UNL     1      33.893 -14.437 -24.273  0.00  0.00    +0.160 C 
ATOM      5  C   UNL     1      33.601 -15.720 -25.044  0.00  0.00    +0.119 C 
ATOM      6  C   UNL     1      34.549 -16.837 -24.604  0.00  0.00    -0.045 C 
ATOM      7  H   UNL     1      33.551 -17.324 -22.878  0.00  0.00    -0.079 HD
ENDROOT
BRANCH   3   8
ATOM      8  O   UNL     1      32.550 -15.039 -22.347  0.00  0.00    -0.384 OA
ATOM      9  H   UNL     1      32.567 -15.314 -21.417  0.00  0.00    +0.210 HD
ENDBRANCH   3   8
BRANCH   4  10
ATOM     10  O   UNL     1      32.913 -13.458 -24.608  0.00  0.00    -0.380 OA
ATOM     11  H   UNL     1      32.994 -13.226 -25.547  0.00  0.00    +0.211 HD
ENDBRANCH   4  10
BRANCH   5  12
ATOM     12  O   UNL     1      33.802 -15.492 -26.438  0.00  0.00    -0.384 OA
ATOM     13  H   UNL     1      34.046 -14.564 -26.581  0.00  0.00    +0.210 HD
ENDBRANCH   5  12
BRANCH   1  14
ATOM     14  C   UNL     1      35.381 -18.204 -22.823  0.00  0.00    -0.077 C 
BRANCH  14  15
ATOM     15  C   UNL     1      34.552 -19.452 -22.518  0.00  0.00    -0.023 C 
BRANCH  15  16
ATOM     16  C   UNL     1      34.445 -19.689 -21.012  0.00  0.00    -0.002 C 
ATOM     17  C   UNL     1      33.026 -20.051 -20.604  0.00  0.00    -0.000 C 
ENDBRANCH  15  16
ENDBRANCH  14  15
ENDBRANCH   1  14
BRANCH   2  18
ATOM     18  C   UNL     1      34.789 -16.073 -20.869  0.00  0.00    +0.119 C 
BRANCH  18  19
ATOM     19  O   UNL     1      34.855 -14.812 -20.237  0.00  0.00    -0.384 OA
ATOM     20  H   UNL     1      34.206 -14.778 -19.517  0.00  0.00    +0.210 HD
ENDBRANCH  18  19
ENDBRANCH   2  18
TORSDOF 8
ENDMDL
MODEL 3
REMARK VINA RESULT:      -6.6      2.631      4.009
REMARK  Name = 501391
REMARK  8 active torsions:
REMARK  status: ('A' for Active; 'I' for Inactive)
REMARK    1  A    between atoms: N_1  and  C_14
REMARK    2  A    between atoms: C_2  and  C_18
REMARK    3  A    between atoms: C_3  and  O_8
REMARK    4  A    between atoms: C_4  and  O_10
REMARK    5  A    between atoms: C_5  and  O_12
REMARK    6  A    between atoms: C_14  and  C_15
REMARK    7  A    between atoms: C_15  and  C_16
REMARK    8  A    between atoms: C_18  and  O_19
REMARK                            x       y       z     vdW  Elec       q    Type
REMARK                         _______ _______ _______ _____ _____    ______ ____
ROOT
ATOM      1  N   UNL     1      35.685 -24.320 -14.068  0.00  0.00    +0.393 N 
ATOM      2  C   UNL     1      36.442 -24.614 -12.825  0.00  0.00    +0.002 C 
ATOM      3  C   UNL     1      37.871 -25.096 -13.168  0.00  0.00    +0.123 C 
ATOM      4  C   UNL     1      37.837 -26.313 -14.094  0.00  0.00    +0.160 C 
ATOM      5  C   UNL     1      37.008 -26.014 -15.338  0.00  0.00    +0.119 C 
ATOM      6  C   UNL     1      35.622 -25.499 -14.949  0.00  0.00    -0.045 C 
ATOM      7  H   UNL     1      36.195 -23.572 -14.535  0.00  0.00    -0.079 HD
ENDROOT
BRANCH   3   8
ATOM      8  O   UNL     1      38.592 -24.029 -13.791  0.00  0.00    -0.384 OA
ATOM      9  H   UNL     1      39.543 -24.218 -13.754  0.00  0.00    +0.210 HD
ENDBRANCH   3   8
BRANCH   4  10
ATOM     10  O   UNL     1      39.161 -26.663 -14.487  0.00  0.00    -0.380 OA
ATOM     11  H   UNL     1      39.192 -26.786 -15.449  0.00  0.00    +0.211 HD
ENDBRANCH   4  10
BRANCH   5  12
ATOM     12  O   UNL     1      36.839 -27.212 -16.094  0.00  0.00    -0.384 OA
ATOM     13  H   UNL     1      35.896 -27.428 -16.152  0.00  0.00    +0.210 HD
ENDBRANCH   5  12
BRANCH   1  14
ATOM     14  C   UNL     1      34.323 -23.849 -13.799  0.00  0.00    -0.077 C 
BRANCH  14  15
ATOM     15  C   UNL     1      33.635 -23.445 -15.103  0.00  0.00    -0.023 C 
BRANCH  15  16
ATOM     16  C   UNL     1      32.155 -23.141 -14.876  0.00  0.00    -0.002 C 
ATOM     17  C   UNL     1      31.380 -23.136 -16.183  0.00  0.00    -0.000 C 
ENDBRANCH  15  16
ENDBRANCH  14  15
ENDBRANCH   1  14
BRANCH   2  18
ATOM     18  C   UNL     1      36.529 -23.396 -11.891  0.00  0.00    +0.119 C 
BRANCH  18  19
ATOM     19  O   UNL     1      37.781 -23.430 -11.240  0.00  0.00    -0.384 OA
ATOM     20  H   UNL     1      37.712 -23.968 -10.435  0.00  0.00    +0.210 HD
ENDBRANCH  18  19
ENDBRANCH   2  18
TORSDOF 8
ENDMDL
MODEL 4
REMARK VINA RESULT:      -6.5      9.236     11.979
REMARK  Name = 501391
REMARK  8 active torsions:
REMARK  status: ('A' for Active; 'I' for Inactive)
REMARK    1  A    between atoms: N_1  and  C_14
REMARK    2  A    between atoms: C_2  and  C_18
REMARK    3  A    between atoms: C_3  and  O_8
REMARK    4  A    between atoms: C_4  and  O_10
REMARK    5  A    between atoms: C_5  and  O_12
REMARK    6  A    between atoms: C_14  and  C_15
REMARK    7  A    between atoms: C_15  and  C_16
REMARK    8  A    between atoms: C_18  and  O_19
REMARK                            x       y       z     vdW  Elec       q    Type
REMARK                         _______ _______ _______ _____ _____    ______ ____
ROOT
ATOM      1  N   UNL     1      34.975 -18.110 -22.142  0.00  0.00    +0.393 N 
ATOM      2  C   UNL     1      34.169 -17.714 -23.325  0.00  0.00    +0.002 C 
ATOM      3  C   UNL     1      34.433 -16.233 -23.683  0.00  0.00    +0.123 C 
ATOM      4  C   UNL     1      34.151 -15.317 -22.492  0.00  0.00    +0.160 C 
ATOM      5  C   UNL     1      34.942 -15.771 -21.269  0.00  0.00    +0.119 C 
ATOM      6  C   UNL     1      34.683 -17.251 -20.982  0.00  0.00    -0.045 C 
ATOM      7  H   UNL     1      35.950 -17.993 -22.417  0.00  0.00    -0.079 HD
ENDROOT
BRANCH   3   8
ATOM      8  O   UNL     1      35.793 -16.084 -24.102  0.00  0.00    -0.384 OA
ATOM      9  H   UNL     1      36.295 -15.625 -23.410  0.00  0.00    +0.210 HD
ENDBRANCH   3   8
BRANCH   4  10
ATOM     10  O   UNL     1      34.513 -13.976 -22.811  0.00  0.00    -0.380 OA
ATOM     11  H   UNL     1      34.024 -13.687 -23.597  0.00  0.00    +0.211 HD
ENDBRANCH   4  10
BRANCH   5  12
ATOM     12  O   UNL     1      34.527 -15.019 -20.130  0.00  0.00    -0.384 OA
ATOM     13  H   UNL     1      34.176 -14.163 -20.419  0.00  0.00    +0.210 HD
ENDBRANCH   5  12
BRANCH   1  14
ATOM     14  C   UNL     1      34.770 -19.512 -21.765  0.00  0.00    -0.077 C 
BRANCH  14  15
ATOM     15  C   UNL     1      33.428 -19.678 -21.052  0.00  0.00    -0.023 C 
BRANCH  15  16
ATOM     16  C   UNL     1      33.478 -20.823 -20.041  0.00  0.00    -0.002 C 
ATOM     17  C   UNL     1      34.910 -21.217 -19.716  0.00  0.00    -0.000 C 
ENDBRANCH  15  16
ENDBRANCH  14  15
ENDBRANCH   1  14
BRANCH   2  18
ATOM     18  C   UNL     1      34.462 -18.592 -24.553  0.00  0.00    +0.119 C 
BRANCH  18  19
ATOM     19  O   UNL     1      34.327 -17.791 -25.707  0.00  0.00    -0.384 OA
ATOM     20  H   UNL     1      34.741 -16.928 -25.551  0.00  0.00    +0.210 HD
ENDBRANCH  18  19
ENDBRANCH   2  18
TORSDOF 8
ENDMDL
MODEL 5
REMARK VINA RESULT:      -6.5      1.816      3.070
REMARK  Name = 501391
REMARK  8 active torsions:
REMARK  status: ('A' for Active; 'I' for Inactive)
REMARK    1  A    between atoms: N_1  and  C_14
REMARK    2  A    between atoms: C_2  and  C_18
REMARK    3  A    between atoms: C_3  and  O_8
REMARK    4  A    between atoms: C_4  and  O_10
REMARK    5  A    between atoms: C_5  and  O_12
REMARK    6  A    between atoms: C_14  and  C_15
REMARK    7  A    between atoms: C_15  and  C_16
REMARK    8  A    between atoms: C_18  and  O_19
REMARK                            x       y       z     vdW  Elec       q    Type
REMARK                         _______ _______ _______ _____ _____    ______ ____
ROOT
ATOM      1  N   UNL     1      35.748 -23.077 -14.313  0.00  0.00    +0.393 N 
ATOM      2  C   UNL     1      35.034 -24.308 -13.891  0.00  0.00    +0.002 C 
ATOM      3  C   UNL     1      34.980 -24.395 -12.348  0.00  0.00    +0.123 C 
ATOM      4  C   UNL     1      36.383 -24.336 -11.741  0.00  0.00    +0.160 C 
ATOM      5  C   UNL     1      37.124 -23.096 -12.230  0.00  0.00    +0.119 C 
ATOM      6  C   UNL     1      37.112 -23.031 -13.758  0.00  0.00    -0.045 C 
ATOM      7  H   UNL     1      35.204 -22.298 -13.945  0.00  0.00    -0.079 HD
ENDROOT
BRANCH   3   8
ATOM      8  O   UNL     1      34.184 -23.319 -11.842  0.00  0.00    -0.384 OA
ATOM      9  H   UNL     1      34.376 -22.512 -12.344  0.00  0.00    +0.210 HD
ENDBRANCH   3   8
BRANCH   4  10
ATOM     10  O   UNL     1      36.298 -24.299 -10.319  0.00  0.00    -0.380 OA
ATOM     11  H   UNL     1      35.489 -23.833 -10.055  0.00  0.00    +0.211 HD
ENDBRANCH   4  10
BRANCH   5  12
ATOM     12  O   UNL     1      38.483 -23.157 -11.800  0.00  0.00    -0.384 OA
ATOM     13  H   UNL     1      38.656 -24.021 -11.395  0.00  0.00    +0.210 HD
ENDBRANCH   5  12
BRANCH   1  14
ATOM     14  C   UNL     1      35.819 -22.940 -15.771  0.00  0.00    -0.077 C 
BRANCH  14  15
ATOM     15  C   UNL     1      37.031 -22.096 -16.166  0.00  0.00    -0.023 C 
BRANCH  15  16
ATOM     16  C   UNL     1      36.943 -21.653 -17.626  0.00  0.00    -0.002 C 
ATOM     17  C   UNL     1      35.597 -22.008 -18.236  0.00  0.00    -0.000 C 
ENDBRANCH  15  16
ENDBRANCH  14  15
ENDBRANCH   1  14
BRANCH   2  18
ATOM     18  C   UNL     1      33.604 -24.376 -14.452  0.00  0.00    +0.119 C 
BRANCH  18  19
ATOM     19  O   UNL     1      32.839 -25.209 -13.606  0.00  0.00    -0.384 OA
ATOM     20  H   UNL     1      33.434 -25.743 -13.056  0.00  0.00    +0.210 HD
ENDBRANCH  18  19
ENDBRANCH   2  18
TORSDOF 8
ENDMDL
MODEL 6
REMARK VINA RESULT:      -6.4     10.259     12.810
REMARK  Name = 501391
REMARK  8 active torsions:
REMARK  status: ('A' for Active; 'I' for Inactive)
REMARK    1  A    between atoms: N_1  and  C_14
REMARK    2  A    between atoms: C_2  and  C_18
REMARK    3  A    between atoms: C_3  and  O_8
REMARK    4  A    between atoms: C_4  and  O_10
REMARK    5  A    between atoms: C_5  and  O_12
REMARK    6  A    between atoms: C_14  and  C_15
REMARK    7  A    between atoms: C_15  and  C_16
REMARK    8  A    between atoms: C_18  and  O_19
REMARK                            x       y       z     vdW  Elec       q    Type
REMARK                         _______ _______ _______ _____ _____    ______ ____
ROOT
ATOM      1  N   UNL     1      34.915 -16.511 -22.362  0.00  0.00    +0.393 N 
ATOM      2  C   UNL     1      34.087 -16.345 -23.583  0.00  0.00    +0.002 C 
ATOM      3  C   UNL     1      33.426 -14.947 -23.598  0.00  0.00    +0.123 C 
ATOM      4  C   UNL     1      32.597 -14.714 -22.334  0.00  0.00    +0.160 C 
ATOM      5  C   UNL     1      33.447 -14.944 -21.088  0.00  0.00    +0.119 C 
ATOM      6  C   UNL     1      34.114 -16.319 -21.141  0.00  0.00    -0.045 C 
ATOM      7  H   UNL     1      35.636 -15.792 -22.414  0.00  0.00    -0.079 HD
ENDROOT
BRANCH   3   8
ATOM      8  O   UNL     1      34.442 -13.946 -23.708  0.00  0.00    -0.384 OA
ATOM      9  H   UNL     1      34.547 -13.499 -22.853  0.00  0.00    +0.210 HD
ENDBRANCH   3   8
BRANCH   4  10
ATOM     10  O   UNL     1      32.097 -13.379 -22.319  0.00  0.00    -0.380 OA
ATOM     11  H   UNL     1      31.145 -13.389 -22.502  0.00  0.00    +0.211 HD
ENDBRANCH   4  10
BRANCH   5  12
ATOM     12  O   UNL     1      32.613 -14.900 -19.932  0.00  0.00    -0.384 OA
ATOM     13  H   UNL     1      32.889 -14.164 -19.363  0.00  0.00    +0.210 HD
ENDBRANCH   5  12
BRANCH   1  14
ATOM     14  C   UNL     1      35.575 -17.819 -22.302  0.00  0.00    -0.077 C 
BRANCH  14  15
ATOM     15  C   UNL     1      34.534 -18.938 -22.303  0.00  0.00    -0.023 C 
BRANCH  15  16
ATOM     16  C   UNL     1      34.633 -19.784 -21.034  0.00  0.00    -0.002 C 
ATOM     17  C   UNL     1      33.257 -20.154 -20.503  0.00  0.00    -0.000 C 
ENDBRANCH  15  16
ENDBRANCH  14  15
ENDBRANCH   1  14
BRANCH   2  18
ATOM     18  C   UNL     1      34.903 -16.534 -24.873  0.00  0.00    +0.119 C 
BRANCH  18  19
ATOM     19  O   UNL     1      34.129 -16.060 -25.955  0.00  0.00    -0.384 OA
ATOM     20  H   UNL     1      33.260 -16.491 -25.943  0.00  0.00    +0.210 HD
ENDBRANCH  18  19
ENDBRANCH   2  18
TORSDOF 8
ENDMDL
MODEL 7
REMARK VINA RESULT:      -6.4      2.295      3.282
REMARK  Name = 501391
REMARK  8 active torsions:
REMARK  status: ('A' for Active; 'I' for Inactive)
REMARK    1  A    between atoms: N_1  and  C_14
REMARK    2  A    between atoms: C_2  and  C_18
REMARK    3  A    between atoms: C_3  and  O_8
REMARK    4  A    between atoms: C_4  and  O_10
REMARK    5  A    between atoms: C_5  and  O_12
REMARK    6  A    between atoms: C_14  and  C_15
REMARK    7  A    between atoms: C_15  and  C_16
REMARK    8  A    between atoms: C_18  and  O_19
REMARK                            x       y       z     vdW  Elec       q    Type
REMARK                         _______ _______ _______ _____ _____    ______ ____
ROOT
ATOM      1  N   UNL     1      35.142 -24.141 -14.221  0.00  0.00    +0.393 N 
ATOM      2  C   UNL     1      36.371 -23.316 -14.336  0.00  0.00    +0.002 C 
ATOM      3  C   UNL     1      37.505 -23.918 -13.474  0.00  0.00    +0.123 C 
ATOM      4  C   UNL     1      37.073 -24.062 -12.014  0.00  0.00    +0.160 C 
ATOM      5  C   UNL     1      35.778 -24.862 -11.917  0.00  0.00    +0.119 C 
ATOM      6  C   UNL     1      34.703 -24.256 -12.820  0.00  0.00    -0.045 C 
ATOM      7  H   UNL     1      35.391 -25.063 -14.577  0.00  0.00    -0.079 HD
ENDROOT
BRANCH   3   8
ATOM      8  O   UNL     1      37.873 -25.195 -14.002  0.00  0.00    -0.384 OA
ATOM      9  H   UNL     1      38.681 -25.105 -14.530  0.00  0.00    +0.210 HD
ENDBRANCH   3   8
BRANCH   4  10
ATOM     10  O   UNL     1      38.089 -24.724 -11.267  0.00  0.00    -0.380 OA
ATOM     11  H   UNL     1      37.683 -25.374 -10.673  0.00  0.00    +0.211 HD
ENDBRANCH   4  10
BRANCH   5  12
ATOM     12  O   UNL     1      35.299 -24.828 -10.574  0.00  0.00    -0.384 OA
ATOM     13  H   UNL     1      35.638 -24.035 -10.130  0.00  0.00    +0.210 HD
ENDBRANCH   5  12
BRANCH   1  14
ATOM     14  C   UNL     1      34.036 -23.619 -15.029  0.00  0.00    -0.077 C 
BRANCH  14  15
ATOM     15  C   UNL     1      32.757 -23.550 -14.196  0.00  0.00    -0.023 C 
BRANCH  15  16
ATOM     16  C   UNL     1      31.563 -23.126 -15.050  0.00  0.00    -0.002 C 
ATOM     17  C   UNL     1      31.898 -23.161 -16.533  0.00  0.00    -0.000 C 
ENDBRANCH  15  16
ENDBRANCH  14  15
ENDBRANCH   1  14
BRANCH   2  18
ATOM     18  C   UNL     1      36.855 -23.186 -15.790  0.00  0.00    +0.119 C 
BRANCH  18  19
ATOM     19  O   UNL     1      38.267 -23.202 -15.786  0.00  0.00    -0.384 OA
ATOM     20  H   UNL     1      38.579 -24.115 -15.875  0.00  0.00    +0.210 HD
ENDBRANCH  18  19
ENDBRANCH   2  18
TORSDOF 8
ENDMDL
MODEL 8
REMARK VINA RESULT:      -6.3     11.548     14.255
REMARK  Name = 501391
REMARK  8 active torsions:
REMARK  status: ('A' for Active; 'I' for Inactive)
REMARK    1  A    between atoms: N_1  and  C_14
REMARK    2  A    between atoms: C_2  and  C_18
REMARK    3  A    between atoms: C_3  and  O_8
REMARK    4  A    between atoms: C_4  and  O_10
REMARK    5  A    between atoms: C_5  and  O_12
REMARK    6  A    between atoms: C_14  and  C_15
REMARK    7  A    between atoms: C_15  and  C_16
REMARK    8  A    between atoms: C_18  and  O_19
REMARK                            x       y       z     vdW  Elec       q    Type
REMARK                         _______ _______ _______ _____ _____    ______ ____
ROOT
ATOM      1  N   UNL     1      33.311 -14.260 -22.658  0.00  0.00    +0.393 N 
ATOM      2  C   UNL     1      33.588 -15.685 -22.344  0.00  0.00    +0.002 C 
ATOM      3  C   UNL     1      34.419 -16.332 -23.477  0.00  0.00    +0.123 C 
ATOM      4  C   UNL     1      33.715 -16.192 -24.828  0.00  0.00    +0.160 C 
ATOM      5  C   UNL     1      33.386 -14.729 -25.109  0.00  0.00    +0.119 C 
ATOM      6  C   UNL     1      32.605 -14.122 -23.943  0.00  0.00    -0.045 C 
ATOM      7  H   UNL     1      34.221 -13.806 -22.718  0.00  0.00    -0.079 HD
ENDROOT
BRANCH   3   8
ATOM      8  O   UNL     1      35.707 -15.713 -23.530  0.00  0.00    -0.384 OA
ATOM      9  H   UNL     1      35.622 -14.826 -23.913  0.00  0.00    +0.210 HD
ENDBRANCH   3   8
BRANCH   4  10
ATOM     10  O   UNL     1      34.553 -16.691 -25.867  0.00  0.00    -0.380 OA
ATOM     11  H   UNL     1      34.220 -16.385 -26.726  0.00  0.00    +0.211 HD
ENDBRANCH   4  10
BRANCH   5  12
ATOM     12  O   UNL     1      32.575 -14.643 -26.279  0.00  0.00    -0.384 OA
ATOM     13  H   UNL     1      32.846 -15.326 -26.912  0.00  0.00    +0.210 HD
ENDBRANCH   5  12
BRANCH   1  14
ATOM     14  C   UNL     1      32.533 -13.594 -21.609  0.00  0.00    -0.077 C 
BRANCH  14  15
ATOM     15  C   UNL     1      32.011 -12.248 -22.110  0.00  0.00    -0.023 C 
BRANCH  15  16
ATOM     16  C   UNL     1      31.018 -11.637 -21.121  0.00  0.00    -0.002 C 
ATOM     17  C   UNL     1      31.645 -11.446 -19.750  0.00  0.00    -0.000 C 
ENDBRANCH  15  16
ENDBRANCH  14  15
ENDBRANCH   1  14
BRANCH   2  18
ATOM     18  C   UNL     1      34.331 -15.856 -21.009  0.00  0.00    +0.119 C 
BRANCH  18  19
ATOM     19  O   UNL     1      35.107 -17.033 -21.087  0.00  0.00    -0.384 OA
ATOM     20  H   UNL     1      35.029 -17.526 -20.256  0.00  0.00    +0.210 HD
ENDBRANCH  18  19
ENDBRANCH   2  18
TORSDOF 8
ENDMDL
MODEL 9
REMARK VINA RESULT:      -6.2      2.968      4.455
REMARK  Name = 501391
REMARK  8 active torsions:
REMARK  status: ('A' for Active; 'I' for Inactive)
REMARK    1  A    between atoms: N_1  and  C_14
REMARK    2  A    between atoms: C_2  and  C_18
REMARK    3  A    between atoms: C_3  and  O_8
REMARK    4  A    between atoms: C_4  and  O_10
REMARK    5  A    between atoms: C_5  and  O_12
REMARK    6  A    between atoms: C_14  and  C_15
REMARK    7  A    between atoms: C_15  and  C_16
REMARK    8  A    between atoms: C_18  and  O_19
REMARK                            x       y       z     vdW  Elec       q    Type
REMARK                         _______ _______ _______ _____ _____    ______ ____
ROOT
ATOM      1  N   UNL     1      34.808 -23.396 -13.957  0.00  0.00    +0.393 N 
ATOM      2  C   UNL     1      35.719 -24.503 -13.573  0.00  0.00    +0.002 C 
ATOM      3  C   UNL     1      37.178 -24.152 -13.947  0.00  0.00    +0.123 C 
ATOM      4  C   UNL     1      37.304 -23.826 -15.436  0.00  0.00    +0.160 C 
ATOM      5  C   UNL     1      36.321 -22.727 -15.827  0.00  0.00    +0.119 C 
ATOM      6  C   UNL     1      34.901 -23.100 -15.397  0.00  0.00    -0.045 C 
ATOM      7  H   UNL     1      35.113 -22.584 -13.421  0.00  0.00    -0.079 HD
ENDROOT
BRANCH   3   8
ATOM      8  O   UNL     1      37.611 -23.035 -13.165  0.00  0.00    -0.384 OA
ATOM      9  H   UNL     1      38.084 -23.354 -12.381  0.00  0.00    +0.210 HD
ENDBRANCH   3   8
BRANCH   4  10
ATOM     10  O   UNL     1      38.629 -23.394 -15.731  0.00  0.00    -0.380 OA
ATOM     11  H   UNL     1      38.657 -22.424 -15.751  0.00  0.00    +0.211 HD
ENDBRANCH   4  10
BRANCH   5  12
ATOM     12  O   UNL     1      36.327 -22.569 -17.245  0.00  0.00    -0.384 OA
ATOM     13  H   UNL     1      35.424 -22.397 -17.555  0.00  0.00    +0.210 HD
ENDBRANCH   5  12
BRANCH   1  14
ATOM     14  C   UNL     1      33.410 -23.673 -13.614  0.00  0.00    -0.077 C 
BRANCH  14  15
ATOM     15  C   UNL     1      32.522 -23.530 -14.850  0.00  0.00    -0.023 C 
BRANCH  15  16
ATOM     16  C   UNL     1      31.275 -22.702 -14.541  0.00  0.00    -0.002 C 
ATOM     17  C   UNL     1      30.029 -23.325 -15.150  0.00  0.00    -0.000 C 
ENDBRANCH  15  16
ENDBRANCH  14  15
ENDBRANCH   1  14
BRANCH   2  18
ATOM     18  C   UNL     1      35.646 -24.827 -12.071  0.00  0.00    +0.119 C 
BRANCH  18  19
ATOM     19  O   UNL     1      36.685 -25.733 -11.767  0.00  0.00    -0.384 OA
ATOM     20  H   UNL     1      37.445 -25.245 -11.414  0.00  0.00    +0.210 HD
ENDBRANCH  18  19
ENDBRANCH   2  18
TORSDOF 8
ENDMDL
