MODEL 1
REMARK VINA RESULT:      -9.7      0.000      0.000
REMARK  Name = 5355
REMARK  7 active torsions:
REMARK  status: ('A' for Active; 'I' for Inactive)
REMARK    1  A    between atoms: C_1  and  C_9
REMARK    2  A    between atoms: C_3  and  O_26
REMARK    3  A    between atoms: C_4  and  S_20
REMARK    4  A    between atoms: N_8  and  C_11
REMARK    5  A    between atoms: C_11  and  C_13
REMARK    6  A    between atoms: N_12  and  C_18
REMARK    7  A    between atoms: S_20  and  N_23
REMARK                            x       y       z     vdW  Elec       q    Type
REMARK                         _______ _______ _______ _____ _____    ______ ____
ROOT
ATOM      1  C   UNL     1      32.072 -23.153 -16.345  0.00  0.00    +0.089 C 
ATOM      2  C   UNL     1      30.768 -23.026 -16.779  0.00  0.00    +0.027 C 
ATOM      3  C   UNL     1      32.392 -23.285 -15.008  0.00  0.00    +0.143 C 
ATOM      4  C   UNL     1      29.740 -23.031 -15.836  0.00  0.00    +0.122 C 
ATOM      5  C   UNL     1      31.364 -23.290 -14.066  0.00  0.00    +0.038 C 
ATOM      6  C   UNL     1      30.037 -23.162 -14.479  0.00  0.00    +0.023 C 
ENDROOT
BRANCH   1   9
ATOM      7  O   UNL     1      34.191 -23.763 -17.145  0.00  0.00    -0.270 OA
ATOM      8  N   UNL     1      32.873 -22.439 -18.518  0.00  0.00    -0.303 N 
ATOM      9  C   UNL     1      33.152 -23.145 -17.365  0.00  0.00    +0.249 C 
ATOM     10  H   UNL     1      32.008 -21.977 -18.597  0.00  0.00    +0.150 HD
BRANCH   8  11
ATOM     11  C   UNL     1      33.820 -22.359 -19.622  0.00  0.00    +0.069 C 
BRANCH  11  13
ATOM     12  N   UNL     1      35.569 -20.866 -20.608  0.00  0.00    +0.389 N 
ATOM     13  C   UNL     1      34.357 -20.942 -19.779  0.00  0.00    -0.038 C 
ATOM     14  C   UNL     1      33.375 -20.042 -20.533  0.00  0.00    -0.021 C 
ATOM     15  C   UNL     1      34.246 -19.075 -21.328  0.00  0.00    -0.025 C 
ATOM     16  C   UNL     1      35.677 -19.456 -20.988  0.00  0.00    -0.077 C 
ATOM     17  H   UNL     1      35.493 -21.485 -21.415  0.00  0.00    -0.080 HD
BRANCH  12  18
ATOM     18  C   UNL     1      36.768 -21.326 -19.919  0.00  0.00    -0.077 C 
ATOM     19  C   UNL     1      36.568 -21.335 -18.413  0.00  0.00    -0.025 C 
ENDBRANCH  12  18
ENDBRANCH  11  13
ENDBRANCH   8  11
ENDBRANCH   1   9
BRANCH   4  20
ATOM     20  S   UNL     1      28.079 -22.872 -16.354  0.00  0.00    +0.057 S 
ATOM     21  O   UNL     1      27.225 -22.923 -15.176  0.00  0.00    -0.153 OA
ATOM     22  O   UNL     1      27.986 -21.743 -17.268  0.00  0.00    -0.153 OA
BRANCH  20  23
ATOM     23  N   UNL     1      27.876 -24.317 -17.245  0.00  0.00    -0.203 NA
ATOM     24  H   UNL     1      28.766 -24.812 -17.296  0.00  0.00    +0.144 HD
ATOM     25  H   UNL     1      27.557 -24.092 -18.187  0.00  0.00    +0.144 HD
ENDBRANCH  20  23
ENDBRANCH   4  20
BRANCH   3  26
ATOM     26  O   UNL     1      33.682 -23.410 -14.584  0.00  0.00    -0.471 OA
ATOM     27  C   UNL     1      33.903 -24.179 -13.404  0.00  0.00    +0.252 C 
ENDBRANCH   3  26
TORSDOF 7
ENDMDL
MODEL 2
REMARK VINA RESULT:      -9.7      2.464      4.097
REMARK  Name = 5355
REMARK  7 active torsions:
REMARK  status: ('A' for Active; 'I' for Inactive)
REMARK    1  A    between atoms: C_1  and  C_9
REMARK    2  A    between atoms: C_3  and  O_26
REMARK    3  A    between atoms: C_4  and  S_20
REMARK    4  A    between atoms: N_8  and  C_11
REMARK    5  A    between atoms: C_11  and  C_13
REMARK    6  A    between atoms: N_12  and  C_18
REMARK    7  A    between atoms: S_20  and  N_23
REMARK                            x       y       z     vdW  Elec       q    Type
REMARK                         _______ _______ _______ _____ _____    ______ ____
ROOT
ATOM      1  C   UNL     1      32.974 -23.156 -16.749  0.00  0.00    +0.089 C 
ATOM      2  C   UNL     1      34.019 -23.503 -15.917  0.00  0.00    +0.027 C 
ATOM      3  C   UNL     1      31.677 -23.041 -16.290  0.00  0.00    +0.143 C 
ATOM      4  C   UNL     1      33.757 -23.746 -14.569  0.00  0.00    +0.122 C 
ATOM      5  C   UNL     1      31.414 -23.284 -14.942  0.00  0.00    +0.038 C 
ATOM      6  C   UNL     1      32.454 -23.637 -14.080  0.00  0.00    +0.023 C 
ENDROOT
BRANCH   1   9
ATOM      7  O   UNL     1      33.827 -23.777 -18.843  0.00  0.00    -0.270 OA
ATOM      8  N   UNL     1      32.872 -21.673 -18.663  0.00  0.00    -0.303 N 
ATOM      9  C   UNL     1      33.275 -22.903 -18.181  0.00  0.00    +0.249 C 
ATOM     10  H   UNL     1      32.436 -21.040 -18.049  0.00  0.00    +0.150 HD
BRANCH   8  11
ATOM     11  C   UNL     1      33.073 -21.285 -20.052  0.00  0.00    +0.069 C 
BRANCH  11  13
ATOM     12  N   UNL     1      35.311 -20.633 -20.960  0.00  0.00    +0.389 N 
ATOM     13  C   UNL     1      34.146 -20.210 -20.170  0.00  0.00    -0.038 C 
ATOM     14  C   UNL     1      33.642 -18.987 -20.938  0.00  0.00    -0.021 C 
ATOM     15  C   UNL     1      34.858 -18.456 -21.691  0.00  0.00    -0.025 C 
ATOM     16  C   UNL     1      35.997 -19.389 -21.314  0.00  0.00    -0.077 C 
ATOM     17  H   UNL     1      35.017 -21.166 -21.779  0.00  0.00    -0.080 HD
BRANCH  12  18
ATOM     18  C   UNL     1      36.194 -21.544 -20.244  0.00  0.00    -0.077 C 
ATOM     19  C   UNL     1      36.484 -21.038 -18.840  0.00  0.00    -0.025 C 
ENDBRANCH  12  18
ENDBRANCH  11  13
ENDBRANCH   8  11
ENDBRANCH   1   9
BRANCH   4  20
ATOM     20  S   UNL     1      35.058 -24.187 -13.491  0.00  0.00    +0.057 S 
ATOM     21  O   UNL     1      36.097 -23.171 -13.586  0.00  0.00    -0.153 OA
ATOM     22  O   UNL     1      34.490 -24.522 -12.192  0.00  0.00    -0.153 OA
BRANCH  20  23
ATOM     23  N   UNL     1      35.621 -25.622 -14.230  0.00  0.00    -0.203 NA
ATOM     24  H   UNL     1      36.628 -25.701 -14.095  0.00  0.00    +0.144 HD
ATOM     25  H   UNL     1      35.413 -25.593 -15.228  0.00  0.00    +0.144 HD
ENDBRANCH  20  23
ENDBRANCH   4  20
BRANCH   3  26
ATOM     26  O   UNL     1      30.647 -22.698 -17.115  0.00  0.00    -0.471 OA
ATOM     27  C   UNL     1      29.330 -22.777 -16.574  0.00  0.00    +0.252 C 
ENDBRANCH   3  26
TORSDOF 7
ENDMDL
MODEL 3
REMARK VINA RESULT:      -9.5      4.138      5.961
REMARK  Name = 5355
REMARK  7 active torsions:
REMARK  status: ('A' for Active; 'I' for Inactive)
REMARK    1  A    between atoms: C_1  and  C_9
REMARK    2  A    between atoms: C_3  and  O_26
REMARK    3  A    between atoms: C_4  and  S_20
REMARK    4  A    between atoms: N_8  and  C_11
REMARK    5  A    between atoms: C_11  and  C_13
REMARK    6  A    between atoms: N_12  and  C_18
REMARK    7  A    between atoms: S_20  and  N_23
REMARK                            x       y       z     vdW  Elec       q    Type
REMARK                         _______ _______ _______ _____ _____    ______ ____
ROOT
ATOM      1  C   UNL     1      35.554 -21.695 -18.790  0.00  0.00    +0.089 C 
ATOM      2  C   UNL     1      36.246 -22.058 -17.652  0.00  0.00    +0.027 C 
ATOM      3  C   UNL     1      34.227 -22.024 -18.979  0.00  0.00    +0.143 C 
ATOM      4  C   UNL     1      35.583 -22.783 -16.662  0.00  0.00    +0.122 C 
ATOM      5  C   UNL     1      33.564 -22.749 -17.989  0.00  0.00    +0.038 C 
ATOM      6  C   UNL     1      34.242 -23.129 -16.830  0.00  0.00    +0.023 C 
ENDROOT
BRANCH   1   9
ATOM      7  O   UNL     1      37.301 -21.395 -20.326  0.00  0.00    -0.270 OA
ATOM      8  N   UNL     1      35.709 -19.716 -20.181  0.00  0.00    -0.303 N 
ATOM      9  C   UNL     1      36.280 -20.924 -19.832  0.00  0.00    +0.249 C 
ATOM     10  H   UNL     1      34.887 -19.428 -19.724  0.00  0.00    +0.150 HD
BRANCH   8  11
ATOM     11  C   UNL     1      36.287 -18.858 -21.206  0.00  0.00    +0.069 C 
BRANCH  11  13
ATOM     12  N   UNL     1      35.251 -16.762 -22.094  0.00  0.00    +0.389 N 
ATOM     13  C   UNL     1      35.199 -18.230 -22.069  0.00  0.00    -0.038 C 
ATOM     14  C   UNL     1      35.362 -18.600 -23.545  0.00  0.00    -0.021 C 
ATOM     15  C   UNL     1      34.876 -17.380 -24.321  0.00  0.00    -0.025 C 
ATOM     16  C   UNL     1      34.452 -16.377 -23.260  0.00  0.00    -0.077 C 
ATOM     17  H   UNL     1      36.215 -16.435 -22.155  0.00  0.00    -0.080 HD
BRANCH  12  18
ATOM     18  C   UNL     1      34.744 -16.145 -20.875  0.00  0.00    -0.077 C 
ATOM     19  C   UNL     1      33.306 -15.687 -21.047  0.00  0.00    -0.025 C 
ENDBRANCH  12  18
ENDBRANCH  11  13
ENDBRANCH   8  11
ENDBRANCH   1   9
BRANCH   4  20
ATOM     20  S   UNL     1      36.431 -23.258 -15.210  0.00  0.00    +0.057 S 
ATOM     21  O   UNL     1      37.702 -22.550 -15.169  0.00  0.00    -0.153 OA
ATOM     22  O   UNL     1      35.511 -23.161 -14.085  0.00  0.00    -0.153 OA
BRANCH  20  23
ATOM     23  N   UNL     1      36.729 -24.910 -15.534  0.00  0.00    -0.203 NA
ATOM     24  H   UNL     1      36.109 -25.485 -14.964  0.00  0.00    +0.144 HD
ATOM     25  H   UNL     1      37.699 -25.129 -15.309  0.00  0.00    +0.144 HD
ENDBRANCH  20  23
ENDBRANCH   4  20
BRANCH   3  26
ATOM     26  O   UNL     1      33.548 -21.662 -20.105  0.00  0.00    -0.471 OA
ATOM     27  C   UNL     1      32.691 -20.527 -20.006  0.00  0.00    +0.252 C 
ENDBRANCH   3  26
TORSDOF 7
ENDMDL
MODEL 4
REMARK VINA RESULT:      -9.5      3.675      5.771
REMARK  Name = 5355
REMARK  7 active torsions:
REMARK  status: ('A' for Active; 'I' for Inactive)
REMARK    1  A    between atoms: C_1  and  C_9
REMARK    2  A    between atoms: C_3  and  O_26
REMARK    3  A    between atoms: C_4  and  S_20
REMARK    4  A    between atoms: N_8  and  C_11
REMARK    5  A    between atoms: C_11  and  C_13
REMARK    6  A    between atoms: N_12  and  C_18
REMARK    7  A    between atoms: S_20  and  N_23
REMARK                            x       y       z     vdW  Elec       q    Type
REMARK                         _______ _______ _______ _____ _____    ______ ____
ROOT
ATOM      1  C   UNL     1      35.961 -22.753 -15.963  0.00  0.00    +0.089 C 
ATOM      2  C   UNL     1      36.953 -23.037 -15.047  0.00  0.00    +0.027 C 
ATOM      3  C   UNL     1      34.664 -23.200 -15.804  0.00  0.00    +0.143 C 
ATOM      4  C   UNL     1      36.635 -23.802 -13.924  0.00  0.00    +0.122 C 
ATOM      5  C   UNL     1      34.347 -23.964 -14.682  0.00  0.00    +0.038 C 
ATOM      6  C   UNL     1      35.333 -24.266 -13.741  0.00  0.00    +0.023 C 
ENDROOT
BRANCH   1   9
ATOM      7  O   UNL     1      37.140 -21.030 -17.033  0.00  0.00    -0.270 OA
ATOM      8  N   UNL     1      35.696 -22.299 -18.330  0.00  0.00    -0.303 N 
ATOM      9  C   UNL     1      36.320 -21.937 -17.152  0.00  0.00    +0.249 C 
ATOM     10  H   UNL     1      35.053 -23.043 -18.319  0.00  0.00    +0.150 HD
BRANCH   8  11
ATOM     11  C   UNL     1      35.963 -21.614 -19.586  0.00  0.00    +0.069 C 
BRANCH  11  13
ATOM     12  N   UNL     1      35.065 -19.888 -21.158  0.00  0.00    +0.389 N 
ATOM     13  C   UNL     1      34.950 -20.502 -19.828  0.00  0.00    -0.038 C 
ATOM     14  C   UNL     1      33.514 -21.032 -19.823  0.00  0.00    -0.021 C 
ATOM     15  C   UNL     1      32.764 -20.169 -20.832  0.00  0.00    -0.025 C 
ATOM     16  C   UNL     1      33.795 -19.185 -21.359  0.00  0.00    -0.077 C 
ATOM     17  H   UNL     1      35.237 -20.598 -21.870  0.00  0.00    -0.080 HD
BRANCH  12  18
ATOM     18  C   UNL     1      36.200 -18.982 -21.279  0.00  0.00    -0.077 C 
ATOM     19  C   UNL     1      36.097 -18.137 -22.538  0.00  0.00    -0.025 C 
ENDBRANCH  12  18
ENDBRANCH  11  13
ENDBRANCH   8  11
ENDBRANCH   1   9
BRANCH   4  20
ATOM     20  S   UNL     1      37.869 -24.179 -12.746  0.00  0.00    +0.057 S 
ATOM     21  O   UNL     1      37.333 -25.166 -11.821  0.00  0.00    -0.153 OA
ATOM     22  O   UNL     1      39.114 -24.449 -13.452  0.00  0.00    -0.153 OA
BRANCH  20  23
ATOM     23  N   UNL     1      38.013 -22.682 -11.935  0.00  0.00    -0.203 NA
ATOM     24  H   UNL     1      38.813 -22.712 -11.304  0.00  0.00    +0.144 HD
ATOM     25  H   UNL     1      37.163 -22.504 -11.398  0.00  0.00    +0.144 HD
ENDBRANCH  20  23
ENDBRANCH   4  20
BRANCH   3  26
ATOM     26  O   UNL     1      33.687 -22.915 -16.712  0.00  0.00    -0.471 OA
ATOM     27  C   UNL     1      32.377 -23.400 -16.425  0.00  0.00    +0.252 C 
ENDBRANCH   3  26
TORSDOF 7
ENDMDL
MODEL 5
REMARK VINA RESULT:      -9.4      8.478     12.083
REMARK  Name = 5355
REMARK  7 active torsions:
REMARK  status: ('A' for Active; 'I' for Inactive)
REMARK    1  A    between atoms: C_1  and  C_9
REMARK    2  A    between atoms: C_3  and  O_26
REMARK    3  A    between atoms: C_4  and  S_20
REMARK    4  A    between atoms: N_8  and  C_11
REMARK    5  A    between atoms: C_11  and  C_13
REMARK    6  A    between atoms: N_12  and  C_18
REMARK    7  A    between atoms: S_20  and  N_23
REMARK                            x       y       z     vdW  Elec       q    Type
REMARK                         _______ _______ _______ _____ _____    ______ ____
ROOT
ATOM      1  C   UNL     1      33.398 -14.928 -23.348  0.00  0.00    +0.089 C 
ATOM      2  C   UNL     1      34.033 -15.825 -22.512  0.00  0.00    +0.027 C 
ATOM      3  C   UNL     1      33.400 -15.076 -24.720  0.00  0.00    +0.143 C 
ATOM      4  C   UNL     1      34.698 -16.915 -23.072  0.00  0.00    +0.122 C 
ATOM      5  C   UNL     1      34.065 -16.166 -25.281  0.00  0.00    +0.038 C 
ATOM      6  C   UNL     1      34.715 -17.087 -24.457  0.00  0.00    +0.023 C 
ENDROOT
BRANCH   1   9
ATOM      7  O   UNL     1      31.943 -13.967 -21.780  0.00  0.00    -0.270 OA
ATOM      8  N   UNL     1      32.981 -12.541 -23.285  0.00  0.00    -0.303 N 
ATOM      9  C   UNL     1      32.696 -13.773 -22.731  0.00  0.00    +0.249 C 
ATOM     10  H   UNL     1      33.600 -12.494 -24.047  0.00  0.00    +0.150 HD
BRANCH   8  11
ATOM     11  C   UNL     1      32.392 -11.312 -22.774  0.00  0.00    +0.069 C 
BRANCH  11  13
ATOM     12  N   UNL     1      33.110  -8.916 -22.744  0.00  0.00    +0.389 N 
ATOM     13  C   UNL     1      32.869 -10.105 -23.573  0.00  0.00    -0.038 C 
ATOM     14  C   UNL     1      34.235 -10.352 -24.215  0.00  0.00    -0.021 C 
ATOM     15  C   UNL     1      34.934  -8.997 -24.208  0.00  0.00    -0.025 C 
ATOM     16  C   UNL     1      33.939  -8.040 -23.575  0.00  0.00    -0.077 C 
ATOM     17  H   UNL     1      33.567  -9.172 -21.868  0.00  0.00    -0.080 HD
BRANCH  12  18
ATOM     18  C   UNL     1      31.885  -8.248 -22.322  0.00  0.00    -0.077 C 
ATOM     19  C   UNL     1      31.035  -7.853 -23.518  0.00  0.00    -0.025 C 
ENDBRANCH  12  18
ENDBRANCH  11  13
ENDBRANCH   8  11
ENDBRANCH   1   9
BRANCH   4  20
ATOM     20  S   UNL     1      35.511 -18.067 -22.041  0.00  0.00    +0.057 S 
ATOM     21  O   UNL     1      36.815 -18.360 -22.619  0.00  0.00    -0.153 OA
ATOM     22  O   UNL     1      35.417 -17.601 -20.664  0.00  0.00    -0.153 OA
BRANCH  20  23
ATOM     23  N   UNL     1      34.505 -19.436 -22.226  0.00  0.00    -0.203 NA
ATOM     24  H   UNL     1      35.074 -20.282 -22.207  0.00  0.00    +0.144 HD
ATOM     25  H   UNL     1      34.013 -19.378 -23.118  0.00  0.00    +0.144 HD
ENDBRANCH  20  23
ENDBRANCH   4  20
BRANCH   3  26
ATOM     26  O   UNL     1      32.770 -14.188 -25.543  0.00  0.00    -0.471 OA
ATOM     27  C   UNL     1      33.343 -13.983 -26.832  0.00  0.00    +0.252 C 
ENDBRANCH   3  26
TORSDOF 7
ENDMDL
MODEL 6
REMARK VINA RESULT:      -9.3      2.791      4.739
REMARK  Name = 5355
REMARK  7 active torsions:
REMARK  status: ('A' for Active; 'I' for Inactive)
REMARK    1  A    between atoms: C_1  and  C_9
REMARK    2  A    between atoms: C_3  and  O_26
REMARK    3  A    between atoms: C_4  and  S_20
REMARK    4  A    between atoms: N_8  and  C_11
REMARK    5  A    between atoms: C_11  and  C_13
REMARK    6  A    between atoms: N_12  and  C_18
REMARK    7  A    between atoms: S_20  and  N_23
REMARK                            x       y       z     vdW  Elec       q    Type
REMARK                         _______ _______ _______ _____ _____    ______ ____
ROOT
ATOM      1  C   UNL     1      33.447 -23.080 -17.252  0.00  0.00    +0.089 C 
ATOM      2  C   UNL     1      34.624 -23.470 -16.646  0.00  0.00    +0.027 C 
ATOM      3  C   UNL     1      32.250 -23.027 -16.565  0.00  0.00    +0.143 C 
ATOM      4  C   UNL     1      34.604 -23.823 -15.297  0.00  0.00    +0.122 C 
ATOM      5  C   UNL     1      32.230 -23.381 -15.217  0.00  0.00    +0.038 C 
ATOM      6  C   UNL     1      33.407 -23.779 -14.581  0.00  0.00    +0.023 C 
ENDROOT
BRANCH   1   9
ATOM      7  O   UNL     1      33.677 -23.582 -19.531  0.00  0.00    -0.270 OA
ATOM      8  N   UNL     1      33.286 -21.370 -18.962  0.00  0.00    -0.303 N 
ATOM      9  C   UNL     1      33.490 -22.708 -18.690  0.00  0.00    +0.249 C 
ATOM     10  H   UNL     1      33.145 -20.747 -18.214  0.00  0.00    +0.150 HD
BRANCH   8  11
ATOM     11  C   UNL     1      33.274 -20.853 -20.323  0.00  0.00    +0.069 C 
BRANCH  11  13
ATOM     12  N   UNL     1      34.977 -19.102 -20.861  0.00  0.00    +0.389 N 
ATOM     13  C   UNL     1      34.686 -20.541 -20.802  0.00  0.00    -0.038 C 
ATOM     14  C   UNL     1      35.744 -21.061 -19.828  0.00  0.00    -0.021 C 
ATOM     15  C   UNL     1      36.887 -20.054 -19.901  0.00  0.00    -0.025 C 
ATOM     16  C   UNL     1      36.438 -19.015 -20.915  0.00  0.00    -0.077 C 
ATOM     17  H   UNL     1      34.585 -18.621 -20.051  0.00  0.00    -0.080 HD
BRANCH  12  18
ATOM     18  C   UNL     1      34.361 -18.434 -22.001  0.00  0.00    -0.077 C 
ATOM     19  C   UNL     1      34.815 -19.054 -23.312  0.00  0.00    -0.025 C 
ENDBRANCH  12  18
ENDBRANCH  11  13
ENDBRANCH   8  11
ENDBRANCH   1   9
BRANCH   4  20
ATOM     20  S   UNL     1      36.077 -24.322 -14.502  0.00  0.00    +0.057 S 
ATOM     21  O   UNL     1      36.715 -25.345 -15.318  0.00  0.00    -0.153 OA
ATOM     22  O   UNL     1      36.823 -23.130 -14.121  0.00  0.00    -0.153 OA
BRANCH  20  23
ATOM     23  N   UNL     1      35.453 -25.053 -13.089  0.00  0.00    -0.203 NA
ATOM     24  H   UNL     1      34.762 -25.756 -13.347  0.00  0.00    +0.144 HD
ATOM     25  H   UNL     1      35.013 -24.341 -12.505  0.00  0.00    +0.144 HD
ENDBRANCH  20  23
ENDBRANCH   4  20
BRANCH   3  26
ATOM     26  O   UNL     1      31.089 -22.640 -17.168  0.00  0.00    -0.471 OA
ATOM     27  C   UNL     1      29.882 -22.845 -16.437  0.00  0.00    +0.252 C 
ENDBRANCH   3  26
TORSDOF 7
ENDMDL
MODEL 7
REMARK VINA RESULT:      -9.2      3.914      7.356
REMARK  Name = 5355
REMARK  7 active torsions:
REMARK  status: ('A' for Active; 'I' for Inactive)
REMARK    1  A    between atoms: C_1  and  C_9
REMARK    2  A    between atoms: C_3  and  O_26
REMARK    3  A    between atoms: C_4  and  S_20
REMARK    4  A    between atoms: N_8  and  C_11
REMARK    5  A    between atoms: C_11  and  C_13
REMARK    6  A    between atoms: N_12  and  C_18
REMARK    7  A    between atoms: S_20  and  N_23
REMARK                            x       y       z     vdW  Elec       q    Type
REMARK                         _______ _______ _______ _____ _____    ______ ____
ROOT
ATOM      1  C   UNL     1      35.135 -23.508 -15.521  0.00  0.00    +0.089 C 
ATOM      2  C   UNL     1      35.079 -24.068 -14.261  0.00  0.00    +0.027 C 
ATOM      3  C   UNL     1      36.295 -22.960 -16.031  0.00  0.00    +0.143 C 
ATOM      4  C   UNL     1      36.232 -24.080 -13.477  0.00  0.00    +0.122 C 
ATOM      5  C   UNL     1      37.448 -22.973 -15.247  0.00  0.00    +0.038 C 
ATOM      6  C   UNL     1      37.417 -23.532 -13.969  0.00  0.00    +0.023 C 
ENDROOT
BRANCH   1   9
ATOM      7  O   UNL     1      33.919 -23.989 -17.468  0.00  0.00    -0.270 OA
ATOM      8  N   UNL     1      32.783 -22.960 -15.730  0.00  0.00    -0.303 N 
ATOM      9  C   UNL     1      33.895 -23.505 -16.340  0.00  0.00    +0.249 C 
ATOM     10  H   UNL     1      32.868 -22.597 -14.820  0.00  0.00    +0.150 HD
BRANCH   8  11
ATOM     11  C   UNL     1      31.487 -22.907 -16.393  0.00  0.00    +0.069 C 
BRANCH  11  13
ATOM     12  N   UNL     1      29.297 -24.101 -16.203  0.00  0.00    +0.389 N 
ATOM     13  C   UNL     1      30.385 -23.428 -15.479  0.00  0.00    -0.038 C 
ATOM     14  C   UNL     1      30.895 -24.523 -14.540  0.00  0.00    -0.021 C 
ATOM     15  C   UNL     1      29.717 -25.473 -14.354  0.00  0.00    -0.025 C 
ATOM     16  C   UNL     1      28.591 -24.878 -15.182  0.00  0.00    -0.077 C 
ATOM     17  H   UNL     1      29.670 -24.685 -16.952  0.00  0.00    -0.080 HD
BRANCH  12  18
ATOM     18  C   UNL     1      28.400 -23.178 -16.886  0.00  0.00    -0.077 C 
ATOM     19  C   UNL     1      27.519 -22.435 -15.897  0.00  0.00    -0.025 C 
ENDBRANCH  12  18
ENDBRANCH  11  13
ENDBRANCH   8  11
ENDBRANCH   1   9
BRANCH   4  20
ATOM     20  S   UNL     1      36.194 -24.781 -11.877  0.00  0.00    +0.057 S 
ATOM     21  O   UNL     1      37.151 -24.069 -11.042  0.00  0.00    -0.153 OA
ATOM     22  O   UNL     1      34.805 -24.891 -11.454  0.00  0.00    -0.153 OA
BRANCH  20  23
ATOM     23  N   UNL     1      36.797 -26.348 -12.194  0.00  0.00    -0.203 NA
ATOM     24  H   UNL     1      37.772 -26.402 -11.905  0.00  0.00    +0.144 HD
ATOM     25  H   UNL     1      36.727 -26.543 -13.193  0.00  0.00    +0.144 HD
ENDBRANCH  20  23
ENDBRANCH   4  20
BRANCH   3  26
ATOM     26  O   UNL     1      36.345 -22.409 -17.278  0.00  0.00    -0.471 OA
ATOM     27  C   UNL     1      37.105 -21.212 -17.425  0.00  0.00    +0.252 C 
ENDBRANCH   3  26
TORSDOF 7
ENDMDL
MODEL 8
REMARK VINA RESULT:      -9.2      8.725     11.998
REMARK  Name = 5355
REMARK  7 active torsions:
REMARK  status: ('A' for Active; 'I' for Inactive)
REMARK    1  A    between atoms: C_1  and  C_9
REMARK    2  A    between atoms: C_3  and  O_26
REMARK    3  A    between atoms: C_4  and  S_20
REMARK    4  A    between atoms: N_8  and  C_11
REMARK    5  A    between atoms: C_11  and  C_13
REMARK    6  A    between atoms: N_12  and  C_18
REMARK    7  A    between atoms: S_20  and  N_23
REMARK                            x       y       z     vdW  Elec       q    Type
REMARK                         _______ _______ _______ _____ _____    ______ ____
ROOT
ATOM      1  C   UNL     1      33.531 -14.397 -23.798  0.00  0.00    +0.089 C 
ATOM      2  C   UNL     1      34.101 -15.139 -22.783  0.00  0.00    +0.027 C 
ATOM      3  C   UNL     1      33.347 -14.908 -25.067  0.00  0.00    +0.143 C 
ATOM      4  C   UNL     1      34.504 -16.447 -23.048  0.00  0.00    +0.122 C 
ATOM      5  C   UNL     1      33.750 -16.216 -25.332  0.00  0.00    +0.038 C 
ATOM      6  C   UNL     1      34.329 -16.987 -24.323  0.00  0.00    +0.023 C 
ENDROOT
BRANCH   1   9
ATOM      7  O   UNL     1      33.800 -12.068 -23.888  0.00  0.00    -0.270 OA
ATOM      8  N   UNL     1      31.927 -12.883 -22.792  0.00  0.00    -0.303 N 
ATOM      9  C   UNL     1      33.110 -13.005 -23.494  0.00  0.00    +0.249 C 
ATOM     10  H   UNL     1      31.448 -13.698 -22.522  0.00  0.00    +0.150 HD
BRANCH   8  11
ATOM     11  C   UNL     1      31.368 -11.585 -22.442  0.00  0.00    +0.069 C 
BRANCH  11  13
ATOM     12  N   UNL     1      31.618  -9.656 -20.869  0.00  0.00    +0.389 N 
ATOM     13  C   UNL     1      32.005 -11.042 -21.169  0.00  0.00    -0.038 C 
ATOM     14  C   UNL     1      31.533 -11.801 -19.928  0.00  0.00    -0.021 C 
ATOM     15  C   UNL     1      31.498 -10.764 -18.811  0.00  0.00    -0.025 C 
ATOM     16  C   UNL     1      31.958  -9.468 -19.457  0.00  0.00    -0.077 C 
ATOM     17  H   UNL     1      30.626  -9.510 -21.056  0.00  0.00    -0.080 HD
BRANCH  12  18
ATOM     18  C   UNL     1      32.287  -8.675 -21.714  0.00  0.00    -0.077 C 
ATOM     19  C   UNL     1      32.807  -7.506 -20.893  0.00  0.00    -0.025 C 
ENDBRANCH  12  18
ENDBRANCH  11  13
ENDBRANCH   8  11
ENDBRANCH   1   9
BRANCH   4  20
ATOM     20  S   UNL     1      35.228 -17.412 -21.785  0.00  0.00    +0.057 S 
ATOM     21  O   UNL     1      36.455 -18.000 -22.303  0.00  0.00    -0.153 OA
ATOM     22  O   UNL     1      35.264 -16.621 -20.563  0.00  0.00    -0.153 OA
BRANCH  20  23
ATOM     23  N   UNL     1      34.058 -18.645 -21.606  0.00  0.00    -0.203 NA
ATOM     24  H   UNL     1      33.491 -18.458 -20.780  0.00  0.00    +0.144 HD
ATOM     25  H   UNL     1      34.527 -19.545 -21.500  0.00  0.00    +0.144 HD
ENDBRANCH  20  23
ENDBRANCH   4  20
BRANCH   3  26
ATOM     26  O   UNL     1      32.783 -14.171 -26.067  0.00  0.00    -0.471 OA
ATOM     27  C   UNL     1      33.652 -13.703 -27.095  0.00  0.00    +0.252 C 
ENDBRANCH   3  26
TORSDOF 7
ENDMDL
MODEL 9
REMARK VINA RESULT:      -9.1      3.456      7.414
REMARK  Name = 5355
REMARK  7 active torsions:
REMARK  status: ('A' for Active; 'I' for Inactive)
REMARK    1  A    between atoms: C_1  and  C_9
REMARK    2  A    between atoms: C_3  and  O_26
REMARK    3  A    between atoms: C_4  and  S_20
REMARK    4  A    between atoms: N_8  and  C_11
REMARK    5  A    between atoms: C_11  and  C_13
REMARK    6  A    between atoms: N_12  and  C_18
REMARK    7  A    between atoms: S_20  and  N_23
REMARK                            x       y       z     vdW  Elec       q    Type
REMARK                         _______ _______ _______ _____ _____    ______ ____
ROOT
ATOM      1  C   UNL     1      34.957 -21.630 -19.470  0.00  0.00    +0.089 C 
ATOM      2  C   UNL     1      34.547 -20.790 -20.485  0.00  0.00    +0.027 C 
ATOM      3  C   UNL     1      36.186 -21.494 -18.856  0.00  0.00    +0.143 C 
ATOM      4  C   UNL     1      35.401 -19.770 -20.904  0.00  0.00    +0.122 C 
ATOM      5  C   UNL     1      37.041 -20.475 -19.275  0.00  0.00    +0.038 C 
ATOM      6  C   UNL     1      36.649 -19.612 -20.300  0.00  0.00    +0.023 C 
ENDROOT
BRANCH   1   9
ATOM      7  O   UNL     1      33.895 -23.703 -19.749  0.00  0.00    -0.270 OA
ATOM      8  N   UNL     1      33.405 -22.504 -17.827  0.00  0.00    -0.303 N 
ATOM      9  C   UNL     1      34.032 -22.710 -19.039  0.00  0.00    +0.249 C 
ATOM     10  H   UNL     1      33.583 -21.672 -17.333  0.00  0.00    +0.150 HD
BRANCH   8  11
ATOM     11  C   UNL     1      32.490 -23.482 -17.256  0.00  0.00    +0.069 C 
BRANCH  11  13
ATOM     12  N   UNL     1      30.557 -23.591 -15.671  0.00  0.00    +0.389 N 
ATOM     13  C   UNL     1      31.840 -22.947 -15.986  0.00  0.00    -0.038 C 
ATOM     14  C   UNL     1      32.684 -23.250 -14.746  0.00  0.00    -0.021 C 
ATOM     15  C   UNL     1      31.679 -23.471 -13.620  0.00  0.00    -0.025 C 
ATOM     16  C   UNL     1      30.315 -23.277 -14.261  0.00  0.00    -0.077 C 
ATOM     17  H   UNL     1      30.604 -24.594 -15.847  0.00  0.00    -0.080 HD
BRANCH  12  18
ATOM     18  C   UNL     1      29.460 -23.134 -16.515  0.00  0.00    -0.077 C 
ATOM     19  C   UNL     1      28.408 -22.402 -15.700  0.00  0.00    -0.025 C 
ENDBRANCH  12  18
ENDBRANCH  11  13
ENDBRANCH   8  11
ENDBRANCH   1   9
BRANCH   4  20
ATOM     20  S   UNL     1      34.910 -18.691 -22.187  0.00  0.00    +0.057 S 
ATOM     21  O   UNL     1      34.345 -19.488 -23.266  0.00  0.00    -0.153 OA
ATOM     22  O   UNL     1      34.134 -17.605 -21.605  0.00  0.00    -0.153 OA
BRANCH  20  23
ATOM     23  N   UNL     1      36.423 -18.074 -22.690  0.00  0.00    -0.203 NA
ATOM     24  H   UNL     1      36.278 -17.342 -23.384  0.00  0.00    +0.144 HD
ATOM     25  H   UNL     1      36.976 -18.827 -23.100  0.00  0.00    +0.144 HD
ENDBRANCH  20  23
ENDBRANCH   4  20
BRANCH   3  26
ATOM     26  O   UNL     1      36.588 -22.326 -17.853  0.00  0.00    -0.471 OA
ATOM     27  C   UNL     1      37.169 -21.719 -16.702  0.00  0.00    +0.252 C 
ENDBRANCH   3  26
TORSDOF 7
ENDMDL
