MODEL 1
REMARK VINA RESULT:     -10.7      0.000      0.000
REMARK  Name = 1723
REMARK  9 active torsions:
REMARK  status: ('A' for Active; 'I' for Inactive)
REMARK    1  A    between atoms: S_1  and  C_2
REMARK    2  A    between atoms: S_1  and  C_18
REMARK    3  A    between atoms: C_2  and  C_5
REMARK    4  A    between atoms: C_6  and  N_15
REMARK    5  A    between atoms: C_18  and  C_20
REMARK    6  A    between atoms: C_19  and  C_25
REMARK    7  A    between atoms: C_25  and  C_29
REMARK    8  A    between atoms: C_25  and  O_30
REMARK    9  A    between atoms: C_25  and  O_32
REMARK                            x       y       z     vdW  Elec       q    Type
REMARK                         _______ _______ _______ _____ _____    ______ ____
ROOT
ATOM      1  S   UNL     1      33.657 -20.184 -20.245  0.00  0.00    -0.131 S 
ENDROOT
BRANCH   1   2
ATOM      2  C   UNL     1      33.953 -21.963 -20.014  0.00  0.00    +0.087 C 
BRANCH   2   5
ATOM      3  F   UNL     1      32.040 -23.840 -15.554  0.00  0.00    -0.208 F 
ATOM      4  N   UNL     1      36.335 -22.347 -17.118  0.00  0.00    -0.410 NA
ATOM      5  C   UNL     1      34.471 -22.283 -18.651  0.00  0.00    +0.024 C 
ATOM      6  C   UNL     1      33.643 -22.792 -17.661  0.00  0.00    +0.030 C 
ATOM      7  C   UNL     1      34.159 -23.082 -16.391  0.00  0.00    +0.137 C 
ATOM      8  C   UNL     1      35.798 -22.079 -18.331  0.00  0.00    +0.107 C 
ATOM      9  C   UNL     1      35.529 -22.841 -16.159  0.00  0.00    +0.120 C 
ATOM     10  C   UNL     1      33.346 -23.599 -15.367  0.00  0.00    +0.129 C 
ATOM     11  C   UNL     1      36.747 -21.534 -19.348  0.00  0.00    +0.066 C 
ATOM     12  C   UNL     1      36.041 -23.130 -14.897  0.00  0.00    +0.028 C 
ATOM     13  C   UNL     1      33.884 -23.878 -14.114  0.00  0.00    +0.026 C 
ATOM     14  C   UNL     1      35.233 -23.644 -13.879  0.00  0.00    +0.004 C 
BRANCH   6  15
ATOM     15  N   UNL     1      32.277 -23.005 -17.974  0.00  0.00    -0.360 N 
ATOM     16  H   UNL     1      31.649 -22.248 -17.978  0.00  0.00    +0.142 HD
ATOM     17  H   UNL     1      31.957 -23.912 -18.188  0.00  0.00    +0.142 HD
ENDBRANCH   6  15
ENDBRANCH   2   5
ENDBRANCH   1   2
BRANCH   1  18
ATOM     18  C   UNL     1      35.068 -19.822 -21.315  0.00  0.00    +0.084 C 
BRANCH  18  20
ATOM     19  C   UNL     1      34.419 -16.227 -22.293  0.00  0.00    +0.036 C 
ATOM     20  C   UNL     1      34.847 -18.589 -22.147  0.00  0.00    -0.011 C 
ATOM     21  C   UNL     1      34.623 -17.370 -21.521  0.00  0.00    -0.003 C 
ATOM     22  C   UNL     1      34.440 -16.313 -23.686  0.00  0.00    +0.001 C 
ATOM     23  C   UNL     1      34.870 -18.685 -23.533  0.00  0.00    -0.003 C 
ATOM     24  C   UNL     1      34.666 -17.542 -24.305  0.00  0.00    -0.000 C 
BRANCH  19  25
ATOM     25  C   UNL     1      34.178 -14.912 -21.631  0.00  0.00    +0.291 C 
BRANCH  25  29
ATOM     26  F   UNL     1      32.060 -15.840 -21.012  0.00  0.00    -0.165 F 
ATOM     27  F   UNL     1      32.518 -13.831 -20.304  0.00  0.00    -0.165 F 
ATOM     28  F   UNL     1      32.050 -14.169 -22.410  0.00  0.00    -0.165 F 
ATOM     29  C   UNL     1      32.688 -14.686 -21.337  0.00  0.00    +0.449 C 
ENDBRANCH  25  29
BRANCH  25  30
ATOM     30  O   UNL     1      34.643 -13.836 -22.464  0.00  0.00    -0.355 OA
ATOM     31  H   UNL     1      34.185 -13.866 -23.318  0.00  0.00    +0.213 HD
ENDBRANCH  25  30
BRANCH  25  32
ATOM     32  O   UNL     1      34.901 -14.834 -20.390  0.00  0.00    -0.355 OA
ATOM     33  H   UNL     1      34.742 -13.971 -19.976  0.00  0.00    +0.213 HD
ENDBRANCH  25  32
ENDBRANCH  19  25
ENDBRANCH  18  20
ENDBRANCH   1  18
TORSDOF 9
ENDMDL
MODEL 2
REMARK VINA RESULT:     -10.7      4.104      9.867
REMARK  Name = 1723
REMARK  9 active torsions:
REMARK  status: ('A' for Active; 'I' for Inactive)
REMARK    1  A    between atoms: S_1  and  C_2
REMARK    2  A    between atoms: S_1  and  C_18
REMARK    3  A    between atoms: C_2  and  C_5
REMARK    4  A    between atoms: C_6  and  N_15
REMARK    5  A    between atoms: C_18  and  C_20
REMARK    6  A    between atoms: C_19  and  C_25
REMARK    7  A    between atoms: C_25  and  C_29
REMARK    8  A    between atoms: C_25  and  O_30
REMARK    9  A    between atoms: C_25  and  O_32
REMARK                            x       y       z     vdW  Elec       q    Type
REMARK                         _______ _______ _______ _____ _____    ______ ____
ROOT
ATOM      1  S   UNL     1      33.868 -17.717 -21.061  0.00  0.00    -0.131 S 
ENDROOT
BRANCH   1   2
ATOM      2  C   UNL     1      35.178 -17.297 -22.249  0.00  0.00    +0.087 C 
BRANCH   2   5
ATOM      3  F   UNL     1      33.920 -12.383 -23.414  0.00  0.00    -0.208 F 
ATOM      4  N   UNL     1      33.911 -16.598 -25.729  0.00  0.00    -0.410 NA
ATOM      5  C   UNL     1      34.657 -16.553 -23.434  0.00  0.00    +0.024 C 
ATOM      6  C   UNL     1      34.427 -15.185 -23.389  0.00  0.00    +0.030 C 
ATOM      7  C   UNL     1      33.937 -14.515 -24.518  0.00  0.00    +0.137 C 
ATOM      8  C   UNL     1      34.384 -17.207 -24.618  0.00  0.00    +0.107 C 
ATOM      9  C   UNL     1      33.690 -15.271 -25.683  0.00  0.00    +0.120 C 
ATOM     10  C   UNL     1      33.695 -13.131 -24.504  0.00  0.00    +0.129 C 
ATOM     11  C   UNL     1      34.608 -18.680 -24.738  0.00  0.00    +0.066 C 
ATOM     12  C   UNL     1      33.203 -14.604 -26.804  0.00  0.00    +0.028 C 
ATOM     13  C   UNL     1      33.208 -12.491 -25.640  0.00  0.00    +0.026 C 
ATOM     14  C   UNL     1      32.962 -13.228 -26.791  0.00  0.00    +0.004 C 
BRANCH   6  15
ATOM     15  N   UNL     1      34.702 -14.499 -22.180  0.00  0.00    -0.360 N 
ATOM     16  H   UNL     1      35.328 -13.739 -22.176  0.00  0.00    +0.142 HD
ATOM     17  H   UNL     1      34.266 -14.782 -21.343  0.00  0.00    +0.142 HD
ENDBRANCH   6  15
ENDBRANCH   2   5
ENDBRANCH   1   2
BRANCH   1  18
ATOM     18  C   UNL     1      33.689 -19.466 -21.478  0.00  0.00    +0.084 C 
BRANCH  18  20
ATOM     19  C   UNL     1      34.360 -22.076 -18.824  0.00  0.00    +0.036 C 
ATOM     20  C   UNL     1      34.412 -20.357 -20.506  0.00  0.00    -0.011 C 
ATOM     21  C   UNL     1      33.688 -21.250 -19.725  0.00  0.00    -0.003 C 
ATOM     22  C   UNL     1      35.748 -22.004 -18.711  0.00  0.00    +0.001 C 
ATOM     23  C   UNL     1      35.795 -20.277 -20.400  0.00  0.00    -0.003 C 
ATOM     24  C   UNL     1      36.465 -21.104 -19.499  0.00  0.00    -0.000 C 
BRANCH  19  25
ATOM     25  C   UNL     1      33.592 -23.040 -17.981  0.00  0.00    +0.291 C 
BRANCH  25  29
ATOM     26  F   UNL     1      34.670 -24.333 -16.280  0.00  0.00    -0.165 F 
ATOM     27  F   UNL     1      35.127 -22.204 -16.361  0.00  0.00    -0.165 F 
ATOM     28  F   UNL     1      33.179 -22.878 -15.638  0.00  0.00    -0.165 F 
ATOM     29  C   UNL     1      34.147 -23.115 -16.552  0.00  0.00    +0.449 C 
ENDBRANCH  25  29
BRANCH  25  30
ATOM     30  O   UNL     1      33.638 -24.358 -18.555  0.00  0.00    -0.355 OA
ATOM     31  H   UNL     1      32.766 -24.584 -18.916  0.00  0.00    +0.213 HD
ENDBRANCH  25  30
BRANCH  25  32
ATOM     32  O   UNL     1      32.208 -22.654 -17.910  0.00  0.00    -0.355 OA
ATOM     33  H   UNL     1      32.127 -21.704 -18.090  0.00  0.00    +0.213 HD
ENDBRANCH  25  32
ENDBRANCH  19  25
ENDBRANCH  18  20
ENDBRANCH   1  18
TORSDOF 9
ENDMDL
MODEL 3
REMARK VINA RESULT:     -10.6      5.546     10.914
REMARK  Name = 1723
REMARK  9 active torsions:
REMARK  status: ('A' for Active; 'I' for Inactive)
REMARK    1  A    between atoms: S_1  and  C_2
REMARK    2  A    between atoms: S_1  and  C_18
REMARK    3  A    between atoms: C_2  and  C_5
REMARK    4  A    between atoms: C_6  and  N_15
REMARK    5  A    between atoms: C_18  and  C_20
REMARK    6  A    between atoms: C_19  and  C_25
REMARK    7  A    between atoms: C_25  and  C_29
REMARK    8  A    between atoms: C_25  and  O_30
REMARK    9  A    between atoms: C_25  and  O_32
REMARK                            x       y       z     vdW  Elec       q    Type
REMARK                         _______ _______ _______ _____ _____    ______ ____
ROOT
ATOM      1  S   UNL     1      33.217 -14.224 -21.825  0.00  0.00    -0.131 S 
ENDROOT
BRANCH   1   2
ATOM      2  C   UNL     1      32.211 -13.258 -22.991  0.00  0.00    +0.087 C 
BRANCH   2   5
ATOM      3  F   UNL     1      35.332  -9.768 -25.263  0.00  0.00    -0.208 F 
ATOM      4  N   UNL     1      31.951  -9.677 -21.845  0.00  0.00    -0.410 NA
ATOM      5  C   UNL     1      32.469 -11.791 -22.888  0.00  0.00    +0.024 C 
ATOM      6  C   UNL     1      33.416 -11.163 -23.684  0.00  0.00    +0.030 C 
ATOM      7  C   UNL     1      33.636  -9.784 -23.563  0.00  0.00    +0.137 C 
ATOM      8  C   UNL     1      31.769 -11.009 -21.991  0.00  0.00    +0.107 C 
ATOM      9  C   UNL     1      32.870  -9.070 -22.619  0.00  0.00    +0.120 C 
ATOM     10  C   UNL     1      34.588  -9.119 -24.355  0.00  0.00    +0.129 C 
ATOM     11  C   UNL     1      30.734 -11.619 -21.103  0.00  0.00    +0.066 C 
ATOM     12  C   UNL     1      33.089  -7.700 -22.500  0.00  0.00    +0.028 C 
ATOM     13  C   UNL     1      34.785  -7.748 -24.215  0.00  0.00    +0.026 C 
ATOM     14  C   UNL     1      34.035  -7.039 -23.287  0.00  0.00    +0.004 C 
BRANCH   6  15
ATOM     15  N   UNL     1      34.144 -11.952 -24.609  0.00  0.00    -0.360 N 
ATOM     16  H   UNL     1      33.688 -12.663 -25.116  0.00  0.00    +0.142 HD
ATOM     17  H   UNL     1      35.105 -11.790 -24.746  0.00  0.00    +0.142 HD
ENDBRANCH   6  15
ENDBRANCH   2   5
ENDBRANCH   1   2
BRANCH   1  18
ATOM     18  C   UNL     1      34.554 -14.680 -22.952  0.00  0.00    +0.084 C 
BRANCH  18  20
ATOM     19  C   UNL     1      34.622 -18.430 -22.465  0.00  0.00    +0.036 C 
ATOM     20  C   UNL     1      34.571 -16.155 -23.245  0.00  0.00    -0.011 C 
ATOM     21  C   UNL     1      34.607 -17.062 -22.193  0.00  0.00    -0.003 C 
ATOM     22  C   UNL     1      34.602 -18.880 -23.786  0.00  0.00    +0.001 C 
ATOM     23  C   UNL     1      34.551 -16.592 -24.563  0.00  0.00    -0.003 C 
ATOM     24  C   UNL     1      34.566 -17.960 -24.834  0.00  0.00    -0.000 C 
BRANCH  19  25
ATOM     25  C   UNL     1      34.659 -19.414 -21.344  0.00  0.00    +0.291 C 
BRANCH  25  29
ATOM     26  F   UNL     1      32.635 -18.493 -20.457  0.00  0.00    -0.165 F 
ATOM     27  F   UNL     1      32.477 -20.332 -21.616  0.00  0.00    -0.165 F 
ATOM     28  F   UNL     1      33.336 -20.375 -19.609  0.00  0.00    -0.165 F 
ATOM     29  C   UNL     1      33.264 -19.655 -20.751  0.00  0.00    +0.449 C 
ENDBRANCH  25  29
BRANCH  25  30
ATOM     30  O   UNL     1      35.523 -18.946 -20.293  0.00  0.00    -0.355 OA
ATOM     31  H   UNL     1      36.027 -19.693 -19.932  0.00  0.00    +0.213 HD
ENDBRANCH  25  30
BRANCH  25  32
ATOM     32  O   UNL     1      35.184 -20.674 -21.797  0.00  0.00    -0.355 OA
ATOM     33  H   UNL     1      34.521 -21.369 -21.657  0.00  0.00    +0.213 HD
ENDBRANCH  25  32
ENDBRANCH  19  25
ENDBRANCH  18  20
ENDBRANCH   1  18
TORSDOF 9
ENDMDL
MODEL 4
REMARK VINA RESULT:     -10.6      6.155      9.146
REMARK  Name = 1723
REMARK  9 active torsions:
REMARK  status: ('A' for Active; 'I' for Inactive)
REMARK    1  A    between atoms: S_1  and  C_2
REMARK    2  A    between atoms: S_1  and  C_18
REMARK    3  A    between atoms: C_2  and  C_5
REMARK    4  A    between atoms: C_6  and  N_15
REMARK    5  A    between atoms: C_18  and  C_20
REMARK    6  A    between atoms: C_19  and  C_25
REMARK    7  A    between atoms: C_25  and  C_29
REMARK    8  A    between atoms: C_25  and  O_30
REMARK    9  A    between atoms: C_25  and  O_32
REMARK                            x       y       z     vdW  Elec       q    Type
REMARK                         _______ _______ _______ _____ _____    ______ ____
ROOT
ATOM      1  S   UNL     1      32.326 -13.166 -21.495  0.00  0.00    -0.131 S 
ENDROOT
BRANCH   1   2
ATOM      2  C   UNL     1      33.528 -13.182 -22.859  0.00  0.00    +0.087 C 
BRANCH   2   5
ATOM      3  F   UNL     1      35.450 -17.619 -20.935  0.00  0.00    -0.208 F 
ATOM      4  N   UNL     1      33.761 -16.138 -25.186  0.00  0.00    -0.410 NA
ATOM      5  C   UNL     1      33.807 -14.561 -23.359  0.00  0.00    +0.024 C 
ATOM      6  C   UNL     1      34.346 -15.537 -22.534  0.00  0.00    +0.030 C 
ATOM      7  C   UNL     1      34.596 -16.823 -23.033  0.00  0.00    +0.137 C 
ATOM      8  C   UNL     1      33.535 -14.910 -24.666  0.00  0.00    +0.107 C 
ATOM      9  C   UNL     1      34.284 -17.083 -24.383  0.00  0.00    +0.120 C 
ATOM     10  C   UNL     1      35.142 -17.833 -22.222  0.00  0.00    +0.129 C 
ATOM     11  C   UNL     1      32.952 -13.909 -25.611  0.00  0.00    +0.066 C 
ATOM     12  C   UNL     1      34.533 -18.361 -24.878  0.00  0.00    +0.028 C 
ATOM     13  C   UNL     1      35.380 -19.101 -22.744  0.00  0.00    +0.026 C 
ATOM     14  C   UNL     1      35.075 -19.365 -24.073  0.00  0.00    +0.004 C 
BRANCH   6  15
ATOM     15  N   UNL     1      34.632 -15.195 -21.189  0.00  0.00    -0.360 N 
ATOM     16  H   UNL     1      35.212 -14.424 -20.989  0.00  0.00    +0.142 HD
ATOM     17  H   UNL     1      34.250 -15.727 -20.453  0.00  0.00    +0.142 HD
ENDBRANCH   6  15
ENDBRANCH   2   5
ENDBRANCH   1   2
BRANCH   1  18
ATOM     18  C   UNL     1      31.238 -11.867 -22.122  0.00  0.00    +0.084 C 
BRANCH  18  20
ATOM     19  C   UNL     1      32.403  -8.270 -22.204  0.00  0.00    +0.036 C 
ATOM     20  C   UNL     1      31.672 -10.499 -21.673  0.00  0.00    -0.011 C 
ATOM     21  C   UNL     1      32.002  -9.539 -22.621  0.00  0.00    -0.003 C 
ATOM     22  C   UNL     1      32.472  -7.972 -20.843  0.00  0.00    +0.001 C 
ATOM     23  C   UNL     1      31.737 -10.212 -20.316  0.00  0.00    -0.003 C 
ATOM     24  C   UNL     1      32.138  -8.943 -19.899  0.00  0.00    -0.000 C 
BRANCH  19  25
ATOM     25  C   UNL     1      32.759  -7.230 -23.214  0.00  0.00    +0.291 C 
BRANCH  25  29
ATOM     26  F   UNL     1      34.305  -8.592 -24.434  0.00  0.00    -0.165 F 
ATOM     27  F   UNL     1      34.523  -6.430 -24.603  0.00  0.00    -0.165 F 
ATOM     28  F   UNL     1      35.089  -7.445 -22.755  0.00  0.00    -0.165 F 
ATOM     29  C   UNL     1      34.182  -7.426 -23.757  0.00  0.00    +0.449 C 
ENDBRANCH  25  29
BRANCH  25  30
ATOM     30  O   UNL     1      32.671  -5.916 -22.637  0.00  0.00    -0.355 OA
ATOM     31  H   UNL     1      31.860  -5.482 -22.943  0.00  0.00    +0.213 HD
ENDBRANCH  25  30
BRANCH  25  32
ATOM     32  O   UNL     1      31.842  -7.271 -24.322  0.00  0.00    -0.355 OA
ATOM     33  H   UNL     1      32.310  -7.569 -25.118  0.00  0.00    +0.213 HD
ENDBRANCH  25  32
ENDBRANCH  19  25
ENDBRANCH  18  20
ENDBRANCH   1  18
TORSDOF 9
ENDMDL
MODEL 5
REMARK VINA RESULT:     -10.6      6.563      9.651
REMARK  Name = 1723
REMARK  9 active torsions:
REMARK  status: ('A' for Active; 'I' for Inactive)
REMARK    1  A    between atoms: S_1  and  C_2
REMARK    2  A    between atoms: S_1  and  C_18
REMARK    3  A    between atoms: C_2  and  C_5
REMARK    4  A    between atoms: C_6  and  N_15
REMARK    5  A    between atoms: C_18  and  C_20
REMARK    6  A    between atoms: C_19  and  C_25
REMARK    7  A    between atoms: C_25  and  C_29
REMARK    8  A    between atoms: C_25  and  O_30
REMARK    9  A    between atoms: C_25  and  O_32
REMARK                            x       y       z     vdW  Elec       q    Type
REMARK                         _______ _______ _______ _____ _____    ______ ____
ROOT
ATOM      1  S   UNL     1      33.729 -11.888 -24.016  0.00  0.00    -0.131 S 
ENDROOT
BRANCH   1   2
ATOM      2  C   UNL     1      32.605 -13.303 -23.815  0.00  0.00    +0.087 C 
BRANCH   2   5
ATOM      3  F   UNL     1      34.864 -16.219 -20.144  0.00  0.00    -0.208 F 
ATOM      4  N   UNL     1      34.195 -16.545 -24.895  0.00  0.00    -0.410 NA
ATOM      5  C   UNL     1      33.333 -14.605 -23.746  0.00  0.00    +0.024 C 
ATOM      6  C   UNL     1      33.821 -15.102 -22.546  0.00  0.00    +0.030 C 
ATOM      7  C   UNL     1      34.500 -16.327 -22.515  0.00  0.00    +0.137 C 
ATOM      8  C   UNL     1      33.545 -15.359 -24.883  0.00  0.00    +0.107 C 
ATOM      9  C   UNL     1      34.667 -17.025 -23.729  0.00  0.00    +0.120 C 
ATOM     10  C   UNL     1      35.006 -16.857 -21.315  0.00  0.00    +0.129 C 
ATOM     11  C   UNL     1      33.047 -14.885 -26.210  0.00  0.00    +0.066 C 
ATOM     12  C   UNL     1      35.342 -18.243 -23.697  0.00  0.00    +0.028 C 
ATOM     13  C   UNL     1      35.677 -18.077 -21.313  0.00  0.00    +0.026 C 
ATOM     14  C   UNL     1      35.845 -18.770 -22.505  0.00  0.00    +0.004 C 
BRANCH   6  15
ATOM     15  N   UNL     1      33.611 -14.339 -21.371  0.00  0.00    -0.360 N 
ATOM     16  H   UNL     1      34.355 -13.829 -20.976  0.00  0.00    +0.142 HD
ATOM     17  H   UNL     1      32.721 -14.318 -20.950  0.00  0.00    +0.142 HD
ENDBRANCH   6  15
ENDBRANCH   2   5
ENDBRANCH   1   2
BRANCH   1  18
ATOM     18  C   UNL     1      32.696 -10.624 -23.242  0.00  0.00    +0.084 C 
BRANCH  18  20
ATOM     19  C   UNL     1      32.660  -6.906 -23.937  0.00  0.00    +0.036 C 
ATOM     20  C   UNL     1      33.157  -9.232 -23.577  0.00  0.00    -0.011 C 
ATOM     21  C   UNL     1      32.232  -8.197 -23.627  0.00  0.00    -0.003 C 
ATOM     22  C   UNL     1      34.009  -6.661 -24.194  0.00  0.00    +0.001 C 
ATOM     23  C   UNL     1      34.502  -8.999 -23.831  0.00  0.00    -0.003 C 
ATOM     24  C   UNL     1      34.930  -7.708 -24.141  0.00  0.00    -0.000 C 
BRANCH  19  25
ATOM     25  C   UNL     1      31.675  -5.787 -23.993  0.00  0.00    +0.291 C 
BRANCH  25  29
ATOM     26  F   UNL     1      32.270  -5.542 -21.687  0.00  0.00    -0.165 F 
ATOM     27  F   UNL     1      31.070  -3.960 -22.586  0.00  0.00    -0.165 F 
ATOM     28  F   UNL     1      30.170  -5.901 -22.147  0.00  0.00    -0.165 F 
ATOM     29  C   UNL     1      31.293  -5.293 -22.590  0.00  0.00    +0.449 C 
ENDBRANCH  25  29
BRANCH  25  30
ATOM     30  O   UNL     1      30.476  -6.204 -24.669  0.00  0.00    -0.355 OA
ATOM     31  H   UNL     1      30.477  -7.170 -24.763  0.00  0.00    +0.213 HD
ENDBRANCH  25  30
BRANCH  25  32
ATOM     32  O   UNL     1      32.216  -4.677 -24.732  0.00  0.00    -0.355 OA
ATOM     33  H   UNL     1      32.833  -5.006 -25.404  0.00  0.00    +0.213 HD
ENDBRANCH  25  32
ENDBRANCH  19  25
ENDBRANCH  18  20
ENDBRANCH   1  18
TORSDOF 9
ENDMDL
MODEL 6
REMARK VINA RESULT:     -10.6      4.237      9.635
REMARK  Name = 1723
REMARK  9 active torsions:
REMARK  status: ('A' for Active; 'I' for Inactive)
REMARK    1  A    between atoms: S_1  and  C_2
REMARK    2  A    between atoms: S_1  and  C_18
REMARK    3  A    between atoms: C_2  and  C_5
REMARK    4  A    between atoms: C_6  and  N_15
REMARK    5  A    between atoms: C_18  and  C_20
REMARK    6  A    between atoms: C_19  and  C_25
REMARK    7  A    between atoms: C_25  and  C_29
REMARK    8  A    between atoms: C_25  and  O_30
REMARK    9  A    between atoms: C_25  and  O_32
REMARK                            x       y       z     vdW  Elec       q    Type
REMARK                         _______ _______ _______ _____ _____    ______ ____
ROOT
ATOM      1  S   UNL     1      34.432 -19.727 -21.171  0.00  0.00    -0.131 S 
ENDROOT
BRANCH   1   2
ATOM      2  C   UNL     1      35.665 -18.723 -22.053  0.00  0.00    +0.087 C 
BRANCH   2   5
ATOM      3  F   UNL     1      34.099 -13.768 -22.327  0.00  0.00    -0.208 F 
ATOM      4  N   UNL     1      34.187 -17.538 -25.311  0.00  0.00    -0.410 NA
ATOM      5  C   UNL     1      35.046 -17.826 -23.074  0.00  0.00    +0.024 C 
ATOM      6  C   UNL     1      34.750 -16.501 -22.792  0.00  0.00    +0.030 C 
ATOM      7  C   UNL     1      34.169 -15.685 -23.772  0.00  0.00    +0.137 C 
ATOM      8  C   UNL     1      34.747 -18.292 -24.338  0.00  0.00    +0.107 C 
ATOM      9  C   UNL     1      33.901 -16.252 -25.035  0.00  0.00    +0.120 C 
ATOM     10  C   UNL     1      33.856 -14.338 -23.517  0.00  0.00    +0.129 C 
ATOM     11  C   UNL     1      35.039 -19.710 -24.711  0.00  0.00    +0.066 C 
ATOM     12  C   UNL     1      33.323 -15.440 -26.008  0.00  0.00    +0.028 C 
ATOM     13  C   UNL     1      33.280 -13.550 -24.509  0.00  0.00    +0.026 C 
ATOM     14  C   UNL     1      33.013 -14.101 -25.755  0.00  0.00    +0.004 C 
BRANCH   6  15
ATOM     15  N   UNL     1      35.050 -16.008 -21.498  0.00  0.00    -0.360 N 
ATOM     16  H   UNL     1      35.320 -16.630 -20.784  0.00  0.00    +0.142 HD
ATOM     17  H   UNL     1      34.991 -15.042 -21.313  0.00  0.00    +0.142 HD
ENDBRANCH   6  15
ENDBRANCH   2   5
ENDBRANCH   1   2
BRANCH   1  18
ATOM     18  C   UNL     1      35.569 -20.833 -20.305  0.00  0.00    +0.084 C 
BRANCH  18  20
ATOM     19  C   UNL     1      34.994 -22.685 -17.058  0.00  0.00    +0.036 C 
ATOM     20  C   UNL     1      34.890 -21.590 -19.197  0.00  0.00    -0.011 C 
ATOM     21  C   UNL     1      35.624 -21.983 -18.085  0.00  0.00    -0.003 C 
ATOM     22  C   UNL     1      33.635 -22.988 -17.151  0.00  0.00    +0.001 C 
ATOM     23  C   UNL     1      33.537 -21.887 -19.300  0.00  0.00    -0.003 C 
ATOM     24  C   UNL     1      32.907 -22.588 -18.272  0.00  0.00    -0.000 C 
BRANCH  19  25
ATOM     25  C   UNL     1      35.772 -23.111 -15.858  0.00  0.00    +0.291 C 
BRANCH  25  29
ATOM     26  F   UNL     1      38.061 -23.060 -16.558  0.00  0.00    -0.165 F 
ATOM     27  F   UNL     1      37.069 -21.147 -16.234  0.00  0.00    -0.165 F 
ATOM     28  F   UNL     1      37.618 -22.396 -14.529  0.00  0.00    -0.165 F 
ATOM     29  C   UNL     1      37.143 -22.422 -15.794  0.00  0.00    +0.449 C 
ENDBRANCH  25  29
BRANCH  25  30
ATOM     30  O   UNL     1      35.980 -24.534 -15.873  0.00  0.00    -0.355 OA
ATOM     31  H   UNL     1      35.299 -24.955 -16.420  0.00  0.00    +0.213 HD
ENDBRANCH  25  30
BRANCH  25  32
ATOM     32  O   UNL     1      35.051 -22.798 -14.654  0.00  0.00    -0.355 OA
ATOM     33  H   UNL     1      35.323 -23.404 -13.947  0.00  0.00    +0.213 HD
ENDBRANCH  25  32
ENDBRANCH  19  25
ENDBRANCH  18  20
ENDBRANCH   1  18
TORSDOF 9
ENDMDL
MODEL 7
REMARK VINA RESULT:     -10.5      6.513      9.595
REMARK  Name = 1723
REMARK  9 active torsions:
REMARK  status: ('A' for Active; 'I' for Inactive)
REMARK    1  A    between atoms: S_1  and  C_2
REMARK    2  A    between atoms: S_1  and  C_18
REMARK    3  A    between atoms: C_2  and  C_5
REMARK    4  A    between atoms: C_6  and  N_15
REMARK    5  A    between atoms: C_18  and  C_20
REMARK    6  A    between atoms: C_19  and  C_25
REMARK    7  A    between atoms: C_25  and  C_29
REMARK    8  A    between atoms: C_25  and  O_30
REMARK    9  A    between atoms: C_25  and  O_32
REMARK                            x       y       z     vdW  Elec       q    Type
REMARK                         _______ _______ _______ _____ _____    ______ ____
ROOT
ATOM      1  S   UNL     1      33.485 -11.992 -23.964  0.00  0.00    -0.131 S 
ENDROOT
BRANCH   1   2
ATOM      2  C   UNL     1      32.401 -13.386 -23.533  0.00  0.00    +0.087 C 
BRANCH   2   5
ATOM      3  F   UNL     1      35.037 -17.550 -25.203  0.00  0.00    -0.208 F 
ATOM      4  N   UNL     1      33.925 -15.646 -20.930  0.00  0.00    -0.410 NA
ATOM      5  C   UNL     1      33.150 -14.524 -22.922  0.00  0.00    +0.024 C 
ATOM      6  C   UNL     1      33.755 -15.497 -23.703  0.00  0.00    +0.030 C 
ATOM      7  C   UNL     1      34.451 -16.553 -23.099  0.00  0.00    +0.137 C 
ATOM      8  C   UNL     1      33.262 -14.643 -21.551  0.00  0.00    +0.107 C 
ATOM      9  C   UNL     1      34.512 -16.589 -21.690  0.00  0.00    +0.120 C 
ATOM     10  C   UNL     1      35.075 -17.555 -23.862  0.00  0.00    +0.129 C 
ATOM     11  C   UNL     1      32.635 -13.631 -20.649  0.00  0.00    +0.066 C 
ATOM     12  C   UNL     1      35.204 -17.638 -21.091  0.00  0.00    +0.028 C 
ATOM     13  C   UNL     1      35.760 -18.592 -23.236  0.00  0.00    +0.026 C 
ATOM     14  C   UNL     1      35.824 -18.634 -21.850  0.00  0.00    +0.004 C 
BRANCH   6  15
ATOM     15  N   UNL     1      33.648 -15.389 -25.111  0.00  0.00    -0.360 N 
ATOM     16  H   UNL     1      33.316 -14.555 -25.517  0.00  0.00    +0.142 HD
ATOM     17  H   UNL     1      33.905 -16.147 -25.685  0.00  0.00    +0.142 HD
ENDBRANCH   6  15
ENDBRANCH   2   5
ENDBRANCH   1   2
BRANCH   1  18
ATOM     18  C   UNL     1      32.588 -10.686 -23.095  0.00  0.00    +0.084 C 
BRANCH  18  20
ATOM     19  C   UNL     1      32.663  -6.988 -23.882  0.00  0.00    +0.036 C 
ATOM     20  C   UNL     1      33.091  -9.316 -23.455  0.00  0.00    -0.011 C 
ATOM     21  C   UNL     1      32.195  -8.259 -23.548  0.00  0.00    -0.003 C 
ATOM     22  C   UNL     1      34.022  -6.784 -24.120  0.00  0.00    +0.001 C 
ATOM     23  C   UNL     1      34.447  -9.124 -23.690  0.00  0.00    -0.003 C 
ATOM     24  C   UNL     1      34.914  -7.853 -24.023  0.00  0.00    -0.000 C 
BRANCH  19  25
ATOM     25  C   UNL     1      31.709  -5.845 -23.984  0.00  0.00    +0.291 C 
BRANCH  25  29
ATOM     26  F   UNL     1      30.188  -5.865 -22.136  0.00  0.00    -0.165 F 
ATOM     27  F   UNL     1      32.297  -5.538 -21.695  0.00  0.00    -0.165 F 
ATOM     28  F   UNL     1      31.121  -3.962 -22.644  0.00  0.00    -0.165 F 
ATOM     29  C   UNL     1      31.325  -5.298 -22.602  0.00  0.00    +0.449 C 
ENDBRANCH  25  29
BRANCH  25  30
ATOM     30  O   UNL     1      30.507  -6.251 -24.661  0.00  0.00    -0.355 OA
ATOM     31  H   UNL     1      30.474  -7.219 -24.708  0.00  0.00    +0.213 HD
ENDBRANCH  25  30
BRANCH  25  32
ATOM     32  O   UNL     1      32.288  -4.773 -24.750  0.00  0.00    -0.355 OA
ATOM     33  H   UNL     1      32.723  -4.146 -24.152  0.00  0.00    +0.213 HD
ENDBRANCH  25  32
ENDBRANCH  19  25
ENDBRANCH  18  20
ENDBRANCH   1  18
TORSDOF 9
ENDMDL
MODEL 8
REMARK VINA RESULT:     -10.3      5.353     10.428
REMARK  Name = 1723
REMARK  9 active torsions:
REMARK  status: ('A' for Active; 'I' for Inactive)
REMARK    1  A    between atoms: S_1  and  C_2
REMARK    2  A    between atoms: S_1  and  C_18
REMARK    3  A    between atoms: C_2  and  C_5
REMARK    4  A    between atoms: C_6  and  N_15
REMARK    5  A    between atoms: C_18  and  C_20
REMARK    6  A    between atoms: C_19  and  C_25
REMARK    7  A    between atoms: C_25  and  C_29
REMARK    8  A    between atoms: C_25  and  O_30
REMARK    9  A    between atoms: C_25  and  O_32
REMARK                            x       y       z     vdW  Elec       q    Type
REMARK                         _______ _______ _______ _____ _____    ______ ____
ROOT
ATOM      1  S   UNL     1      33.965 -14.280 -23.128  0.00  0.00    -0.131 S 
ENDROOT
BRANCH   1   2
ATOM      2  C   UNL     1      32.598 -13.241 -23.726  0.00  0.00    +0.087 C 
BRANCH   2   5
ATOM      3  F   UNL     1      31.046 -10.029 -19.937  0.00  0.00    -0.208 F 
ATOM      4  N   UNL     1      33.738  -9.653 -23.904  0.00  0.00    -0.410 NA
ATOM      5  C   UNL     1      32.777 -11.802 -23.370  0.00  0.00    +0.024 C 
ATOM      6  C   UNL     1      32.194 -11.257 -22.236  0.00  0.00    +0.030 C 
ATOM      7  C   UNL     1      32.380  -9.902 -21.929  0.00  0.00    +0.137 C 
ATOM      8  C   UNL     1      33.534 -10.964 -24.165  0.00  0.00    +0.107 C 
ATOM      9  C   UNL     1      33.171  -9.126 -22.802  0.00  0.00    +0.120 C 
ATOM     10  C   UNL     1      31.803  -9.320 -20.787  0.00  0.00    +0.129 C 
ATOM     11  C   UNL     1      34.192 -11.485 -25.401  0.00  0.00    +0.066 C 
ATOM     12  C   UNL     1      33.356  -7.781 -22.496  0.00  0.00    +0.028 C 
ATOM     13  C   UNL     1      32.005  -7.972 -20.507  0.00  0.00    +0.026 C 
ATOM     14  C   UNL     1      32.782  -7.202 -21.362  0.00  0.00    +0.004 C 
BRANCH   6  15
ATOM     15  N   UNL     1      31.414 -12.104 -21.410  0.00  0.00    -0.360 N 
ATOM     16  H   UNL     1      30.462 -11.903 -21.259  0.00  0.00    +0.142 HD
ATOM     17  H   UNL     1      31.823 -12.894 -20.989  0.00  0.00    +0.142 HD
ENDBRANCH   6  15
ENDBRANCH   2   5
ENDBRANCH   1   2
BRANCH   1  18
ATOM     18  C   UNL     1      34.238 -15.241 -24.633  0.00  0.00    +0.084 C 
BRANCH  18  20
ATOM     19  C   UNL     1      34.745 -18.488 -22.761  0.00  0.00    +0.036 C 
ATOM     20  C   UNL     1      34.439 -16.704 -24.344  0.00  0.00    -0.011 C 
ATOM     21  C   UNL     1      34.559 -17.132 -23.028  0.00  0.00    -0.003 C 
ATOM     22  C   UNL     1      34.809 -19.405 -23.811  0.00  0.00    +0.001 C 
ATOM     23  C   UNL     1      34.502 -17.608 -25.397  0.00  0.00    -0.003 C 
ATOM     24  C   UNL     1      34.688 -18.964 -25.129  0.00  0.00    -0.000 C 
BRANCH  19  25
ATOM     25  C   UNL     1      34.874 -18.960 -21.351  0.00  0.00    +0.291 C 
BRANCH  25  29
ATOM     26  F   UNL     1      32.720 -18.431 -20.450  0.00  0.00    -0.165 F 
ATOM     27  F   UNL     1      32.874 -20.209 -21.700  0.00  0.00    -0.165 F 
ATOM     28  F   UNL     1      33.716 -20.213 -19.686  0.00  0.00    -0.165 F 
ATOM     29  C   UNL     1      33.534 -19.458 -20.791  0.00  0.00    +0.449 C 
ENDBRANCH  25  29
BRANCH  25  30
ATOM     30  O   UNL     1      35.351 -17.898 -20.507  0.00  0.00    -0.355 OA
ATOM     31  H   UNL     1      34.733 -17.767 -19.770  0.00  0.00    +0.213 HD
ENDBRANCH  25  30
BRANCH  25  32
ATOM     32  O   UNL     1      35.827 -20.034 -21.265  0.00  0.00    -0.355 OA
ATOM     33  H   UNL     1      36.383 -20.037 -22.060  0.00  0.00    +0.213 HD
ENDBRANCH  25  32
ENDBRANCH  19  25
ENDBRANCH  18  20
ENDBRANCH   1  18
TORSDOF 9
ENDMDL
MODEL 9
REMARK VINA RESULT:     -10.3      5.116      9.896
REMARK  Name = 1723
REMARK  9 active torsions:
REMARK  status: ('A' for Active; 'I' for Inactive)
REMARK    1  A    between atoms: S_1  and  C_2
REMARK    2  A    between atoms: S_1  and  C_18
REMARK    3  A    between atoms: C_2  and  C_5
REMARK    4  A    between atoms: C_6  and  N_15
REMARK    5  A    between atoms: C_18  and  C_20
REMARK    6  A    between atoms: C_19  and  C_25
REMARK    7  A    between atoms: C_25  and  C_29
REMARK    8  A    between atoms: C_25  and  O_30
REMARK    9  A    between atoms: C_25  and  O_32
REMARK                            x       y       z     vdW  Elec       q    Type
REMARK                         _______ _______ _______ _____ _____    ______ ____
ROOT
ATOM      1  S   UNL     1      34.022 -22.769 -15.454  0.00  0.00    -0.131 S 
ENDROOT
BRANCH   1   2
ATOM      2  C   UNL     1      34.451 -23.433 -17.092  0.00  0.00    +0.087 C 
BRANCH   2   5
ATOM      3  F   UNL     1      32.435 -20.686 -21.024  0.00  0.00    -0.208 F 
ATOM      4  N   UNL     1      36.688 -20.922 -18.794  0.00  0.00    -0.410 NA
ATOM      5  C   UNL     1      34.914 -22.372 -18.035  0.00  0.00    +0.024 C 
ATOM      6  C   UNL     1      34.071 -21.843 -19.002  0.00  0.00    +0.030 C 
ATOM      7  C   UNL     1      34.535 -20.848 -19.873  0.00  0.00    +0.137 C 
ATOM      8  C   UNL     1      36.203 -21.882 -17.973  0.00  0.00    +0.107 C 
ATOM      9  C   UNL     1      35.869 -20.411 -19.732  0.00  0.00    +0.120 C 
ATOM     10  C   UNL     1      33.707 -20.293 -20.864  0.00  0.00    +0.129 C 
ATOM     11  C   UNL     1      37.163 -22.405 -16.956  0.00  0.00    +0.066 C 
ATOM     12  C   UNL     1      36.329 -19.422 -20.597  0.00  0.00    +0.028 C 
ATOM     13  C   UNL     1      34.194 -19.305 -21.715  0.00  0.00    +0.026 C 
ATOM     14  C   UNL     1      35.505 -18.869 -21.582  0.00  0.00    +0.004 C 
BRANCH   6  15
ATOM     15  N   UNL     1      32.745 -22.337 -19.079  0.00  0.00    -0.360 N 
ATOM     16  H   UNL     1      32.064 -21.841 -19.587  0.00  0.00    +0.142 HD
ATOM     17  H   UNL     1      32.506 -23.177 -18.624  0.00  0.00    +0.142 HD
ENDBRANCH   6  15
ENDBRANCH   2   5
ENDBRANCH   1   2
BRANCH   1  18
ATOM     18  C   UNL     1      34.314 -24.264 -14.483  0.00  0.00    +0.084 C 
BRANCH  18  20
ATOM     19  C   UNL     1      37.923 -25.011 -13.630  0.00  0.00    +0.036 C 
ATOM     20  C   UNL     1      35.650 -24.239 -13.793  0.00  0.00    -0.011 C 
ATOM     21  C   UNL     1      36.684 -25.034 -14.271  0.00  0.00    -0.003 C 
ATOM     22  C   UNL     1      38.117 -24.193 -12.517  0.00  0.00    +0.001 C 
ATOM     23  C   UNL     1      35.834 -23.422 -12.685  0.00  0.00    -0.003 C 
ATOM     24  C   UNL     1      37.073 -23.399 -12.045  0.00  0.00    -0.000 C 
BRANCH  19  25
ATOM     25  C   UNL     1      39.041 -25.860 -14.136  0.00  0.00    +0.291 C 
BRANCH  25  29
ATOM     26  F   UNL     1      39.340 -24.008 -15.624  0.00  0.00    -0.165 F 
ATOM     27  F   UNL     1      41.058 -24.626 -14.433  0.00  0.00    -0.165 F 
ATOM     28  F   UNL     1      40.386 -25.859 -16.105  0.00  0.00    -0.165 F 
ATOM     29  C   UNL     1      39.965 -25.081 -15.083  0.00  0.00    +0.449 C 
ENDBRANCH  25  29
BRANCH  25  30
ATOM     30  O   UNL     1      38.526 -27.002 -14.843  0.00  0.00    -0.355 OA
ATOM     31  H   UNL     1      38.940 -27.809 -14.500  0.00  0.00    +0.213 HD
ENDBRANCH  25  30
BRANCH  25  32
ATOM     32  O   UNL     1      39.830 -26.357 -13.042  0.00  0.00    -0.355 OA
ATOM     33  H   UNL     1      39.910 -27.321 -13.112  0.00  0.00    +0.213 HD
ENDBRANCH  25  32
ENDBRANCH  19  25
ENDBRANCH  18  20
ENDBRANCH   1  18
TORSDOF 9
ENDMDL
