MODEL 1
REMARK VINA RESULT:      -9.0      0.000      0.000
REMARK  Name = 5323
REMARK  5 active torsions:
REMARK  status: ('A' for Active; 'I' for Inactive)
REMARK    1  A    between atoms: S_1  and  C_4
REMARK    2  A    between atoms: S_1  and  N_13
REMARK    3  A    between atoms: C_7  and  N_10
REMARK    4  A    between atoms: C_19  and  O_21
REMARK    5  A    between atoms: C_20  and  O_23
REMARK                            x       y       z     vdW  Elec       q    Type
REMARK                         _______ _______ _______ _____ _____    ______ ____
ROOT
ATOM      1  S   UNL     1      34.020 -23.022 -18.043  0.00  0.00    +0.075 S 
ATOM      2  O   UNL     1      35.219 -22.983 -17.213  0.00  0.00    -0.150 OA
ATOM      3  O   UNL     1      33.704 -24.248 -18.763  0.00  0.00    -0.150 OA
ENDROOT
BRANCH   1   4
ATOM      4  N   UNL     1      32.678 -22.565 -17.063  0.00  0.00    -0.191 N 
ATOM      5  H   UNL     1      32.119 -21.791 -17.298  0.00  0.00    +0.176 HD
ATOM      6  N   UNL     1      33.313 -23.280 -14.906  0.00  0.00    -0.299 NA
ATOM      7  N   UNL     1      31.944 -24.807 -13.640  0.00  0.00    -0.278 NA
ATOM      8  C   UNL     1      32.399 -23.351 -15.890  0.00  0.00    +0.201 C 
ATOM      9  C   UNL     1      31.252 -24.107 -15.837  0.00  0.00    +0.177 C 
ATOM     10  C   UNL     1      31.075 -24.824 -14.671  0.00  0.00    +0.275 C 
ATOM     11  C   UNL     1      33.025 -24.025 -13.822  0.00  0.00    +0.314 C 
BRANCH  10  12
ATOM     12  O   UNL     1      29.957 -25.605 -14.531  0.00  0.00    -0.450 OA
ATOM     13  C   UNL     1      28.708 -24.995 -14.830  0.00  0.00    +0.255 C 
ENDBRANCH  10  12
BRANCH  11  14
ATOM     14  O   UNL     1      33.934 -23.982 -12.789  0.00  0.00    -0.395 OA
ATOM     15  C   UNL     1      35.284 -24.276 -13.118  0.00  0.00    +0.271 C 
ENDBRANCH  11  14
ENDBRANCH   1   4
BRANCH   1  16
ATOM     16  C   UNL     1      34.126 -21.710 -19.191  0.00  0.00    +0.125 C 
ATOM     17  C   UNL     1      35.369 -21.308 -19.678  0.00  0.00    +0.021 C 
ATOM     18  C   UNL     1      32.967 -21.063 -19.619  0.00  0.00    +0.021 C 
ATOM     19  C   UNL     1      34.295 -19.613 -21.023  0.00  0.00    +0.042 C 
ATOM     20  C   UNL     1      35.454 -20.260 -20.594  0.00  0.00    +0.015 C 
ATOM     21  C   UNL     1      33.051 -20.015 -20.535  0.00  0.00    +0.015 C 
BRANCH  19  22
ATOM     22  N   UNL     1      34.379 -18.553 -21.948  0.00  0.00    -0.357 N 
ATOM     23  H   UNL     1      34.637 -18.733 -22.881  0.00  0.00    +0.142 HD
ATOM     24  H   UNL     1      34.180 -17.632 -21.661  0.00  0.00    +0.142 HD
ENDBRANCH  19  22
ENDBRANCH   1  16
TORSDOF 5
ENDMDL
MODEL 2
REMARK VINA RESULT:      -8.8      6.071     10.216
REMARK  Name = 5323
REMARK  5 active torsions:
REMARK  status: ('A' for Active; 'I' for Inactive)
REMARK    1  A    between atoms: S_1  and  C_4
REMARK    2  A    between atoms: S_1  and  N_13
REMARK    3  A    between atoms: C_7  and  N_10
REMARK    4  A    between atoms: C_19  and  O_21
REMARK    5  A    between atoms: C_20  and  O_23
REMARK                            x       y       z     vdW  Elec       q    Type
REMARK                         _______ _______ _______ _____ _____    ______ ____
ROOT
ATOM      1  S   UNL     1      34.606 -17.427 -21.414  0.00  0.00    +0.075 S 
ATOM      2  O   UNL     1      35.019 -17.524 -22.810  0.00  0.00    -0.150 OA
ATOM      3  O   UNL     1      35.456 -16.702 -20.479  0.00  0.00    -0.150 OA
ENDROOT
BRANCH   1   4
ATOM      4  N   UNL     1      33.013 -16.771 -21.374  0.00  0.00    -0.191 N 
ATOM      5  H   UNL     1      32.241 -17.330 -21.129  0.00  0.00    +0.176 HD
ATOM      6  N   UNL     1      33.092 -15.054 -22.990  0.00  0.00    -0.299 NA
ATOM      7  N   UNL     1      32.550 -12.776 -22.423  0.00  0.00    -0.278 NA
ATOM      8  C   UNL     1      32.845 -15.382 -21.710  0.00  0.00    +0.201 C 
ATOM      9  C   UNL     1      32.454 -14.492 -20.738  0.00  0.00    +0.177 C 
ATOM     10  C   UNL     1      32.321 -13.184 -21.158  0.00  0.00    +0.275 C 
ATOM     11  C   UNL     1      32.927 -13.749 -23.274  0.00  0.00    +0.314 C 
BRANCH  10  12
ATOM     12  O   UNL     1      31.933 -12.228 -20.256  0.00  0.00    -0.450 OA
ATOM     13  C   UNL     1      30.996 -11.260 -20.711  0.00  0.00    +0.255 C 
ENDBRANCH  10  12
BRANCH  11  14
ATOM     14  O   UNL     1      33.167 -13.368 -24.575  0.00  0.00    -0.395 OA
ATOM     15  C   UNL     1      33.029 -14.376 -25.567  0.00  0.00    +0.271 C 
ENDBRANCH  11  14
ENDBRANCH   1   4
BRANCH   1  16
ATOM     16  C   UNL     1      34.372 -19.050 -20.815  0.00  0.00    +0.125 C 
ATOM     17  C   UNL     1      33.082 -19.546 -20.628  0.00  0.00    +0.021 C 
ATOM     18  C   UNL     1      35.476 -19.851 -20.522  0.00  0.00    +0.021 C 
ATOM     19  C   UNL     1      34.000 -21.643 -19.855  0.00  0.00    +0.042 C 
ATOM     20  C   UNL     1      32.896 -20.842 -20.148  0.00  0.00    +0.015 C 
ATOM     21  C   UNL     1      35.290 -21.147 -20.041  0.00  0.00    +0.015 C 
BRANCH  19  22
ATOM     22  N   UNL     1      33.812 -22.953 -19.369  0.00  0.00    -0.357 N 
ATOM     23  H   UNL     1      33.835 -23.127 -18.400  0.00  0.00    +0.142 HD
ATOM     24  H   UNL     1      33.658 -23.695 -19.999  0.00  0.00    +0.142 HD
ENDBRANCH  19  22
ENDBRANCH   1  16
TORSDOF 5
ENDMDL
MODEL 3
REMARK VINA RESULT:      -8.7      2.685      6.288
REMARK  Name = 5323
REMARK  5 active torsions:
REMARK  status: ('A' for Active; 'I' for Inactive)
REMARK    1  A    between atoms: S_1  and  C_4
REMARK    2  A    between atoms: S_1  and  N_13
REMARK    3  A    between atoms: C_7  and  N_10
REMARK    4  A    between atoms: C_19  and  O_21
REMARK    5  A    between atoms: C_20  and  O_23
REMARK                            x       y       z     vdW  Elec       q    Type
REMARK                         _______ _______ _______ _____ _____    ______ ____
ROOT
ATOM      1  S   UNL     1      31.046 -24.299 -13.747  0.00  0.00    +0.075 S 
ATOM      2  O   UNL     1      31.608 -25.570 -14.190  0.00  0.00    -0.150 OA
ATOM      3  O   UNL     1      30.445 -24.221 -12.422  0.00  0.00    -0.150 OA
ENDROOT
BRANCH   1   4
ATOM      4  N   UNL     1      32.268 -23.093 -13.899  0.00  0.00    -0.191 N 
ATOM      5  H   UNL     1      32.353 -22.371 -13.236  0.00  0.00    +0.176 HD
ATOM      6  N   UNL     1      32.607 -22.954 -16.229  0.00  0.00    -0.299 NA
ATOM      7  N   UNL     1      34.783 -23.307 -17.202  0.00  0.00    -0.278 NA
ATOM      8  C   UNL     1      33.161 -23.173 -15.024  0.00  0.00    +0.201 C 
ATOM      9  C   UNL     1      34.490 -23.460 -14.817  0.00  0.00    +0.177 C 
ATOM     10  C   UNL     1      35.264 -23.515 -15.959  0.00  0.00    +0.275 C 
ATOM     11  C   UNL     1      33.466 -23.035 -17.263  0.00  0.00    +0.314 C 
BRANCH  10  12
ATOM     12  O   UNL     1      36.601 -23.794 -15.846  0.00  0.00    -0.450 OA
ATOM     13  C   UNL     1      37.494 -22.690 -15.929  0.00  0.00    +0.255 C 
ENDBRANCH  10  12
BRANCH  11  14
ATOM     14  O   UNL     1      32.941 -22.816 -18.516  0.00  0.00    -0.395 OA
ATOM     15  C   UNL     1      33.644 -21.904 -19.348  0.00  0.00    +0.271 C 
ENDBRANCH  11  14
ENDBRANCH   1   4
BRANCH   1  16
ATOM     16  C   UNL     1      29.861 -23.801 -14.929  0.00  0.00    +0.125 C 
ATOM     17  C   UNL     1      29.400 -24.711 -15.880  0.00  0.00    +0.021 C 
ATOM     18  C   UNL     1      29.378 -22.492 -14.924  0.00  0.00    +0.021 C 
ATOM     19  C   UNL     1      27.971 -23.004 -16.819  0.00  0.00    +0.042 C 
ATOM     20  C   UNL     1      28.454 -24.313 -16.825  0.00  0.00    +0.015 C 
ATOM     21  C   UNL     1      28.433 -22.094 -15.868  0.00  0.00    +0.015 C 
BRANCH  19  22
ATOM     22  N   UNL     1      27.015 -22.601 -17.775  0.00  0.00    -0.357 N 
ATOM     23  H   UNL     1      26.798 -23.190 -18.532  0.00  0.00    +0.142 HD
ATOM     24  H   UNL     1      26.565 -21.729 -17.683  0.00  0.00    +0.142 HD
ENDBRANCH  19  22
ENDBRANCH   1  16
TORSDOF 5
ENDMDL
MODEL 4
REMARK VINA RESULT:      -8.7      6.310     10.452
REMARK  Name = 5323
REMARK  5 active torsions:
REMARK  status: ('A' for Active; 'I' for Inactive)
REMARK    1  A    between atoms: S_1  and  C_4
REMARK    2  A    between atoms: S_1  and  N_13
REMARK    3  A    between atoms: C_7  and  N_10
REMARK    4  A    between atoms: C_19  and  O_21
REMARK    5  A    between atoms: C_20  and  O_23
REMARK                            x       y       z     vdW  Elec       q    Type
REMARK                         _______ _______ _______ _____ _____    ______ ____
ROOT
ATOM      1  S   UNL     1      34.758 -17.210 -21.461  0.00  0.00    +0.075 S 
ATOM      2  O   UNL     1      35.457 -17.319 -22.736  0.00  0.00    -0.150 OA
ATOM      3  O   UNL     1      35.366 -16.429 -20.391  0.00  0.00    -0.150 OA
ENDROOT
BRANCH   1   4
ATOM      4  N   UNL     1      33.168 -16.624 -21.772  0.00  0.00    -0.191 N 
ATOM      5  H   UNL     1      32.391 -17.227 -21.745  0.00  0.00    +0.176 HD
ATOM      6  N   UNL     1      33.535 -14.813 -23.239  0.00  0.00    -0.299 NA
ATOM      7  N   UNL     1      32.752 -12.596 -22.712  0.00  0.00    -0.278 NA
ATOM      8  C   UNL     1      33.010 -15.225 -22.072  0.00  0.00    +0.201 C 
ATOM      9  C   UNL     1      32.353 -14.410 -21.181  0.00  0.00    +0.177 C 
ATOM     10  C   UNL     1      32.253 -13.086 -21.559  0.00  0.00    +0.275 C 
ATOM     11  C   UNL     1      33.371 -13.501 -23.493  0.00  0.00    +0.314 C 
BRANCH  10  12
ATOM     12  O   UNL     1      31.612 -12.202 -20.732  0.00  0.00    -0.450 OA
ATOM     13  C   UNL     1      30.861 -11.169 -21.357  0.00  0.00    +0.255 C 
ENDBRANCH  10  12
BRANCH  11  14
ATOM     14  O   UNL     1      33.893 -13.036 -24.679  0.00  0.00    -0.395 OA
ATOM     15  C   UNL     1      33.935 -11.626 -24.844  0.00  0.00    +0.271 C 
ENDBRANCH  11  14
ENDBRANCH   1   4
BRANCH   1  16
ATOM     16  C   UNL     1      34.466 -18.829 -20.875  0.00  0.00    +0.125 C 
ATOM     17  C   UNL     1      35.541 -19.668 -20.581  0.00  0.00    +0.021 C 
ATOM     18  C   UNL     1      33.159 -19.283 -20.702  0.00  0.00    +0.021 C 
ATOM     19  C   UNL     1      34.000 -21.416 -19.942  0.00  0.00    +0.042 C 
ATOM     20  C   UNL     1      35.308 -20.962 -20.114  0.00  0.00    +0.015 C 
ATOM     21  C   UNL     1      32.926 -20.577 -20.236  0.00  0.00    +0.015 C 
BRANCH  19  22
ATOM     22  N   UNL     1      33.764 -22.724 -19.470  0.00  0.00    -0.357 N 
ATOM     23  H   UNL     1      33.093 -23.293 -19.913  0.00  0.00    +0.142 HD
ATOM     24  H   UNL     1      34.271 -23.068 -18.698  0.00  0.00    +0.142 HD
ENDBRANCH  19  22
ENDBRANCH   1  16
TORSDOF 5
ENDMDL
MODEL 5
REMARK VINA RESULT:      -8.6      3.772      5.918
REMARK  Name = 5323
REMARK  5 active torsions:
REMARK  status: ('A' for Active; 'I' for Inactive)
REMARK    1  A    between atoms: S_1  and  C_4
REMARK    2  A    between atoms: S_1  and  N_13
REMARK    3  A    between atoms: C_7  and  N_10
REMARK    4  A    between atoms: C_19  and  O_21
REMARK    5  A    between atoms: C_20  and  O_23
REMARK                            x       y       z     vdW  Elec       q    Type
REMARK                         _______ _______ _______ _____ _____    ______ ____
ROOT
ATOM      1  S   UNL     1      34.761 -23.479 -16.229  0.00  0.00    +0.075 S 
ATOM      2  O   UNL     1      35.032 -22.846 -17.515  0.00  0.00    -0.150 OA
ATOM      3  O   UNL     1      35.087 -24.889 -16.058  0.00  0.00    -0.150 OA
ENDROOT
BRANCH   1   4
ATOM      4  N   UNL     1      35.542 -22.553 -15.003  0.00  0.00    -0.191 N 
ATOM      5  H   UNL     1      35.317 -21.606 -14.863  0.00  0.00    +0.176 HD
ATOM      6  N   UNL     1      37.663 -23.571 -14.825  0.00  0.00    -0.299 NA
ATOM      7  N   UNL     1      38.458 -24.448 -12.726  0.00  0.00    -0.278 NA
ATOM      8  C   UNL     1      36.534 -23.207 -14.191  0.00  0.00    +0.201 C 
ATOM      9  C   UNL     1      36.286 -23.419 -12.856  0.00  0.00    +0.177 C 
ATOM     10  C   UNL     1      37.297 -24.053 -12.163  0.00  0.00    +0.275 C 
ATOM     11  C   UNL     1      38.572 -24.180 -14.040  0.00  0.00    +0.314 C 
BRANCH  10  12
ATOM     12  O   UNL     1      37.135 -24.305 -10.826  0.00  0.00    -0.450 OA
ATOM     13  C   UNL     1      35.799 -24.359 -10.342  0.00  0.00    +0.255 C 
ENDBRANCH  10  12
BRANCH  11  14
ATOM     14  O   UNL     1      39.745 -24.568 -14.647  0.00  0.00    -0.395 OA
ATOM     15  C   UNL     1      40.299 -25.806 -14.224  0.00  0.00    +0.271 C 
ENDBRANCH  11  14
ENDBRANCH   1   4
BRANCH   1  16
ATOM     16  C   UNL     1      33.068 -23.248 -15.869  0.00  0.00    +0.125 C 
ATOM     17  C   UNL     1      32.626 -23.278 -14.547  0.00  0.00    +0.021 C 
ATOM     18  C   UNL     1      32.158 -23.036 -16.904  0.00  0.00    +0.021 C 
ATOM     19  C   UNL     1      30.363 -22.883 -15.295  0.00  0.00    +0.042 C 
ATOM     20  C   UNL     1      31.273 -23.095 -14.259  0.00  0.00    +0.015 C 
ATOM     21  C   UNL     1      30.805 -22.854 -16.618  0.00  0.00    +0.015 C 
BRANCH  19  22
ATOM     22  N   UNL     1      28.995 -22.699 -15.005  0.00  0.00    -0.357 N 
ATOM     23  H   UNL     1      28.725 -22.147 -14.236  0.00  0.00    +0.142 HD
ATOM     24  H   UNL     1      28.310 -23.122 -15.573  0.00  0.00    +0.142 HD
ENDBRANCH  19  22
ENDBRANCH   1  16
TORSDOF 5
ENDMDL
MODEL 6
REMARK VINA RESULT:      -8.6      3.962      6.143
REMARK  Name = 5323
REMARK  5 active torsions:
REMARK  status: ('A' for Active; 'I' for Inactive)
REMARK    1  A    between atoms: S_1  and  C_4
REMARK    2  A    between atoms: S_1  and  N_13
REMARK    3  A    between atoms: C_7  and  N_10
REMARK    4  A    between atoms: C_19  and  O_21
REMARK    5  A    between atoms: C_20  and  O_23
REMARK                            x       y       z     vdW  Elec       q    Type
REMARK                         _______ _______ _______ _____ _____    ______ ____
ROOT
ATOM      1  S   UNL     1      34.692 -23.334 -15.799  0.00  0.00    +0.075 S 
ATOM      2  O   UNL     1      35.292 -22.459 -14.798  0.00  0.00    -0.150 OA
ATOM      3  O   UNL     1      35.048 -23.145 -17.200  0.00  0.00    -0.150 OA
ENDROOT
BRANCH   1   4
ATOM      4  N   UNL     1      35.002 -24.964 -15.339  0.00  0.00    -0.191 N 
ATOM      5  H   UNL     1      34.419 -25.697 -15.643  0.00  0.00    +0.176 HD
ATOM      6  N   UNL     1      36.063 -24.744 -13.243  0.00  0.00    -0.299 NA
ATOM      7  N   UNL     1      38.249 -25.675 -12.842  0.00  0.00    -0.278 NA
ATOM      8  C   UNL     1      36.139 -25.225 -14.497  0.00  0.00    +0.201 C 
ATOM      9  C   UNL     1      37.209 -25.927 -14.999  0.00  0.00    +0.177 C 
ATOM     10  C   UNL     1      38.250 -26.125 -14.114  0.00  0.00    +0.275 C 
ATOM     11  C   UNL     1      37.140 -25.003 -12.479  0.00  0.00    +0.314 C 
BRANCH  10  12
ATOM     12  O   UNL     1      39.358 -26.816 -14.530  0.00  0.00    -0.450 OA
ATOM     13  C   UNL     1      40.590 -26.105 -14.540  0.00  0.00    +0.255 C 
ENDBRANCH  10  12
BRANCH  11  14
ATOM     14  O   UNL     1      37.104 -24.531 -11.186  0.00  0.00    -0.395 OA
ATOM     15  C   UNL     1      35.831 -24.149 -10.686  0.00  0.00    +0.271 C 
ENDBRANCH  11  14
ENDBRANCH   1   4
BRANCH   1  16
ATOM     16  C   UNL     1      32.957 -23.209 -15.641  0.00  0.00    +0.125 C 
ATOM     17  C   UNL     1      32.163 -23.052 -16.777  0.00  0.00    +0.021 C 
ATOM     18  C   UNL     1      32.366 -23.265 -14.379  0.00  0.00    +0.021 C 
ATOM     19  C   UNL     1      30.187 -23.008 -15.389  0.00  0.00    +0.042 C 
ATOM     20  C   UNL     1      30.778 -22.952 -16.651  0.00  0.00    +0.015 C 
ATOM     21  C   UNL     1      30.981 -23.164 -14.253  0.00  0.00    +0.015 C 
BRANCH  19  22
ATOM     22  N   UNL     1      28.786 -22.906 -15.260  0.00  0.00    -0.357 N 
ATOM     23  H   UNL     1      28.273 -22.350 -15.891  0.00  0.00    +0.142 HD
ATOM     24  H   UNL     1      28.321 -23.390 -14.539  0.00  0.00    +0.142 HD
ENDBRANCH  19  22
ENDBRANCH   1  16
TORSDOF 5
ENDMDL
MODEL 7
REMARK VINA RESULT:      -8.5      4.130      6.238
REMARK  Name = 5323
REMARK  5 active torsions:
REMARK  status: ('A' for Active; 'I' for Inactive)
REMARK    1  A    between atoms: S_1  and  C_4
REMARK    2  A    between atoms: S_1  and  N_13
REMARK    3  A    between atoms: C_7  and  N_10
REMARK    4  A    between atoms: C_19  and  O_21
REMARK    5  A    between atoms: C_20  and  O_23
REMARK                            x       y       z     vdW  Elec       q    Type
REMARK                         _______ _______ _______ _____ _____    ______ ____
ROOT
ATOM      1  S   UNL     1      35.366 -18.641 -22.669  0.00  0.00    +0.075 S 
ATOM      2  O   UNL     1      36.787 -18.396 -22.456  0.00  0.00    -0.150 OA
ATOM      3  O   UNL     1      34.962 -19.821 -23.424  0.00  0.00    -0.150 OA
ENDROOT
BRANCH   1   4
ATOM      4  N   UNL     1      34.589 -18.646 -21.132  0.00  0.00    -0.191 N 
ATOM      5  H   UNL     1      34.106 -17.853 -20.805  0.00  0.00    +0.176 HD
ATOM      6  N   UNL     1      35.887 -20.161 -19.872  0.00  0.00    -0.299 NA
ATOM      7  N   UNL     1      34.895 -22.095 -18.831  0.00  0.00    -0.278 NA
ATOM      8  C   UNL     1      34.666 -19.844 -20.338  0.00  0.00    +0.201 C 
ATOM      9  C   UNL     1      33.527 -20.579 -20.106  0.00  0.00    +0.177 C 
ATOM     10  C   UNL     1      33.705 -21.710 -19.335  0.00  0.00    +0.275 C 
ATOM     11  C   UNL     1      35.928 -21.286 -19.134  0.00  0.00    +0.314 C 
BRANCH  10  12
ATOM     12  O   UNL     1      32.623 -22.501 -19.052  0.00  0.00    -0.450 OA
ATOM     13  C   UNL     1      32.425 -22.852 -17.687  0.00  0.00    +0.255 C 
ENDBRANCH  10  12
BRANCH  11  14
ATOM     14  O   UNL     1      37.159 -21.648 -18.635  0.00  0.00    -0.395 OA
ATOM     15  C   UNL     1      37.211 -21.980 -17.255  0.00  0.00    +0.271 C 
ENDBRANCH  11  14
ENDBRANCH   1   4
BRANCH   1  16
ATOM     16  C   UNL     1      34.692 -17.226 -23.440  0.00  0.00    +0.125 C 
ATOM     17  C   UNL     1      34.460 -17.225 -24.815  0.00  0.00    +0.021 C 
ATOM     18  C   UNL     1      34.387 -16.097 -22.680  0.00  0.00    +0.021 C 
ATOM     19  C   UNL     1      33.618 -14.965 -24.671  0.00  0.00    +0.042 C 
ATOM     20  C   UNL     1      33.923 -16.095 -25.431  0.00  0.00    +0.015 C 
ATOM     21  C   UNL     1      33.851 -14.967 -23.295  0.00  0.00    +0.015 C 
BRANCH  19  22
ATOM     22  N   UNL     1      33.076 -13.822 -25.293  0.00  0.00    -0.357 N 
ATOM     23  H   UNL     1      33.359 -12.924 -25.004  0.00  0.00    +0.142 HD
ATOM     24  H   UNL     1      32.415 -13.922 -26.016  0.00  0.00    +0.142 HD
ENDBRANCH  19  22
ENDBRANCH   1  16
TORSDOF 5
ENDMDL
MODEL 8
REMARK VINA RESULT:      -8.5      2.523      3.149
REMARK  Name = 5323
REMARK  5 active torsions:
REMARK  status: ('A' for Active; 'I' for Inactive)
REMARK    1  A    between atoms: S_1  and  C_4
REMARK    2  A    between atoms: S_1  and  N_13
REMARK    3  A    between atoms: C_7  and  N_10
REMARK    4  A    between atoms: C_19  and  O_21
REMARK    5  A    between atoms: C_20  and  O_23
REMARK                            x       y       z     vdW  Elec       q    Type
REMARK                         _______ _______ _______ _____ _____    ______ ____
ROOT
ATOM      1  S   UNL     1      33.556 -22.810 -18.081  0.00  0.00    +0.075 S 
ATOM      2  O   UNL     1      33.864 -24.101 -18.685  0.00  0.00    -0.150 OA
ATOM      3  O   UNL     1      32.242 -22.609 -17.485  0.00  0.00    -0.150 OA
ENDROOT
BRANCH   1   4
ATOM      4  N   UNL     1      34.777 -22.461 -16.917  0.00  0.00    -0.191 N 
ATOM      5  H   UNL     1      35.323 -21.645 -16.983  0.00  0.00    +0.176 HD
ATOM      6  N   UNL     1      35.467 -24.599 -16.196  0.00  0.00    -0.299 NA
ATOM      7  N   UNL     1      35.379 -25.226 -13.871  0.00  0.00    -0.278 NA
ATOM      8  C   UNL     1      34.976 -23.398 -15.843  0.00  0.00    +0.201 C 
ATOM      9  C   UNL     1      34.663 -23.031 -14.555  0.00  0.00    +0.177 C 
ATOM     10  C   UNL     1      34.888 -23.999 -13.597  0.00  0.00    +0.275 C 
ATOM     11  C   UNL     1      35.642 -25.454 -15.171  0.00  0.00    +0.314 C 
BRANCH  10  12
ATOM     12  O   UNL     1      34.606 -23.719 -12.286  0.00  0.00    -0.450 OA
ATOM     13  C   UNL     1      35.443 -24.325 -11.308  0.00  0.00    +0.255 C 
ENDBRANCH  10  12
BRANCH  11  14
ATOM     14  O   UNL     1      36.146 -26.696 -15.488  0.00  0.00    -0.395 OA
ATOM     15  C   UNL     1      37.353 -27.074 -14.842  0.00  0.00    +0.271 C 
ENDBRANCH  11  14
ENDBRANCH   1   4
BRANCH   1  16
ATOM     16  C   UNL     1      33.815 -21.581 -19.294  0.00  0.00    +0.125 C 
ATOM     17  C   UNL     1      35.109 -21.277 -19.715  0.00  0.00    +0.021 C 
ATOM     18  C   UNL     1      32.726 -20.901 -19.841  0.00  0.00    +0.021 C 
ATOM     19  C   UNL     1      34.227 -19.615 -21.230  0.00  0.00    +0.042 C 
ATOM     20  C   UNL     1      35.315 -20.295 -20.684  0.00  0.00    +0.015 C 
ATOM     21  C   UNL     1      32.932 -19.918 -20.808  0.00  0.00    +0.015 C 
BRANCH  19  22
ATOM     22  N   UNL     1      34.435 -18.621 -22.209  0.00  0.00    -0.357 N 
ATOM     23  H   UNL     1      33.874 -18.602 -23.017  0.00  0.00    +0.142 HD
ATOM     24  H   UNL     1      35.141 -17.946 -22.082  0.00  0.00    +0.142 HD
ENDBRANCH  19  22
ENDBRANCH   1  16
TORSDOF 5
ENDMDL
MODEL 9
REMARK VINA RESULT:      -8.2      2.830      6.685
REMARK  Name = 5323
REMARK  5 active torsions:
REMARK  status: ('A' for Active; 'I' for Inactive)
REMARK    1  A    between atoms: S_1  and  C_4
REMARK    2  A    between atoms: S_1  and  N_13
REMARK    3  A    between atoms: C_7  and  N_10
REMARK    4  A    between atoms: C_19  and  O_21
REMARK    5  A    between atoms: C_20  and  O_23
REMARK                            x       y       z     vdW  Elec       q    Type
REMARK                         _______ _______ _______ _____ _____    ______ ____
ROOT
ATOM      1  S   UNL     1      34.725 -24.203 -13.281  0.00  0.00    +0.075 S 
ATOM      2  O   UNL     1      34.684 -23.686 -11.918  0.00  0.00    -0.150 OA
ATOM      3  O   UNL     1      33.753 -25.213 -13.679  0.00  0.00    -0.150 OA
ENDROOT
BRANCH   1   4
ATOM      4  N   UNL     1      34.642 -22.864 -14.362  0.00  0.00    -0.191 N 
ATOM      5  H   UNL     1      35.162 -22.045 -14.197  0.00  0.00    +0.176 HD
ATOM      6  N   UNL     1      32.469 -23.031 -15.266  0.00  0.00    -0.299 NA
ATOM      7  N   UNL     1      32.111 -23.195 -17.644  0.00  0.00    -0.278 NA
ATOM      8  C   UNL     1      33.789 -22.979 -15.516  0.00  0.00    +0.201 C 
ATOM      9  C   UNL     1      34.348 -23.027 -16.771  0.00  0.00    +0.177 C 
ATOM     10  C   UNL     1      33.448 -23.137 -17.812  0.00  0.00    +0.275 C 
ATOM     11  C   UNL     1      31.697 -23.138 -16.364  0.00  0.00    +0.314 C 
BRANCH  10  12
ATOM     12  O   UNL     1      33.918 -23.191 -19.098  0.00  0.00    -0.450 OA
ATOM     13  C   UNL     1      34.849 -22.187 -19.482  0.00  0.00    +0.255 C 
ENDBRANCH  10  12
BRANCH  11  14
ATOM     14  O   UNL     1      30.337 -23.194 -16.155  0.00  0.00    -0.395 OA
ATOM     15  C   UNL     1      29.805 -24.454 -15.773  0.00  0.00    +0.271 C 
ENDBRANCH  11  14
ENDBRANCH   1   4
BRANCH   1  16
ATOM     16  C   UNL     1      36.330 -24.830 -13.564  0.00  0.00    +0.125 C 
ATOM     17  C   UNL     1      37.374 -24.489 -12.704  0.00  0.00    +0.021 C 
ATOM     18  C   UNL     1      36.569 -25.672 -14.650  0.00  0.00    +0.021 C 
ATOM     19  C   UNL     1      38.894 -25.831 -14.017  0.00  0.00    +0.042 C 
ATOM     20  C   UNL     1      38.656 -24.989 -12.930  0.00  0.00    +0.015 C 
ATOM     21  C   UNL     1      37.851 -26.172 -14.877  0.00  0.00    +0.015 C 
BRANCH  19  22
ATOM     22  N   UNL     1      40.191 -26.336 -14.246  0.00  0.00    -0.357 N 
ATOM     23  H   UNL     1      40.307 -27.214 -14.676  0.00  0.00    +0.142 HD
ATOM     24  H   UNL     1      40.979 -25.810 -13.977  0.00  0.00    +0.142 HD
ENDBRANCH  19  22
ENDBRANCH   1  16
TORSDOF 5
ENDMDL
