MODEL 1
REMARK VINA RESULT:      -9.5      0.000      0.000
REMARK  Name = 111332
REMARK  5 active torsions:
REMARK  status: ('A' for Active; 'I' for Inactive)
REMARK    1  A    between atoms: C_5  and  O_21
REMARK    2  A    between atoms: C_5  and  C_24
REMARK    3  A    between atoms: C_24  and  C_25
REMARK    4  A    between atoms: C_25  and  O_26
REMARK    5  A    between atoms: O_26  and  C_28
REMARK                            x       y       z     vdW  Elec       q    Type
REMARK                         _______ _______ _______ _____ _____    ______ ____
ROOT
ATOM      1  O   UNL     1      39.819 -26.154 -13.720  0.00  0.00    -0.291 OA
ATOM      2  C   UNL     1      31.825 -23.833 -14.805  0.00  0.00    +0.033 C 
ATOM      3  C   UNL     1      32.923 -23.609 -15.867  0.00  0.00    +0.007 C 
ATOM      4  C   UNL     1      34.300 -23.309 -15.252  0.00  0.00    +0.019 C 
ATOM      5  C   UNL     1      30.577 -23.922 -15.720  0.00  0.00    +0.143 C 
ATOM      6  C   UNL     1      32.326 -22.552 -16.796  0.00  0.00    +0.003 C 
ATOM      7  C   UNL     1      30.810 -22.827 -16.783  0.00  0.00    +0.034 C 
ATOM      8  C   UNL     1      32.221 -25.102 -14.030  0.00  0.00    +0.028 C 
ATOM      9  C   UNL     1      34.630 -24.271 -14.099  0.00  0.00    -0.046 C 
ATOM     10  C   UNL     1      36.081 -24.218 -13.543  0.00  0.00    +0.030 C 
ATOM     11  C   UNL     1      35.377 -23.371 -16.345  0.00  0.00    +0.008 C 
ATOM     12  C   UNL     1      31.691 -22.643 -13.813  0.00  0.00    +0.003 C 
ATOM     13  C   UNL     1      33.667 -25.075 -13.588  0.00  0.00    -0.034 C 
ATOM     14  C   UNL     1      36.756 -23.076 -15.776  0.00  0.00    +0.023 C 
ATOM     15  C   UNL     1      37.107 -24.046 -14.674  0.00  0.00    -0.039 C 
ATOM     16  C   UNL     1      36.432 -25.500 -12.728  0.00  0.00    +0.016 C 
ATOM     17  C   UNL     1      36.176 -22.991 -12.603  0.00  0.00    +0.008 C 
ATOM     18  C   UNL     1      37.907 -25.630 -12.380  0.00  0.00    +0.070 C 
ATOM     19  C   UNL     1      38.289 -24.684 -14.727  0.00  0.00    +0.029 C 
ATOM     20  C   UNL     1      38.746 -25.561 -13.626  0.00  0.00    +0.173 C 
ENDROOT
BRANCH   5  21
ATOM     21  O   UNL     1      30.482 -25.170 -16.401  0.00  0.00    -0.380 OA
ATOM     22  H   UNL     1      30.982 -25.124 -17.231  0.00  0.00    +0.211 HD
ENDBRANCH   5  21
BRANCH   5  24
ATOM     23  O   UNL     1      28.809 -24.642 -14.295  0.00  0.00    -0.290 OA
ATOM     24  C   UNL     1      29.257 -23.762 -15.028  0.00  0.00    +0.218 C 
BRANCH  24  25
ATOM     25  C   UNL     1      28.519 -22.465 -15.285  0.00  0.00    +0.274 C 
BRANCH  25  26
ATOM     26  O   UNL     1      27.241 -22.718 -15.831  0.00  0.00    -0.440 OA
BRANCH  26  28
ATOM     27  O   UNL     1      27.619 -23.274 -18.041  0.00  0.00    -0.250 OA
ATOM     28  C   UNL     1      27.119 -22.554 -17.186  0.00  0.00    +0.318 C 
ATOM     29  C   UNL     1      26.277 -21.353 -17.490  0.00  0.00    +0.121 C 
ENDBRANCH  26  28
ENDBRANCH  25  26
ENDBRANCH  24  25
ENDBRANCH   5  24
TORSDOF 5
ENDMDL
MODEL 2
REMARK VINA RESULT:      -8.1      1.579      8.341
REMARK  Name = 111332
REMARK  5 active torsions:
REMARK  status: ('A' for Active; 'I' for Inactive)
REMARK    1  A    between atoms: C_5  and  O_21
REMARK    2  A    between atoms: C_5  and  C_24
REMARK    3  A    between atoms: C_24  and  C_25
REMARK    4  A    between atoms: C_25  and  O_26
REMARK    5  A    between atoms: O_26  and  C_28
REMARK                            x       y       z     vdW  Elec       q    Type
REMARK                         _______ _______ _______ _____ _____    ______ ____
ROOT
ATOM      1  O   UNL     1      27.392 -22.133 -15.902  0.00  0.00    -0.291 OA
ATOM      2  C   UNL     1      35.224 -24.341 -13.846  0.00  0.00    +0.033 C 
ATOM      3  C   UNL     1      34.897 -23.328 -14.964  0.00  0.00    +0.007 C 
ATOM      4  C   UNL     1      33.598 -23.663 -15.716  0.00  0.00    +0.019 C 
ATOM      5  C   UNL     1      36.631 -23.838 -13.429  0.00  0.00    +0.143 C 
ATOM      6  C   UNL     1      36.184 -23.257 -15.786  0.00  0.00    +0.003 C 
ATOM      7  C   UNL     1      37.316 -23.483 -14.766  0.00  0.00    +0.034 C 
ATOM      8  C   UNL     1      34.098 -24.221 -12.805  0.00  0.00    +0.028 C 
ATOM      9  C   UNL     1      32.460 -24.029 -14.749  0.00  0.00    -0.046 C 
ATOM     10  C   UNL     1      31.040 -24.170 -15.368  0.00  0.00    +0.030 C 
ATOM     11  C   UNL     1      33.201 -22.480 -16.610  0.00  0.00    +0.008 C 
ATOM     12  C   UNL     1      35.299 -25.806 -14.362  0.00  0.00    +0.003 C 
ATOM     13  C   UNL     1      32.727 -24.256 -13.441  0.00  0.00    -0.034 C 
ATOM     14  C   UNL     1      31.919 -22.775 -17.375  0.00  0.00    +0.023 C 
ATOM     15  C   UNL     1      30.785 -23.090 -16.431  0.00  0.00    -0.039 C 
ATOM     16  C   UNL     1      29.928 -24.087 -14.279  0.00  0.00    +0.016 C 
ATOM     17  C   UNL     1      30.966 -25.558 -16.051  0.00  0.00    +0.008 C 
ATOM     18  C   UNL     1      28.519 -23.956 -14.841  0.00  0.00    +0.070 C 
ATOM     19  C   UNL     1      29.621 -22.435 -16.579  0.00  0.00    +0.029 C 
ATOM     20  C   UNL     1      28.433 -22.772 -15.763  0.00  0.00    +0.173 C 
ENDROOT
BRANCH   5  21
ATOM     21  O   UNL     1      36.580 -22.652 -12.642  0.00  0.00    -0.380 OA
ATOM     22  H   UNL     1      35.876 -22.735 -11.979  0.00  0.00    +0.211 HD
ENDBRANCH   5  21
BRANCH   5  24
ATOM     23  O   UNL     1      36.927 -25.508 -11.756  0.00  0.00    -0.290 OA
ATOM     24  C   UNL     1      37.445 -24.801 -12.619  0.00  0.00    +0.218 C 
BRANCH  24  25
ATOM     25  C   UNL     1      38.927 -24.849 -12.925  0.00  0.00    +0.274 C 
BRANCH  25  26
ATOM     26  O   UNL     1      39.298 -26.127 -13.398  0.00  0.00    -0.440 OA
BRANCH  26  28
ATOM     27  O   UNL     1      41.352 -26.921 -14.097  0.00  0.00    -0.250 OA
ATOM     28  C   UNL     1      40.392 -26.172 -14.224  0.00  0.00    +0.318 C 
ATOM     29  C   UNL     1      40.254 -25.165 -15.325  0.00  0.00    +0.121 C 
ENDBRANCH  26  28
ENDBRANCH  25  26
ENDBRANCH  24  25
ENDBRANCH   5  24
TORSDOF 5
ENDMDL
MODEL 3
REMARK VINA RESULT:      -8.1      3.346      5.396
REMARK  Name = 111332
REMARK  5 active torsions:
REMARK  status: ('A' for Active; 'I' for Inactive)
REMARK    1  A    between atoms: C_5  and  O_21
REMARK    2  A    between atoms: C_5  and  C_24
REMARK    3  A    between atoms: C_24  and  C_25
REMARK    4  A    between atoms: C_25  and  O_26
REMARK    5  A    between atoms: O_26  and  C_28
REMARK                            x       y       z     vdW  Elec       q    Type
REMARK                         _______ _______ _______ _____ _____    ______ ____
ROOT
ATOM      1  O   UNL     1      36.288 -18.472 -21.552  0.00  0.00    -0.291 OA
ATOM      2  C   UNL     1      32.615 -23.541 -15.960  0.00  0.00    +0.033 C 
ATOM      3  C   UNL     1      34.043 -22.982 -15.785  0.00  0.00    +0.007 C 
ATOM      4  C   UNL     1      34.796 -22.831 -17.118  0.00  0.00    +0.019 C 
ATOM      5  C   UNL     1      32.218 -23.737 -14.474  0.00  0.00    +0.143 C 
ATOM      6  C   UNL     1      34.668 -23.892 -14.727  0.00  0.00    +0.003 C 
ATOM      7  C   UNL     1      33.496 -24.295 -13.813  0.00  0.00    +0.034 C 
ATOM      8  C   UNL     1      31.831 -22.490 -16.764  0.00  0.00    +0.028 C 
ATOM      9  C   UNL     1      33.917 -22.177 -18.197  0.00  0.00    -0.046 C 
ATOM     10  C   UNL     1      34.628 -21.765 -19.517  0.00  0.00    +0.030 C 
ATOM     11  C   UNL     1      36.083 -22.025 -16.894  0.00  0.00    +0.008 C 
ATOM     12  C   UNL     1      32.586 -24.899 -16.717  0.00  0.00    +0.003 C 
ATOM     13  C   UNL     1      32.587 -22.027 -17.989  0.00  0.00    -0.034 C 
ATOM     14  C   UNL     1      36.859 -21.857 -18.192  0.00  0.00    +0.023 C 
ATOM     15  C   UNL     1      36.019 -21.173 -19.241  0.00  0.00    -0.039 C 
ATOM     16  C   UNL     1      33.785 -20.733 -20.326  0.00  0.00    +0.016 C 
ATOM     17  C   UNL     1      34.800 -23.045 -20.372  0.00  0.00    +0.008 C 
ATOM     18  C   UNL     1      34.533 -20.096 -21.487  0.00  0.00    +0.070 C 
ATOM     19  C   UNL     1      36.529 -20.110 -19.886  0.00  0.00    +0.029 C 
ATOM     20  C   UNL     1      35.807 -19.461 -21.004  0.00  0.00    +0.173 C 
ENDROOT
BRANCH   5  21
ATOM     21  O   UNL     1      31.896 -22.511 -13.825  0.00  0.00    -0.380 OA
ATOM     22  H   UNL     1      32.486 -22.383 -13.066  0.00  0.00    +0.211 HD
ENDBRANCH   5  21
BRANCH   5  24
ATOM     23  O   UNL     1      31.161 -25.762 -13.797  0.00  0.00    -0.290 OA
ATOM     24  C   UNL     1      31.030 -24.620 -14.236  0.00  0.00    +0.218 C 
BRANCH  24  25
ATOM     25  C   UNL     1      29.677 -24.027 -14.565  0.00  0.00    +0.274 C 
BRANCH  25  26
ATOM     26  O   UNL     1      29.144 -24.616 -15.733  0.00  0.00    -0.440 OA
BRANCH  26  28
ATOM     27  O   UNL     1      27.777 -24.150 -17.536  0.00  0.00    -0.250 OA
ATOM     28  C   UNL     1      28.318 -23.823 -16.487  0.00  0.00    +0.318 C 
ATOM     29  C   UNL     1      28.160 -22.478 -15.846  0.00  0.00    +0.121 C 
ENDBRANCH  26  28
ENDBRANCH  25  26
ENDBRANCH  24  25
ENDBRANCH   5  24
TORSDOF 5
ENDMDL
MODEL 4
REMARK VINA RESULT:      -7.8     10.094     12.848
REMARK  Name = 111332
REMARK  5 active torsions:
REMARK  status: ('A' for Active; 'I' for Inactive)
REMARK    1  A    between atoms: C_5  and  O_21
REMARK    2  A    between atoms: C_5  and  C_24
REMARK    3  A    between atoms: C_24  and  C_25
REMARK    4  A    between atoms: C_25  and  O_26
REMARK    5  A    between atoms: O_26  and  C_28
REMARK                            x       y       z     vdW  Elec       q    Type
REMARK                         _______ _______ _______ _____ _____    ______ ____
ROOT
ATOM      1  O   UNL     1      34.236  -9.621 -25.506  0.00  0.00    -0.291 OA
ATOM      2  C   UNL     1      34.724 -17.378 -22.338  0.00  0.00    +0.033 C 
ATOM      3  C   UNL     1      34.715 -17.082 -23.852  0.00  0.00    +0.007 C 
ATOM      4  C   UNL     1      33.840 -15.873 -24.223  0.00  0.00    +0.019 C 
ATOM      5  C   UNL     1      35.516 -18.711 -22.327  0.00  0.00    +0.143 C 
ATOM      6  C   UNL     1      34.358 -18.426 -24.489  0.00  0.00    +0.003 C 
ATOM      7  C   UNL     1      34.973 -19.481 -23.550  0.00  0.00    +0.034 C 
ATOM      8  C   UNL     1      35.383 -16.165 -21.660  0.00  0.00    +0.028 C 
ATOM      9  C   UNL     1      34.086 -14.683 -23.279  0.00  0.00    -0.046 C 
ATOM     10  C   UNL     1      33.431 -13.331 -23.681  0.00  0.00    +0.030 C 
ATOM     11  C   UNL     1      34.098 -15.478 -25.684  0.00  0.00    +0.008 C 
ATOM     12  C   UNL     1      33.298 -17.585 -21.754  0.00  0.00    +0.003 C 
ATOM     13  C   UNL     1      34.802 -14.855 -22.142  0.00  0.00    -0.034 C 
ATOM     14  C   UNL     1      33.246 -14.285 -26.089  0.00  0.00    +0.023 C 
ATOM     15  C   UNL     1      33.515 -13.099 -25.198  0.00  0.00    -0.039 C 
ATOM     16  C   UNL     1      34.095 -12.130 -22.943  0.00  0.00    +0.016 C 
ATOM     17  C   UNL     1      31.938 -13.399 -23.277  0.00  0.00    +0.008 C 
ATOM     18  C   UNL     1      33.683 -10.767 -23.480  0.00  0.00    +0.070 C 
ATOM     19  C   UNL     1      33.790 -11.912 -25.766  0.00  0.00    +0.029 C 
ATOM     20  C   UNL     1      33.953 -10.684 -24.957  0.00  0.00    +0.173 C 
ENDROOT
BRANCH   5  21
ATOM     21  O   UNL     1      36.914 -18.522 -22.522  0.00  0.00    -0.380 OA
ATOM     22  H   UNL     1      37.077 -17.620 -22.839  0.00  0.00    +0.211 HD
ENDBRANCH   5  21
BRANCH   5  24
ATOM     23  O   UNL     1      36.153 -19.302 -20.110  0.00  0.00    -0.290 OA
ATOM     24  C   UNL     1      35.410 -19.514 -21.066  0.00  0.00    +0.218 C 
BRANCH  24  25
ATOM     25  C   UNL     1      34.343 -20.589 -21.043  0.00  0.00    +0.274 C 
BRANCH  25  26
ATOM     26  O   UNL     1      33.603 -20.531 -19.841  0.00  0.00    -0.440 OA
BRANCH  26  28
ATOM     27  O   UNL     1      32.464 -22.128 -18.620  0.00  0.00    -0.250 OA
ATOM     28  C   UNL     1      33.486 -21.707 -19.146  0.00  0.00    +0.318 C 
ATOM     29  C   UNL     1      34.802 -22.423 -19.112  0.00  0.00    +0.121 C 
ENDBRANCH  26  28
ENDBRANCH  25  26
ENDBRANCH  24  25
ENDBRANCH   5  24
TORSDOF 5
ENDMDL
MODEL 5
REMARK VINA RESULT:      -7.7      1.611      8.572
REMARK  Name = 111332
REMARK  5 active torsions:
REMARK  status: ('A' for Active; 'I' for Inactive)
REMARK    1  A    between atoms: C_5  and  O_21
REMARK    2  A    between atoms: C_5  and  C_24
REMARK    3  A    between atoms: C_24  and  C_25
REMARK    4  A    between atoms: C_25  and  O_26
REMARK    5  A    between atoms: O_26  and  C_28
REMARK                            x       y       z     vdW  Elec       q    Type
REMARK                         _______ _______ _______ _____ _____    ______ ____
ROOT
ATOM      1  O   UNL     1      27.527 -24.076 -16.773  0.00  0.00    -0.291 OA
ATOM      2  C   UNL     1      35.685 -23.972 -14.803  0.00  0.00    +0.033 C 
ATOM      3  C   UNL     1      34.670 -24.934 -14.151  0.00  0.00    +0.007 C 
ATOM      4  C   UNL     1      33.275 -24.310 -13.981  0.00  0.00    +0.019 C 
ATOM      5  C   UNL     1      36.981 -24.811 -14.663  0.00  0.00    +0.143 C 
ATOM      6  C   UNL     1      35.380 -25.418 -12.886  0.00  0.00    +0.003 C 
ATOM      7  C   UNL     1      36.874 -25.439 -13.257  0.00  0.00    +0.034 C 
ATOM      8  C   UNL     1      35.175 -23.699 -16.227  0.00  0.00    +0.028 C 
ATOM      9  C   UNL     1      32.822 -23.573 -15.253  0.00  0.00    -0.046 C 
ATOM     10  C   UNL     1      31.344 -23.092 -15.288  0.00  0.00    +0.030 C 
ATOM     11  C   UNL     1      32.267 -25.400 -13.589  0.00  0.00    +0.008 C 
ATOM     12  C   UNL     1      35.821 -22.626 -14.035  0.00  0.00    +0.003 C 
ATOM     13  C   UNL     1      33.708 -23.333 -16.249  0.00  0.00    -0.034 C 
ATOM     14  C   UNL     1      30.872 -24.819 -13.407  0.00  0.00    +0.023 C 
ATOM     15  C   UNL     1      30.402 -24.135 -14.667  0.00  0.00    -0.039 C 
ATOM     16  C   UNL     1      30.876 -22.784 -16.743  0.00  0.00    +0.016 C 
ATOM     17  C   UNL     1      31.257 -21.792 -14.452  0.00  0.00    +0.008 C 
ATOM     18  C   UNL     1      29.376 -22.562 -16.877  0.00  0.00    +0.070 C 
ATOM     19  C   UNL     1      29.194 -24.452 -15.162  0.00  0.00    +0.029 C 
ATOM     20  C   UNL     1      28.622 -23.740 -16.327  0.00  0.00    +0.173 C 
ENDROOT
BRANCH   5  21
ATOM     21  O   UNL     1      37.052 -25.875 -15.607  0.00  0.00    -0.380 OA
ATOM     22  H   UNL     1      36.521 -26.623 -15.291  0.00  0.00    +0.211 HD
ENDBRANCH   5  21
BRANCH   5  24
ATOM     23  O   UNL     1      38.424 -23.290 -15.794  0.00  0.00    -0.290 OA
ATOM     24  C   UNL     1      38.262 -24.053 -14.844  0.00  0.00    +0.218 C 
BRANCH  24  25
ATOM     25  C   UNL     1      39.331 -24.284 -13.797  0.00  0.00    +0.274 C 
BRANCH  25  26
ATOM     26  O   UNL     1      40.575 -24.563 -14.406  0.00  0.00    -0.440 OA
BRANCH  26  28
ATOM     27  O   UNL     1      40.637 -26.095 -16.135  0.00  0.00    -0.250 OA
ATOM     28  C   UNL     1      40.717 -25.816 -14.945  0.00  0.00    +0.318 C 
ATOM     29  C   UNL     1      40.989 -26.818 -13.866  0.00  0.00    +0.121 C 
ENDBRANCH  26  28
ENDBRANCH  25  26
ENDBRANCH  24  25
ENDBRANCH   5  24
TORSDOF 5
ENDMDL
MODEL 6
REMARK VINA RESULT:      -7.4     14.894     17.871
REMARK  Name = 111332
REMARK  5 active torsions:
REMARK  status: ('A' for Active; 'I' for Inactive)
REMARK    1  A    between atoms: C_5  and  O_21
REMARK    2  A    between atoms: C_5  and  C_24
REMARK    3  A    between atoms: C_24  and  C_25
REMARK    4  A    between atoms: C_25  and  O_26
REMARK    5  A    between atoms: O_26  and  C_28
REMARK                            x       y       z     vdW  Elec       q    Type
REMARK                         _______ _______ _______ _____ _____    ______ ____
ROOT
ATOM      1  O   UNL     1      30.235  -2.472 -24.498  0.00  0.00    -0.291 OA
ATOM      2  C   UNL     1      31.945 -10.321 -22.066  0.00  0.00    +0.033 C 
ATOM      3  C   UNL     1      31.722  -9.159 -21.075  0.00  0.00    +0.007 C 
ATOM      4  C   UNL     1      32.240  -7.811 -21.606  0.00  0.00    +0.019 C 
ATOM      5  C   UNL     1      31.500 -11.516 -21.184  0.00  0.00    +0.143 C 
ATOM      6  C   UNL     1      32.319  -9.671 -19.764  0.00  0.00    +0.003 C 
ATOM      7  C   UNL     1      32.076 -11.192 -19.790  0.00  0.00    +0.034 C 
ATOM      8  C   UNL     1      31.093 -10.007 -23.307  0.00  0.00    +0.028 C 
ATOM      9  C   UNL     1      31.820  -7.575 -23.066  0.00  0.00    -0.046 C 
ATOM     10  C   UNL     1      32.089  -6.158 -23.646  0.00  0.00    +0.030 C 
ATOM     11  C   UNL     1      31.742  -6.676 -20.700  0.00  0.00    +0.008 C 
ATOM     12  C   UNL     1      33.434 -10.479 -22.487  0.00  0.00    +0.003 C 
ATOM     13  C   UNL     1      31.291  -8.589 -23.792  0.00  0.00    -0.034 C 
ATOM     14  C   UNL     1      32.238  -5.324 -21.191  0.00  0.00    +0.023 C 
ATOM     15  C   UNL     1      31.790  -5.064 -22.608  0.00  0.00    -0.039 C 
ATOM     16  C   UNL     1      31.240  -5.891 -24.926  0.00  0.00    +0.016 C 
ATOM     17  C   UNL     1      33.589  -6.084 -24.020  0.00  0.00    +0.008 C 
ATOM     18  C   UNL     1      31.257  -4.442 -25.391  0.00  0.00    +0.070 C 
ATOM     19  C   UNL     1      31.182  -3.900 -22.891  0.00  0.00    +0.029 C 
ATOM     20  C   UNL     1      30.818  -3.531 -24.278  0.00  0.00    +0.173 C 
ENDROOT
BRANCH   5  21
ATOM     21  O   UNL     1      30.084 -11.607 -21.055  0.00  0.00    -0.380 OA
ATOM     22  H   UNL     1      29.664 -11.288 -21.870  0.00  0.00    +0.211 HD
ENDBRANCH   5  21
BRANCH   5  24
ATOM     23  O   UNL     1      31.809 -13.192 -22.849  0.00  0.00    -0.290 OA
ATOM     24  C   UNL     1      31.927 -12.869 -21.668  0.00  0.00    +0.218 C 
BRANCH  24  25
ATOM     25  C   UNL     1      32.506 -13.802 -20.625  0.00  0.00    +0.274 C 
BRANCH  25  26
ATOM     26  O   UNL     1      32.846 -15.046 -21.202  0.00  0.00    -0.440 OA
BRANCH  26  28
ATOM     27  O   UNL     1      34.937 -15.285 -20.251  0.00  0.00    -0.250 OA
ATOM     28  C   UNL     1      34.179 -15.366 -21.208  0.00  0.00    +0.318 C 
ATOM     29  C   UNL     1      34.594 -15.835 -22.569  0.00  0.00    +0.121 C 
ENDBRANCH  26  28
ENDBRANCH  25  26
ENDBRANCH  24  25
ENDBRANCH   5  24
TORSDOF 5
ENDMDL
MODEL 7
REMARK VINA RESULT:      -7.3      3.858      7.868
REMARK  Name = 111332
REMARK  5 active torsions:
REMARK  status: ('A' for Active; 'I' for Inactive)
REMARK    1  A    between atoms: C_5  and  O_21
REMARK    2  A    between atoms: C_5  and  C_24
REMARK    3  A    between atoms: C_24  and  C_25
REMARK    4  A    between atoms: C_25  and  O_26
REMARK    5  A    between atoms: O_26  and  C_28
REMARK                            x       y       z     vdW  Elec       q    Type
REMARK                         _______ _______ _______ _____ _____    ______ ____
ROOT
ATOM      1  O   UNL     1      33.336 -18.830 -21.600  0.00  0.00    -0.291 OA
ATOM      2  C   UNL     1      35.547 -23.639 -15.086  0.00  0.00    +0.033 C 
ATOM      3  C   UNL     1      36.525 -22.685 -15.803  0.00  0.00    +0.007 C 
ATOM      4  C   UNL     1      36.254 -22.572 -17.313  0.00  0.00    +0.019 C 
ATOM      5  C   UNL     1      36.186 -23.670 -13.674  0.00  0.00    +0.143 C 
ATOM      6  C   UNL     1      37.906 -23.183 -15.376  0.00  0.00    +0.003 C 
ATOM      7  C   UNL     1      37.704 -23.725 -13.948  0.00  0.00    +0.034 C 
ATOM      8  C   UNL     1      34.151 -23.007 -15.211  0.00  0.00    +0.028 C 
ATOM      9  C   UNL     1      34.756 -22.389 -17.609  0.00  0.00    -0.046 C 
ATOM     10  C   UNL     1      34.375 -22.039 -19.076  0.00  0.00    +0.030 C 
ATOM     11  C   UNL     1      37.075 -21.414 -17.898  0.00  0.00    +0.008 C 
ATOM     12  C   UNL     1      35.527 -25.065 -15.707  0.00  0.00    +0.003 C 
ATOM     13  C   UNL     1      33.842 -22.579 -16.628  0.00  0.00    -0.034 C 
ATOM     14  C   UNL     1      36.836 -21.271 -19.394  0.00  0.00    +0.023 C 
ATOM     15  C   UNL     1      35.374 -21.045 -19.689  0.00  0.00    -0.039 C 
ATOM     16  C   UNL     1      32.939 -21.441 -19.169  0.00  0.00    +0.016 C 
ATOM     17  C   UNL     1      34.422 -23.351 -19.895  0.00  0.00    +0.008 C 
ATOM     18  C   UNL     1      32.604 -20.839 -20.526  0.00  0.00    +0.070 C 
ATOM     19  C   UNL     1      35.027 -20.015 -20.480  0.00  0.00    +0.029 C 
ATOM     20  C   UNL     1      33.625 -19.801 -20.902  0.00  0.00    +0.173 C 
ENDROOT
BRANCH   5  21
ATOM     21  O   UNL     1      35.926 -22.486 -12.926  0.00  0.00    -0.380 OA
ATOM     22  H   UNL     1      36.766 -22.089 -12.647  0.00  0.00    +0.211 HD
ENDBRANCH   5  21
BRANCH   5  24
ATOM     23  O   UNL     1      34.543 -24.971 -12.541  0.00  0.00    -0.290 OA
ATOM     24  C   UNL     1      35.735 -24.791 -12.786  0.00  0.00    +0.218 C 
BRANCH  24  25
ATOM     25  C   UNL     1      36.824 -25.675 -12.216  0.00  0.00    +0.274 C 
BRANCH  25  26
ATOM     26  O   UNL     1      36.976 -26.844 -12.994  0.00  0.00    -0.440 OA
BRANCH  26  28
ATOM     27  O   UNL     1      37.937 -27.332 -15.038  0.00  0.00    -0.250 OA
ATOM     28  C   UNL     1      37.983 -26.825 -13.924  0.00  0.00    +0.318 C 
ATOM     29  C   UNL     1      39.172 -26.088 -13.388  0.00  0.00    +0.121 C 
ENDBRANCH  26  28
ENDBRANCH  25  26
ENDBRANCH  24  25
ENDBRANCH   5  24
TORSDOF 5
ENDMDL
MODEL 8
REMARK VINA RESULT:      -7.2      1.479      2.755
REMARK  Name = 111332
REMARK  5 active torsions:
REMARK  status: ('A' for Active; 'I' for Inactive)
REMARK    1  A    between atoms: C_5  and  O_21
REMARK    2  A    between atoms: C_5  and  C_24
REMARK    3  A    between atoms: C_24  and  C_25
REMARK    4  A    between atoms: C_25  and  O_26
REMARK    5  A    between atoms: O_26  and  C_28
REMARK                            x       y       z     vdW  Elec       q    Type
REMARK                         _______ _______ _______ _____ _____    ______ ____
ROOT
ATOM      1  O   UNL     1      40.946 -24.654 -13.501  0.00  0.00    -0.291 OA
ATOM      2  C   UNL     1      32.768 -23.650 -15.103  0.00  0.00    +0.033 C 
ATOM      3  C   UNL     1      33.332 -23.854 -13.681  0.00  0.00    +0.007 C 
ATOM      4  C   UNL     1      34.554 -24.787 -13.649  0.00  0.00    +0.019 C 
ATOM      5  C   UNL     1      31.486 -22.843 -14.772  0.00  0.00    +0.143 C 
ATOM      6  C   UNL     1      32.114 -24.267 -12.856  0.00  0.00    +0.003 C 
ATOM      7  C   UNL     1      30.930 -23.523 -13.503  0.00  0.00    +0.034 C 
ATOM      8  C   UNL     1      33.863 -22.930 -15.908  0.00  0.00    +0.028 C 
ATOM      9  C   UNL     1      35.562 -24.443 -14.758  0.00  0.00    -0.046 C 
ATOM     10  C   UNL     1      36.939 -25.165 -14.695  0.00  0.00    +0.030 C 
ATOM     11  C   UNL     1      35.216 -24.721 -12.265  0.00  0.00    +0.008 C 
ATOM     12  C   UNL     1      32.404 -24.988 -15.807  0.00  0.00    +0.003 C 
ATOM     13  C   UNL     1      35.215 -23.588 -15.749  0.00  0.00    -0.034 C 
ATOM     14  C   UNL     1      36.430 -25.636 -12.192  0.00  0.00    +0.023 C 
ATOM     15  C   UNL     1      37.445 -25.275 -13.248  0.00  0.00    -0.039 C 
ATOM     16  C   UNL     1      38.011 -24.432 -15.556  0.00  0.00    +0.016 C 
ATOM     17  C   UNL     1      36.742 -26.594 -15.256  0.00  0.00    +0.008 C 
ATOM     18  C   UNL     1      39.432 -24.930 -15.333  0.00  0.00    +0.070 C 
ATOM     19  C   UNL     1      38.724 -25.092 -12.879  0.00  0.00    +0.029 C 
ATOM     20  C   UNL     1      39.791 -24.848 -13.875  0.00  0.00    +0.173 C 
ENDROOT
BRANCH   5  21
ATOM     21  O   UNL     1      31.761 -21.483 -14.448  0.00  0.00    -0.380 OA
ATOM     22  H   UNL     1      31.242 -21.226 -13.670  0.00  0.00    +0.211 HD
ENDBRANCH   5  21
BRANCH   5  24
ATOM     23  O   UNL     1      30.787 -22.522 -17.027  0.00  0.00    -0.290 OA
ATOM     24  C   UNL     1      30.465 -22.777 -15.868  0.00  0.00    +0.218 C 
BRANCH  24  25
ATOM     25  C   UNL     1      29.030 -23.040 -15.463  0.00  0.00    +0.274 C 
BRANCH  25  26
ATOM     26  O   UNL     1      28.171 -22.058 -16.004  0.00  0.00    -0.440 OA
BRANCH  26  28
ATOM     27  O   UNL     1      27.529 -23.483 -17.704  0.00  0.00    -0.250 OA
ATOM     28  C   UNL     1      27.391 -22.451 -17.060  0.00  0.00    +0.318 C 
ATOM     29  C   UNL     1      26.325 -21.433 -17.327  0.00  0.00    +0.121 C 
ENDBRANCH  26  28
ENDBRANCH  25  26
ENDBRANCH  24  25
ENDBRANCH   5  24
TORSDOF 5
ENDMDL
MODEL 9
REMARK VINA RESULT:      -7.2     14.769     16.843
REMARK  Name = 111332
REMARK  5 active torsions:
REMARK  status: ('A' for Active; 'I' for Inactive)
REMARK    1  A    between atoms: C_5  and  O_21
REMARK    2  A    between atoms: C_5  and  C_24
REMARK    3  A    between atoms: C_24  and  C_25
REMARK    4  A    between atoms: C_25  and  O_26
REMARK    5  A    between atoms: O_26  and  C_28
REMARK                            x       y       z     vdW  Elec       q    Type
REMARK                         _______ _______ _______ _____ _____    ______ ____
ROOT
ATOM      1  O   UNL     1      34.874 -16.930 -21.541  0.00  0.00    -0.291 OA
ATOM      2  C   UNL     1      32.994  -8.992 -23.519  0.00  0.00    +0.033 C 
ATOM      3  C   UNL     1      32.666  -9.623 -22.149  0.00  0.00    +0.007 C 
ATOM      4  C   UNL     1      32.307 -11.115 -22.245  0.00  0.00    +0.019 C 
ATOM      5  C   UNL     1      33.124  -7.503 -23.107  0.00  0.00    +0.143 C 
ATOM      6  C   UNL     1      31.614  -8.687 -21.554  0.00  0.00    +0.003 C 
ATOM      7  C   UNL     1      31.978  -7.291 -22.094  0.00  0.00    +0.034 C 
ATOM      8  C   UNL     1      34.265  -9.693 -24.028  0.00  0.00    +0.028 C 
ATOM      9  C   UNL     1      33.290 -11.879 -23.149  0.00  0.00    -0.046 C 
ATOM     10  C   UNL     1      33.171 -13.429 -23.151  0.00  0.00    +0.030 C 
ATOM     11  C   UNL     1      32.266 -11.727 -20.838  0.00  0.00    +0.008 C 
ATOM     12  C   UNL     1      31.851  -9.174 -24.557  0.00  0.00    +0.003 C 
ATOM     13  C   UNL     1      34.168 -11.199 -23.925  0.00  0.00    -0.034 C 
ATOM     14  C   UNL     1      31.910 -13.205 -20.892  0.00  0.00    +0.023 C 
ATOM     15  C   UNL     1      32.897 -13.970 -21.739  0.00  0.00    -0.039 C 
ATOM     16  C   UNL     1      34.459 -14.103 -23.714  0.00  0.00    +0.016 C 
ATOM     17  C   UNL     1      31.976 -13.803 -24.061  0.00  0.00    +0.008 C 
ATOM     18  C   UNL     1      34.514 -15.609 -23.503  0.00  0.00    +0.070 C 
ATOM     19  C   UNL     1      33.461 -15.079 -21.232  0.00  0.00    +0.029 C 
ATOM     20  C   UNL     1      34.349 -15.939 -22.046  0.00  0.00    +0.173 C 
ENDROOT
BRANCH   5  21
ATOM     21  O   UNL     1      34.349  -7.222 -22.437  0.00  0.00    -0.380 OA
ATOM     22  H   UNL     1      34.297  -6.348 -22.020  0.00  0.00    +0.211 HD
ENDBRANCH   5  21
BRANCH   5  24
ATOM     23  O   UNL     1      34.035  -6.332 -24.970  0.00  0.00    -0.290 OA
ATOM     24  C   UNL     1      33.068  -6.515 -24.233  0.00  0.00    +0.218 C 
BRANCH  24  25
ATOM     25  C   UNL     1      31.763  -5.767 -24.404  0.00  0.00    +0.274 C 
BRANCH  25  26
ATOM     26  O   UNL     1      31.976  -4.372 -24.343  0.00  0.00    -0.440 OA
BRANCH  26  28
ATOM     27  O   UNL     1      30.479  -4.188 -22.592  0.00  0.00    -0.250 OA
ATOM     28  C   UNL     1      31.307  -3.701 -23.352  0.00  0.00    +0.318 C 
ATOM     29  C   UNL     1      31.731  -2.264 -23.320  0.00  0.00    +0.121 C 
ENDBRANCH  26  28
ENDBRANCH  25  26
ENDBRANCH  24  25
ENDBRANCH   5  24
TORSDOF 5
ENDMDL
