MODEL 1
REMARK VINA RESULT:     -11.0      0.000      0.000
REMARK  Name = 44141860
REMARK  7 active torsions:
REMARK  status: ('A' for Active; 'I' for Inactive)
REMARK    1  A    between atoms: C_3  and  C_10
REMARK    2  A    between atoms: C_7  and  C_25
REMARK    3  A    between atoms: N_9  and  C_12
REMARK    4  A    between atoms: C_12  and  C_13
REMARK    5  A    between atoms: C_18  and  C_21
REMARK    6  A    between atoms: C_25  and  N_26
REMARK    7  A    between atoms: N_26  and  C_29
REMARK                            x       y       z     vdW  Elec       q    Type
REMARK                         _______ _______ _______ _____ _____    ______ ____
ROOT
ATOM      1  O   UNL     1      37.351 -21.788 -16.602  0.00  0.00    -0.277 OA
ATOM      2  N   UNL     1      36.699 -23.727 -15.527  0.00  0.00    -0.275 N 
ATOM      3  C   UNL     1      35.791 -24.847 -15.291  0.00  0.00    +0.152 C 
ATOM      4  C   UNL     1      36.684 -25.952 -14.734  0.00  0.00    +0.031 C 
ATOM      5  C   UNL     1      37.994 -23.963 -14.902  0.00  0.00    +0.094 C 
ATOM      6  C   UNL     1      37.793 -25.184 -14.019  0.00  0.00    +0.024 C 
ATOM      7  C   UNL     1      36.487 -22.628 -16.344  0.00  0.00    +0.204 C 
ENDROOT
BRANCH   3  10
ATOM      8  O   UNL     1      35.046 -23.593 -13.402  0.00  0.00    -0.273 OA
ATOM      9  N   UNL     1      33.567 -25.067 -14.430  0.00  0.00    -0.299 N 
ATOM     10  C   UNL     1      34.779 -24.417 -14.273  0.00  0.00    +0.241 C 
ATOM     11  H   UNL     1      33.474 -25.711 -15.169  0.00  0.00    +0.150 HD
BRANCH   9  12
ATOM     12  C   UNL     1      32.433 -24.848 -13.562  0.00  0.00    +0.116 C 
BRANCH  12  13
ATOM     13  C   UNL     1      31.234 -24.355 -14.318  0.00  0.00    -0.003 C 
ATOM     14  C   UNL     1      30.216 -25.244 -14.668  0.00  0.00    -0.003 C 
ATOM     15  C   UNL     1      31.136 -23.010 -14.673  0.00  0.00    -0.003 C 
ATOM     16  C   UNL     1      29.101 -24.787 -15.371  0.00  0.00    +0.002 C 
ATOM     17  C   UNL     1      30.022 -22.553 -15.378  0.00  0.00    +0.002 C 
ATOM     18  C   UNL     1      29.005 -23.442 -15.726  0.00  0.00    +0.031 C 
BRANCH  18  21
ATOM     19  N   UNL     1      26.866 -22.185 -15.840  0.00  0.00    -0.343 N 
ATOM     20  N   UNL     1      27.696 -23.272 -17.735  0.00  0.00    -0.285 NA
ATOM     21  C   UNL     1      27.842 -22.964 -16.458  0.00  0.00    +0.117 C 
ATOM     22  H   UNL     1      26.087 -21.872 -16.355  0.00  0.00    +0.144 HD
ATOM     23  H   UNL     1      26.956 -21.947 -14.888  0.00  0.00    +0.144 HD
ATOM     24  H   UNL     1      26.909 -22.950 -18.232  0.00  0.00    +0.188 HD
ENDBRANCH  18  21
ENDBRANCH  12  13
ENDBRANCH   9  12
ENDBRANCH   3  10
BRANCH   7  25
ATOM     25  C   UNL     1      35.104 -22.496 -16.931  0.00  0.00    +0.006 C 
BRANCH  25  26
ATOM     26  N   UNL     1      35.265 -22.571 -18.367  0.00  0.00    +0.391 N 
ATOM     27  H   UNL     1      36.244 -22.760 -18.582  0.00  0.00    -0.084 HD
ATOM     28  H   UNL     1      34.667 -23.318 -18.720  0.00  0.00    -0.084 HD
BRANCH  26  29
ATOM     29  C   UNL     1      34.868 -21.320 -19.012  0.00  0.00    -0.061 C 
ATOM     30  C   UNL     1      35.893 -20.941 -20.087  0.00  0.00    -0.021 C 
ATOM     31  C   UNL     1      33.466 -21.465 -19.612  0.00  0.00    -0.021 C 
ATOM     32  C   UNL     1      35.473 -19.678 -20.837  0.00  0.00    -0.002 C 
ATOM     33  C   UNL     1      33.048 -20.202 -20.361  0.00  0.00    -0.002 C 
ATOM     34  C   UNL     1      34.070 -19.814 -21.426  0.00  0.00    -0.000 C 
ENDBRANCH  26  29
ENDBRANCH  25  26
ENDBRANCH   7  25
TORSDOF 7
ENDMDL
MODEL 2
REMARK VINA RESULT:     -10.9      2.217      6.464
REMARK  Name = 44141860
REMARK  7 active torsions:
REMARK  status: ('A' for Active; 'I' for Inactive)
REMARK    1  A    between atoms: C_3  and  C_10
REMARK    2  A    between atoms: C_7  and  C_25
REMARK    3  A    between atoms: N_9  and  C_12
REMARK    4  A    between atoms: C_12  and  C_13
REMARK    5  A    between atoms: C_18  and  C_21
REMARK    6  A    between atoms: C_25  and  N_26
REMARK    7  A    between atoms: N_26  and  C_29
REMARK                            x       y       z     vdW  Elec       q    Type
REMARK                         _______ _______ _______ _____ _____    ______ ____
ROOT
ATOM      1  O   UNL     1      34.966 -25.093 -11.894  0.00  0.00    -0.277 OA
ATOM      2  N   UNL     1      35.841 -23.993 -13.728  0.00  0.00    -0.275 N 
ATOM      3  C   UNL     1      35.803 -22.988 -14.788  0.00  0.00    +0.152 C 
ATOM      4  C   UNL     1      37.271 -22.698 -15.091  0.00  0.00    +0.031 C 
ATOM      5  C   UNL     1      37.184 -24.534 -13.567  0.00  0.00    +0.094 C 
ATOM      6  C   UNL     1      37.967 -24.017 -14.763  0.00  0.00    +0.024 C 
ATOM      7  C   UNL     1      34.822 -24.331 -12.852  0.00  0.00    +0.204 C 
ENDROOT
BRANCH   3  10
ATOM      8  O   UNL     1      34.972 -24.809 -16.089  0.00  0.00    -0.273 OA
ATOM      9  N   UNL     1      34.733 -22.640 -16.902  0.00  0.00    -0.299 N 
ATOM     10  C   UNL     1      35.125 -23.595 -15.978  0.00  0.00    +0.241 C 
ATOM     11  H   UNL     1      34.911 -21.694 -16.700  0.00  0.00    +0.150 HD
BRANCH   9  12
ATOM     12  C   UNL     1      34.077 -22.968 -18.147  0.00  0.00    +0.116 C 
BRANCH  12  13
ATOM     13  C   UNL     1      34.206 -21.864 -19.156  0.00  0.00    -0.003 C 
ATOM     14  C   UNL     1      35.466 -21.487 -19.621  0.00  0.00    -0.003 C 
ATOM     15  C   UNL     1      33.066 -21.213 -19.628  0.00  0.00    -0.003 C 
ATOM     16  C   UNL     1      35.587 -20.461 -20.559  0.00  0.00    +0.002 C 
ATOM     17  C   UNL     1      33.186 -20.186 -20.565  0.00  0.00    +0.002 C 
ATOM     18  C   UNL     1      34.446 -19.810 -21.030  0.00  0.00    +0.031 C 
BRANCH  18  21
ATOM     19  N   UNL     1      34.652 -17.406 -21.616  0.00  0.00    -0.343 N 
ATOM     20  N   UNL     1      34.603 -19.029 -23.297  0.00  0.00    -0.285 NA
ATOM     21  C   UNL     1      34.570 -18.741 -22.008  0.00  0.00    +0.117 C 
ATOM     22  H   UNL     1      34.736 -16.698 -22.295  0.00  0.00    +0.144 HD
ATOM     23  H   UNL     1      34.626 -17.171 -20.660  0.00  0.00    +0.144 HD
ATOM     24  H   UNL     1      34.687 -18.306 -23.961  0.00  0.00    +0.188 HD
ENDBRANCH  18  21
ENDBRANCH  12  13
ENDBRANCH   9  12
ENDBRANCH   3  10
BRANCH   7  25
ATOM     25  C   UNL     1      33.477 -23.705 -13.125  0.00  0.00    +0.006 C 
BRANCH  25  26
ATOM     26  N   UNL     1      32.671 -24.734 -13.745  0.00  0.00    +0.391 N 
ATOM     27  H   UNL     1      33.158 -25.087 -14.569  0.00  0.00    -0.084 HD
ATOM     28  H   UNL     1      32.523 -25.481 -13.065  0.00  0.00    -0.084 HD
BRANCH  26  29
ATOM     29  C   UNL     1      31.365 -24.213 -14.148  0.00  0.00    -0.061 C 
ATOM     30  C   UNL     1      31.523 -23.306 -15.374  0.00  0.00    -0.021 C 
ATOM     31  C   UNL     1      30.409 -25.374 -14.440  0.00  0.00    -0.021 C 
ATOM     32  C   UNL     1      30.170 -22.804 -15.873  0.00  0.00    -0.002 C 
ATOM     33  C   UNL     1      29.057 -24.870 -14.939  0.00  0.00    -0.002 C 
ATOM     34  C   UNL     1      29.209 -23.958 -16.153  0.00  0.00    -0.000 C 
ENDBRANCH  26  29
ENDBRANCH  25  26
ENDBRANCH   7  25
TORSDOF 7
ENDMDL
MODEL 3
REMARK VINA RESULT:     -10.3      8.730     12.884
REMARK  Name = 44141860
REMARK  7 active torsions:
REMARK  status: ('A' for Active; 'I' for Inactive)
REMARK    1  A    between atoms: C_3  and  C_10
REMARK    2  A    between atoms: C_7  and  C_25
REMARK    3  A    between atoms: N_9  and  C_12
REMARK    4  A    between atoms: C_12  and  C_13
REMARK    5  A    between atoms: C_18  and  C_21
REMARK    6  A    between atoms: C_25  and  N_26
REMARK    7  A    between atoms: N_26  and  C_29
REMARK                            x       y       z     vdW  Elec       q    Type
REMARK                         _______ _______ _______ _____ _____    ______ ____
ROOT
ATOM      1  O   UNL     1      34.412 -17.926 -24.689  0.00  0.00    -0.277 OA
ATOM      2  N   UNL     1      33.903 -15.673 -24.629  0.00  0.00    -0.275 N 
ATOM      3  C   UNL     1      34.034 -14.319 -24.098  0.00  0.00    +0.152 C 
ATOM      4  C   UNL     1      33.672 -13.412 -25.271  0.00  0.00    +0.031 C 
ATOM      5  C   UNL     1      33.227 -15.666 -25.921  0.00  0.00    +0.094 C 
ATOM      6  C   UNL     1      32.687 -14.254 -26.078  0.00  0.00    +0.024 C 
ATOM      7  C   UNL     1      34.451 -16.837 -24.114  0.00  0.00    +0.204 C 
ENDROOT
BRANCH   3  10
ATOM      8  O   UNL     1      32.729 -15.105 -22.260  0.00  0.00    -0.273 OA
ATOM      9  N   UNL     1      32.554 -12.871 -22.894  0.00  0.00    -0.299 N 
ATOM     10  C   UNL     1      33.048 -14.162 -22.980  0.00  0.00    +0.241 C 
ATOM     11  H   UNL     1      32.888 -12.199 -23.530  0.00  0.00    +0.150 HD
BRANCH   9  12
ATOM     12  C   UNL     1      31.573 -12.464 -21.915  0.00  0.00    +0.116 C 
BRANCH  12  13
ATOM     13  C   UNL     1      31.749 -11.031 -21.505  0.00  0.00    -0.003 C 
ATOM     14  C   UNL     1      31.723 -10.683 -20.154  0.00  0.00    -0.003 C 
ATOM     15  C   UNL     1      31.936 -10.046 -22.475  0.00  0.00    -0.003 C 
ATOM     16  C   UNL     1      31.887  -9.351 -19.773  0.00  0.00    +0.002 C 
ATOM     17  C   UNL     1      32.098  -8.714 -22.094  0.00  0.00    +0.002 C 
ATOM     18  C   UNL     1      32.074  -8.366 -20.743  0.00  0.00    +0.031 C 
BRANCH  18  21
ATOM     19  N   UNL     1      31.571  -5.949 -21.002  0.00  0.00    -0.343 N 
ATOM     20  N   UNL     1      33.057  -6.673 -19.351  0.00  0.00    -0.285 NA
ATOM     21  C   UNL     1      32.245  -6.978 -20.347  0.00  0.00    +0.117 C 
ATOM     22  H   UNL     1      31.701  -5.015 -20.717  0.00  0.00    +0.144 HD
ATOM     23  H   UNL     1      30.963  -6.156 -21.749  0.00  0.00    +0.144 HD
ATOM     24  H   UNL     1      33.175  -5.733 -19.082  0.00  0.00    +0.188 HD
ENDBRANCH  18  21
ENDBRANCH  12  13
ENDBRANCH   9  12
ENDBRANCH   3  10
BRANCH   7  25
ATOM     25  C   UNL     1      35.124 -16.714 -22.770  0.00  0.00    +0.006 C 
BRANCH  25  26
ATOM     26  N   UNL     1      35.973 -17.878 -22.635  0.00  0.00    +0.391 N 
ATOM     27  H   UNL     1      35.828 -18.489 -23.438  0.00  0.00    -0.084 HD
ATOM     28  H   UNL     1      36.943 -17.565 -22.589  0.00  0.00    -0.084 HD
BRANCH  26  29
ATOM     29  C   UNL     1      35.669 -18.617 -21.411  0.00  0.00    -0.061 C 
ATOM     30  C   UNL     1      34.399 -19.453 -21.610  0.00  0.00    -0.021 C 
ATOM     31  C   UNL     1      36.859 -19.504 -21.029  0.00  0.00    -0.021 C 
ATOM     32  C   UNL     1      34.092 -20.301 -20.377  0.00  0.00    -0.002 C 
ATOM     33  C   UNL     1      36.549 -20.351 -19.796  0.00  0.00    -0.002 C 
ATOM     34  C   UNL     1      35.280 -21.176 -19.985  0.00  0.00    -0.000 C 
ENDBRANCH  26  29
ENDBRANCH  25  26
ENDBRANCH   7  25
TORSDOF 7
ENDMDL
MODEL 4
REMARK VINA RESULT:     -10.0      2.465      7.327
REMARK  Name = 44141860
REMARK  7 active torsions:
REMARK  status: ('A' for Active; 'I' for Inactive)
REMARK    1  A    between atoms: C_3  and  C_10
REMARK    2  A    between atoms: C_7  and  C_25
REMARK    3  A    between atoms: N_9  and  C_12
REMARK    4  A    between atoms: C_12  and  C_13
REMARK    5  A    between atoms: C_18  and  C_21
REMARK    6  A    between atoms: C_25  and  N_26
REMARK    7  A    between atoms: N_26  and  C_29
REMARK                            x       y       z     vdW  Elec       q    Type
REMARK                         _______ _______ _______ _____ _____    ______ ____
ROOT
ATOM      1  O   UNL     1      35.034 -25.425 -14.092  0.00  0.00    -0.277 OA
ATOM      2  N   UNL     1      35.805 -23.649 -15.354  0.00  0.00    -0.275 N 
ATOM      3  C   UNL     1      35.655 -22.356 -16.017  0.00  0.00    +0.152 C 
ATOM      4  C   UNL     1      37.066 -21.778 -16.052  0.00  0.00    +0.031 C 
ATOM      5  C   UNL     1      37.210 -24.020 -15.243  0.00  0.00    +0.094 C 
ATOM      6  C   UNL     1      37.955 -23.019 -16.110  0.00  0.00    +0.024 C 
ATOM      7  C   UNL     1      34.814 -24.407 -14.752  0.00  0.00    +0.204 C 
ENDROOT
BRANCH   3  10
ATOM      8  O   UNL     1      34.235 -23.394 -17.631  0.00  0.00    -0.273 OA
ATOM      9  N   UNL     1      35.836 -21.866 -18.355  0.00  0.00    -0.299 N 
ATOM     10  C   UNL     1      35.147 -22.603 -17.406  0.00  0.00    +0.241 C 
ATOM     11  H   UNL     1      36.551 -21.263 -18.050  0.00  0.00    +0.150 HD
BRANCH   9  12
ATOM     12  C   UNL     1      35.555 -21.942 -19.770  0.00  0.00    +0.116 C 
BRANCH  12  13
ATOM     13  C   UNL     1      35.407 -20.581 -20.386  0.00  0.00    -0.003 C 
ATOM     14  C   UNL     1      34.136 -20.070 -20.652  0.00  0.00    -0.003 C 
ATOM     15  C   UNL     1      36.539 -19.827 -20.694  0.00  0.00    -0.003 C 
ATOM     16  C   UNL     1      33.998 -18.805 -21.224  0.00  0.00    +0.002 C 
ATOM     17  C   UNL     1      36.401 -18.563 -21.268  0.00  0.00    +0.002 C 
ATOM     18  C   UNL     1      35.131 -18.052 -21.532  0.00  0.00    +0.031 C 
BRANCH  18  21
ATOM     19  N   UNL     1      34.218 -15.743 -21.520  0.00  0.00    -0.343 N 
ATOM     20  N   UNL     1      35.591 -16.458 -23.271  0.00  0.00    -0.285 NA
ATOM     21  C   UNL     1      34.988 -16.733 -22.128  0.00  0.00    +0.117 C 
ATOM     22  H   UNL     1      34.135 -14.856 -21.941  0.00  0.00    +0.144 HD
ATOM     23  H   UNL     1      33.759 -15.929 -20.669  0.00  0.00    +0.144 HD
ATOM     24  H   UNL     1      35.494 -15.566 -23.676  0.00  0.00    +0.188 HD
ENDBRANCH  18  21
ENDBRANCH  12  13
ENDBRANCH   9  12
ENDBRANCH   3  10
BRANCH   7  25
ATOM     25  C   UNL     1      33.399 -23.919 -14.940  0.00  0.00    +0.006 C 
BRANCH  25  26
ATOM     26  N   UNL     1      32.671 -24.322 -13.757  0.00  0.00    +0.391 N 
ATOM     27  H   UNL     1      32.827 -25.317 -13.594  0.00  0.00    -0.084 HD
ATOM     28  H   UNL     1      33.009 -23.771 -12.967  0.00  0.00    -0.084 HD
BRANCH  26  29
ATOM     29  C   UNL     1      31.237 -24.082 -13.908  0.00  0.00    -0.061 C 
ATOM     30  C   UNL     1      31.007 -22.823 -14.752  0.00  0.00    -0.021 C 
ATOM     31  C   UNL     1      30.568 -25.304 -14.545  0.00  0.00    -0.021 C 
ATOM     32  C   UNL     1      29.519 -22.582 -14.998  0.00  0.00    -0.002 C 
ATOM     33  C   UNL     1      29.081 -25.060 -14.790  0.00  0.00    -0.002 C 
ATOM     34  C   UNL     1      28.845 -23.803 -15.621  0.00  0.00    -0.000 C 
ENDBRANCH  26  29
ENDBRANCH  25  26
ENDBRANCH   7  25
TORSDOF 7
ENDMDL
MODEL 5
REMARK VINA RESULT:      -9.8      7.265     10.848
REMARK  Name = 44141860
REMARK  7 active torsions:
REMARK  status: ('A' for Active; 'I' for Inactive)
REMARK    1  A    between atoms: C_3  and  C_10
REMARK    2  A    between atoms: C_7  and  C_25
REMARK    3  A    between atoms: N_9  and  C_12
REMARK    4  A    between atoms: C_12  and  C_13
REMARK    5  A    between atoms: C_18  and  C_21
REMARK    6  A    between atoms: C_25  and  N_26
REMARK    7  A    between atoms: N_26  and  C_29
REMARK                            x       y       z     vdW  Elec       q    Type
REMARK                         _______ _______ _______ _____ _____    ______ ____
ROOT
ATOM      1  O   UNL     1      31.642 -13.036 -23.440  0.00  0.00    -0.277 OA
ATOM      2  N   UNL     1      33.169 -14.193 -22.147  0.00  0.00    -0.275 N 
ATOM      3  C   UNL     1      34.521 -14.606 -21.780  0.00  0.00    +0.152 C 
ATOM      4  C   UNL     1      34.431 -14.925 -20.290  0.00  0.00    +0.031 C 
ATOM      5  C   UNL     1      32.220 -14.505 -21.086  0.00  0.00    +0.094 C 
ATOM      6  C   UNL     1      32.987 -15.386 -20.114  0.00  0.00    +0.024 C 
ATOM      7  C   UNL     1      32.784 -13.466 -23.262  0.00  0.00    +0.204 C 
ENDROOT
BRANCH   3  10
ATOM      8  O   UNL     1      35.274 -15.770 -23.723  0.00  0.00    -0.273 OA
ATOM      9  N   UNL     1      34.634 -16.997 -21.850  0.00  0.00    -0.299 N 
ATOM     10  C   UNL     1      34.861 -15.834 -22.567  0.00  0.00    +0.241 C 
ATOM     11  H   UNL     1      34.301 -16.919 -20.927  0.00  0.00    +0.150 HD
BRANCH   9  12
ATOM     12  C   UNL     1      34.861 -18.317 -22.392  0.00  0.00    +0.116 C 
BRANCH  12  13
ATOM     13  C   UNL     1      34.631 -19.391 -21.368  0.00  0.00    -0.003 C 
ATOM     14  C   UNL     1      33.333 -19.689 -20.950  0.00  0.00    -0.003 C 
ATOM     15  C   UNL     1      35.713 -20.089 -20.834  0.00  0.00    -0.003 C 
ATOM     16  C   UNL     1      33.119 -20.687 -19.999  0.00  0.00    +0.002 C 
ATOM     17  C   UNL     1      35.499 -21.086 -19.881  0.00  0.00    +0.002 C 
ATOM     18  C   UNL     1      34.202 -21.385 -19.464  0.00  0.00    +0.031 C 
BRANCH  18  21
ATOM     19  N   UNL     1      32.704 -22.930 -18.226  0.00  0.00    -0.343 N 
ATOM     20  N   UNL     1      34.999 -22.908 -17.784  0.00  0.00    -0.285 NA
ATOM     21  C   UNL     1      33.979 -22.426 -18.473  0.00  0.00    +0.117 C 
ATOM     22  H   UNL     1      32.576 -23.635 -17.550  0.00  0.00    +0.144 HD
ATOM     23  H   UNL     1      31.931 -22.582 -18.727  0.00  0.00    +0.144 HD
ATOM     24  H   UNL     1      34.849 -23.612 -17.113  0.00  0.00    +0.188 HD
ENDBRANCH  18  21
ENDBRANCH  12  13
ENDBRANCH   9  12
ENDBRANCH   3  10
BRANCH   7  25
ATOM     25  C   UNL     1      33.858 -13.209 -24.289  0.00  0.00    +0.006 C 
BRANCH  25  26
ATOM     26  N   UNL     1      33.516 -11.956 -24.926  0.00  0.00    +0.391 N 
ATOM     27  H   UNL     1      34.032 -11.877 -25.803  0.00  0.00    -0.084 HD
ATOM     28  H   UNL     1      32.510 -11.945 -25.097  0.00  0.00    -0.084 HD
BRANCH  26  29
ATOM     29  C   UNL     1      33.851 -10.817 -24.072  0.00  0.00    -0.061 C 
ATOM     30  C   UNL     1      34.847  -9.901 -24.793  0.00  0.00    -0.021 C 
ATOM     31  C   UNL     1      32.576 -10.057 -23.693  0.00  0.00    -0.021 C 
ATOM     32  C   UNL     1      35.162  -8.659 -23.962  0.00  0.00    -0.002 C 
ATOM     33  C   UNL     1      32.894  -8.816 -22.862  0.00  0.00    -0.002 C 
ATOM     34  C   UNL     1      33.893  -7.905 -23.571  0.00  0.00    -0.000 C 
ENDBRANCH  26  29
ENDBRANCH  25  26
ENDBRANCH   7  25
TORSDOF 7
ENDMDL
MODEL 6
REMARK VINA RESULT:      -9.8     10.000     14.192
REMARK  Name = 44141860
REMARK  7 active torsions:
REMARK  status: ('A' for Active; 'I' for Inactive)
REMARK    1  A    between atoms: C_3  and  C_10
REMARK    2  A    between atoms: C_7  and  C_25
REMARK    3  A    between atoms: N_9  and  C_12
REMARK    4  A    between atoms: C_12  and  C_13
REMARK    5  A    between atoms: C_18  and  C_21
REMARK    6  A    between atoms: C_25  and  N_26
REMARK    7  A    between atoms: N_26  and  C_29
REMARK                            x       y       z     vdW  Elec       q    Type
REMARK                         _______ _______ _______ _____ _____    ______ ____
ROOT
ATOM      1  O   UNL     1      33.822 -16.816 -25.375  0.00  0.00    -0.277 OA
ATOM      2  N   UNL     1      33.651 -14.516 -25.232  0.00  0.00    -0.275 N 
ATOM      3  C   UNL     1      33.949 -13.219 -24.629  0.00  0.00    +0.152 C 
ATOM      4  C   UNL     1      33.796 -12.222 -25.774  0.00  0.00    +0.031 C 
ATOM      5  C   UNL     1      33.061 -14.354 -26.556  0.00  0.00    +0.094 C 
ATOM      6  C   UNL     1      32.746 -12.872 -26.672  0.00  0.00    +0.024 C 
ATOM      7  C   UNL     1      33.988 -15.769 -24.746  0.00  0.00    +0.204 C 
ENDROOT
BRANCH   3  10
ATOM      8  O   UNL     1      32.189 -13.846 -23.143  0.00  0.00    -0.273 OA
ATOM      9  N   UNL     1      32.935 -11.640 -23.141  0.00  0.00    -0.299 N 
ATOM     10  C   UNL     1      32.933 -12.961 -23.559  0.00  0.00    +0.241 C 
ATOM     11  H   UNL     1      33.581 -11.021 -23.551  0.00  0.00    +0.150 HD
BRANCH   9  12
ATOM     12  C   UNL     1      32.034 -11.128 -22.135  0.00  0.00    +0.116 C 
BRANCH  12  13
ATOM     13  C   UNL     1      31.817  -9.650 -22.276  0.00  0.00    -0.003 C 
ATOM     14  C   UNL     1      31.313  -9.129 -23.468  0.00  0.00    -0.003 C 
ATOM     15  C   UNL     1      32.120  -8.796 -21.216  0.00  0.00    -0.003 C 
ATOM     16  C   UNL     1      31.111  -7.755 -23.600  0.00  0.00    +0.002 C 
ATOM     17  C   UNL     1      31.920  -7.421 -21.348  0.00  0.00    +0.002 C 
ATOM     18  C   UNL     1      31.415  -6.901 -22.539  0.00  0.00    +0.031 C 
BRANCH  18  21
ATOM     19  N   UNL     1      30.394  -4.768 -21.784  0.00  0.00    -0.343 N 
ATOM     20  N   UNL     1      31.784  -4.808 -23.662  0.00  0.00    -0.285 NA
ATOM     21  C   UNL     1      31.205  -5.469 -22.675  0.00  0.00    +0.117 C 
ATOM     22  H   UNL     1      30.266  -3.798 -21.894  0.00  0.00    +0.144 HD
ATOM     23  H   UNL     1      29.952  -5.242 -21.043  0.00  0.00    +0.144 HD
ATOM     24  H   UNL     1      31.641  -3.839 -23.756  0.00  0.00    +0.188 HD
ENDBRANCH  18  21
ENDBRANCH  12  13
ENDBRANCH   9  12
ENDBRANCH   3  10
BRANCH   7  25
ATOM     25  C   UNL     1      34.590 -15.803 -23.364  0.00  0.00    +0.006 C 
BRANCH  25  26
ATOM     26  N   UNL     1      35.519 -16.913 -23.355  0.00  0.00    +0.391 N 
ATOM     27  H   UNL     1      35.324 -17.515 -24.155  0.00  0.00    -0.084 HD
ATOM     28  H   UNL     1      36.467 -16.540 -23.407  0.00  0.00    -0.084 HD
BRANCH  26  29
ATOM     29  C   UNL     1      35.398 -17.696 -22.127  0.00  0.00    -0.061 C 
ATOM     30  C   UNL     1      34.187 -18.632 -22.223  0.00  0.00    -0.021 C 
ATOM     31  C   UNL     1      36.688 -18.486 -21.884  0.00  0.00    -0.021 C 
ATOM     32  C   UNL     1      34.073 -19.523 -20.989  0.00  0.00    -0.002 C 
ATOM     33  C   UNL     1      36.571 -19.377 -20.648  0.00  0.00    -0.002 C 
ATOM     34  C   UNL     1      35.362 -20.303 -20.735  0.00  0.00    -0.000 C 
ENDBRANCH  26  29
ENDBRANCH  25  26
ENDBRANCH   7  25
TORSDOF 7
ENDMDL
MODEL 7
REMARK VINA RESULT:      -9.8     11.261     15.219
REMARK  Name = 44141860
REMARK  7 active torsions:
REMARK  status: ('A' for Active; 'I' for Inactive)
REMARK    1  A    between atoms: C_3  and  C_10
REMARK    2  A    between atoms: C_7  and  C_25
REMARK    3  A    between atoms: N_9  and  C_12
REMARK    4  A    between atoms: C_12  and  C_13
REMARK    5  A    between atoms: C_18  and  C_21
REMARK    6  A    between atoms: C_25  and  N_26
REMARK    7  A    between atoms: N_26  and  C_29
REMARK                            x       y       z     vdW  Elec       q    Type
REMARK                         _______ _______ _______ _____ _____    ______ ____
ROOT
ATOM      1  O   UNL     1      33.290 -14.750 -20.321  0.00  0.00    -0.277 OA
ATOM      2  N   UNL     1      32.217 -12.872 -21.136  0.00  0.00    -0.275 N 
ATOM      3  C   UNL     1      31.572 -12.091 -22.187  0.00  0.00    +0.152 C 
ATOM      4  C   UNL     1      30.615 -11.165 -21.442  0.00  0.00    +0.031 C 
ATOM      5  C   UNL     1      31.943 -12.308 -19.820  0.00  0.00    +0.094 C 
ATOM      6  C   UNL     1      31.301 -10.957 -20.094  0.00  0.00    +0.024 C 
ATOM      7  C   UNL     1      32.886 -14.079 -21.272  0.00  0.00    +0.204 C 
ENDROOT
BRANCH   3  10
ATOM      8  O   UNL     1      33.490 -11.844 -23.587  0.00  0.00    -0.273 OA
ATOM      9  N   UNL     1      32.524  -9.943 -22.652  0.00  0.00    -0.299 N 
ATOM     10  C   UNL     1      32.632 -11.302 -22.895  0.00  0.00    +0.241 C 
ATOM     11  H   UNL     1      31.790  -9.627 -22.078  0.00  0.00    +0.150 HD
BRANCH   9  12
ATOM     12  C   UNL     1      33.439  -8.968 -23.200  0.00  0.00    +0.116 C 
BRANCH  12  13
ATOM     13  C   UNL     1      32.841  -7.591 -23.226  0.00  0.00    -0.003 C 
ATOM     14  C   UNL     1      32.136  -7.115 -22.120  0.00  0.00    -0.003 C 
ATOM     15  C   UNL     1      32.988  -6.788 -24.357  0.00  0.00    -0.003 C 
ATOM     16  C   UNL     1      31.580  -5.836 -22.144  0.00  0.00    +0.002 C 
ATOM     17  C   UNL     1      32.431  -5.509 -24.382  0.00  0.00    +0.002 C 
ATOM     18  C   UNL     1      31.727  -5.033 -23.275  0.00  0.00    +0.031 C 
BRANCH  18  21
ATOM     19  N   UNL     1      30.318  -3.250 -22.276  0.00  0.00    -0.343 N 
ATOM     20  N   UNL     1      31.405  -2.890 -24.314  0.00  0.00    -0.285 NA
ATOM     21  C   UNL     1      31.149  -3.699 -23.301  0.00  0.00    +0.117 C 
ATOM     22  H   UNL     1      29.937  -2.342 -22.314  0.00  0.00    +0.144 HD
ATOM     23  H   UNL     1      30.113  -3.839 -21.514  0.00  0.00    +0.144 HD
ATOM     24  H   UNL     1      31.014  -1.987 -24.333  0.00  0.00    +0.188 HD
ENDBRANCH  18  21
ENDBRANCH  12  13
ENDBRANCH   9  12
ENDBRANCH   3  10
BRANCH   7  25
ATOM     25  C   UNL     1      33.108 -14.557 -22.685  0.00  0.00    +0.006 C 
BRANCH  25  26
ATOM     26  N   UNL     1      34.537 -14.508 -22.908  0.00  0.00    +0.391 N 
ATOM     27  H   UNL     1      34.748 -13.737 -23.543  0.00  0.00    -0.084 HD
ATOM     28  H   UNL     1      34.999 -14.372 -22.009  0.00  0.00    -0.084 HD
BRANCH  26  29
ATOM     29  C   UNL     1      35.026 -15.755 -23.494  0.00  0.00    -0.061 C 
ATOM     30  C   UNL     1      35.066 -16.852 -22.424  0.00  0.00    -0.021 C 
ATOM     31  C   UNL     1      34.133 -16.163 -24.670  0.00  0.00    -0.021 C 
ATOM     32  C   UNL     1      35.498 -18.192 -23.016  0.00  0.00    -0.002 C 
ATOM     33  C   UNL     1      34.567 -17.503 -25.260  0.00  0.00    -0.002 C 
ATOM     34  C   UNL     1      34.619 -18.596 -24.197  0.00  0.00    -0.000 C 
ENDBRANCH  26  29
ENDBRANCH  25  26
ENDBRANCH   7  25
TORSDOF 7
ENDMDL
MODEL 8
REMARK VINA RESULT:      -9.8      2.134      6.165
REMARK  Name = 44141860
REMARK  7 active torsions:
REMARK  status: ('A' for Active; 'I' for Inactive)
REMARK    1  A    between atoms: C_3  and  C_10
REMARK    2  A    between atoms: C_7  and  C_25
REMARK    3  A    between atoms: N_9  and  C_12
REMARK    4  A    between atoms: C_12  and  C_13
REMARK    5  A    between atoms: C_18  and  C_21
REMARK    6  A    between atoms: C_25  and  N_26
REMARK    7  A    between atoms: N_26  and  C_29
REMARK                            x       y       z     vdW  Elec       q    Type
REMARK                         _______ _______ _______ _____ _____    ______ ____
ROOT
ATOM      1  O   UNL     1      32.979 -24.914 -13.105  0.00  0.00    -0.277 OA
ATOM      2  N   UNL     1      35.104 -24.021 -13.273  0.00  0.00    -0.275 N 
ATOM      3  C   UNL     1      36.065 -23.012 -13.711  0.00  0.00    +0.152 C 
ATOM      4  C   UNL     1      37.196 -23.094 -12.690  0.00  0.00    +0.031 C 
ATOM      5  C   UNL     1      35.682 -24.888 -12.254  0.00  0.00    +0.094 C 
ATOM      6  C   UNL     1      37.165 -24.553 -12.243  0.00  0.00    +0.024 C 
ATOM      7  C   UNL     1      33.765 -24.115 -13.618  0.00  0.00    +0.204 C 
ENDROOT
BRANCH   3  10
ATOM      8  O   UNL     1      36.693 -24.571 -15.406  0.00  0.00    -0.273 OA
ATOM      9  N   UNL     1      36.830 -22.293 -15.864  0.00  0.00    -0.299 N 
ATOM     10  C   UNL     1      36.552 -23.397 -15.075  0.00  0.00    +0.241 C 
ATOM     11  H   UNL     1      36.676 -21.397 -15.485  0.00  0.00    +0.150 HD
BRANCH   9  12
ATOM     12  C   UNL     1      37.335 -22.393 -17.214  0.00  0.00    +0.116 C 
BRANCH  12  13
ATOM     13  C   UNL     1      36.386 -21.798 -18.213  0.00  0.00    -0.003 C 
ATOM     14  C   UNL     1      36.854 -20.893 -19.166  0.00  0.00    -0.003 C 
ATOM     15  C   UNL     1      35.037 -22.149 -18.190  0.00  0.00    -0.003 C 
ATOM     16  C   UNL     1      35.973 -20.340 -20.096  0.00  0.00    +0.002 C 
ATOM     17  C   UNL     1      34.155 -21.595 -19.118  0.00  0.00    +0.002 C 
ATOM     18  C   UNL     1      34.623 -20.691 -20.071  0.00  0.00    +0.031 C 
BRANCH  18  21
ATOM     19  N   UNL     1      32.324 -20.213 -20.875  0.00  0.00    -0.343 N 
ATOM     20  N   UNL     1      34.175 -19.491 -22.105  0.00  0.00    -0.285 NA
ATOM     21  C   UNL     1      33.704 -20.116 -21.040  0.00  0.00    +0.117 C 
ATOM     22  H   UNL     1      31.719 -19.816 -21.544  0.00  0.00    +0.144 HD
ATOM     23  H   UNL     1      31.953 -20.677 -20.090  0.00  0.00    +0.144 HD
ATOM     24  H   UNL     1      33.554 -19.102 -22.762  0.00  0.00    +0.188 HD
ENDBRANCH  18  21
ENDBRANCH  12  13
ENDBRANCH   9  12
ENDBRANCH   3  10
BRANCH   7  25
ATOM     25  C   UNL     1      33.287 -23.163 -14.686  0.00  0.00    +0.006 C 
BRANCH  25  26
ATOM     26  N   UNL     1      32.481 -23.948 -15.595  0.00  0.00    +0.391 N 
ATOM     27  H   UNL     1      32.760 -23.736 -16.554  0.00  0.00    -0.084 HD
ATOM     28  H   UNL     1      32.629 -24.936 -15.387  0.00  0.00    -0.084 HD
BRANCH  26  29
ATOM     29  C   UNL     1      31.059 -23.651 -15.435  0.00  0.00    -0.061 C 
ATOM     30  C   UNL     1      30.580 -22.760 -16.588  0.00  0.00    -0.021 C 
ATOM     31  C   UNL     1      30.257 -24.956 -15.376  0.00  0.00    -0.021 C 
ATOM     32  C   UNL     1      29.079 -22.491 -16.497  0.00  0.00    -0.002 C 
ATOM     33  C   UNL     1      28.757 -24.684 -15.286  0.00  0.00    -0.002 C 
ATOM     34  C   UNL     1      28.277 -23.789 -16.425  0.00  0.00    -0.000 C 
ENDBRANCH  26  29
ENDBRANCH  25  26
ENDBRANCH   7  25
TORSDOF 7
ENDMDL
MODEL 9
REMARK VINA RESULT:      -9.2      7.454     11.604
REMARK  Name = 44141860
REMARK  7 active torsions:
REMARK  status: ('A' for Active; 'I' for Inactive)
REMARK    1  A    between atoms: C_3  and  C_10
REMARK    2  A    between atoms: C_7  and  C_25
REMARK    3  A    between atoms: N_9  and  C_12
REMARK    4  A    between atoms: C_12  and  C_13
REMARK    5  A    between atoms: C_18  and  C_21
REMARK    6  A    between atoms: C_25  and  N_26
REMARK    7  A    between atoms: N_26  and  C_29
REMARK                            x       y       z     vdW  Elec       q    Type
REMARK                         _______ _______ _______ _____ _____    ______ ____
ROOT
ATOM      1  O   UNL     1      33.198 -11.253 -24.462  0.00  0.00    -0.277 OA
ATOM      2  N   UNL     1      33.385 -13.553 -24.583  0.00  0.00    -0.275 N 
ATOM      3  C   UNL     1      33.171 -14.909 -24.082  0.00  0.00    +0.152 C 
ATOM      4  C   UNL     1      33.165 -15.781 -25.334  0.00  0.00    +0.031 C 
ATOM      5  C   UNL     1      33.787 -13.570 -25.984  0.00  0.00    +0.094 C 
ATOM      6  C   UNL     1      34.081 -15.028 -26.295  0.00  0.00    +0.024 C 
ATOM      7  C   UNL     1      33.119 -12.361 -23.928  0.00  0.00    +0.204 C 
ENDROOT
BRANCH   3  10
ATOM      8  O   UNL     1      34.864 -14.429 -22.469  0.00  0.00    -0.273 OA
ATOM      9  N   UNL     1      34.693 -16.592 -23.316  0.00  0.00    -0.299 N 
ATOM     10  C   UNL     1      34.324 -15.262 -23.193  0.00  0.00    +0.241 C 
ATOM     11  H   UNL     1      34.181 -17.164 -23.932  0.00  0.00    +0.150 HD
BRANCH   9  12
ATOM     12  C   UNL     1      35.791 -17.178 -22.583  0.00  0.00    +0.116 C 
BRANCH  12  13
ATOM     13  C   UNL     1      35.353 -18.355 -21.761  0.00  0.00    -0.003 C 
ATOM     14  C   UNL     1      33.999 -18.680 -21.674  0.00  0.00    -0.003 C 
ATOM     15  C   UNL     1      36.299 -19.124 -21.083  0.00  0.00    -0.003 C 
ATOM     16  C   UNL     1      33.591 -19.773 -20.911  0.00  0.00    +0.002 C 
ATOM     17  C   UNL     1      35.891 -20.217 -20.317  0.00  0.00    +0.002 C 
ATOM     18  C   UNL     1      34.537 -20.542 -20.232  0.00  0.00    +0.031 C 
BRANCH  18  21
ATOM     19  N   UNL     1      32.767 -21.906 -19.149  0.00  0.00    -0.343 N 
ATOM     20  N   UNL     1      35.012 -22.529 -18.966  0.00  0.00    -0.285 NA
ATOM     21  C   UNL     1      34.113 -21.683 -19.436  0.00  0.00    +0.117 C 
ATOM     22  H   UNL     1      32.502 -22.685 -18.608  0.00  0.00    +0.144 HD
ATOM     23  H   UNL     1      32.082 -21.285 -19.488  0.00  0.00    +0.144 HD
ATOM     24  H   UNL     1      34.726 -23.301 -18.427  0.00  0.00    +0.188 HD
ENDBRANCH  18  21
ENDBRANCH  12  13
ENDBRANCH   9  12
ENDBRANCH   3  10
BRANCH   7  25
ATOM     25  C   UNL     1      32.712 -12.477 -22.480  0.00  0.00    +0.006 C 
BRANCH  25  26
ATOM     26  N   UNL     1      31.344 -12.013 -22.407  0.00  0.00    +0.391 N 
ATOM     27  H   UNL     1      31.097 -11.564 -23.289  0.00  0.00    -0.084 HD
ATOM     28  H   UNL     1      30.740 -12.817 -22.230  0.00  0.00    -0.084 HD
BRANCH  26  29
ATOM     29  C   UNL     1      31.166 -11.054 -21.317  0.00  0.00    -0.061 C 
ATOM     30  C   UNL     1      31.604 -11.687 -19.991  0.00  0.00    -0.021 C 
ATOM     31  C   UNL     1      31.964  -9.779 -21.610  0.00  0.00    -0.021 C 
ATOM     32  C   UNL     1      31.506 -10.688 -18.839  0.00  0.00    -0.002 C 
ATOM     33  C   UNL     1      31.865  -8.783 -20.457  0.00  0.00    -0.002 C 
ATOM     34  C   UNL     1      32.289  -9.411 -19.133  0.00  0.00    -0.000 C 
ENDBRANCH  26  29
ENDBRANCH  25  26
ENDBRANCH   7  25
TORSDOF 7
ENDMDL
