MODEL 1
REMARK VINA RESULT:     -10.5      0.000      0.000
REMARK  Name = 5280445
REMARK  5 active torsions:
REMARK  status: ('A' for Active; 'I' for Inactive)
REMARK    1  A    between atoms: C_5  and  C_12
REMARK    2  A    between atoms: C_8  and  O_22
REMARK    3  A    between atoms: C_10  and  O_24
REMARK    4  A    between atoms: C_15  and  O_18
REMARK    5  A    between atoms: C_17  and  O_20
REMARK                            x       y       z     vdW  Elec       q    Type
REMARK                         _______ _______ _______ _____ _____    ______ ____
ROOT
ATOM      1  O   UNL     1      34.176 -17.470 -21.664  0.00  0.00    -0.453 OA
ATOM      2  O   UNL     1      34.688 -18.147 -25.650  0.00  0.00    -0.286 OA
ATOM      3  C   UNL     1      34.124 -16.618 -23.938  0.00  0.00    +0.107 C 
ATOM      4  C   UNL     1      33.967 -16.454 -22.562  0.00  0.00    +0.154 C 
ATOM      5  C   UNL     1      34.551 -18.714 -22.148  0.00  0.00    +0.149 C 
ATOM      6  C   UNL     1      34.529 -17.934 -24.455  0.00  0.00    +0.205 C 
ATOM      7  C   UNL     1      34.739 -18.994 -23.448  0.00  0.00    +0.080 C 
ATOM      8  C   UNL     1      33.898 -15.547 -24.806  0.00  0.00    +0.143 C 
ATOM      9  C   UNL     1      33.585 -15.216 -22.045  0.00  0.00    +0.074 C 
ATOM     10  C   UNL     1      33.359 -14.145 -22.910  0.00  0.00    +0.140 C 
ATOM     11  C   UNL     1      33.515 -14.310 -24.286  0.00  0.00    +0.073 C 
ENDROOT
BRANCH   5  12
ATOM     12  C   UNL     1      34.754 -19.732 -21.097  0.00  0.00    +0.038 C 
ATOM     13  C   UNL     1      33.658 -20.397 -20.544  0.00  0.00    +0.043 C 
ATOM     14  C   UNL     1      36.043 -20.032 -20.652  0.00  0.00    +0.006 C 
ATOM     15  C   UNL     1      33.850 -21.357 -19.551  0.00  0.00    +0.168 C 
ATOM     16  C   UNL     1      36.236 -20.993 -19.659  0.00  0.00    +0.040 C 
ATOM     17  C   UNL     1      35.139 -21.656 -19.109  0.00  0.00    +0.167 C 
BRANCH  15  18
ATOM     18  O   UNL     1      32.771 -21.998 -19.020  0.00  0.00    -0.503 OA
ATOM     19  H   UNL     1      32.895 -22.670 -18.378  0.00  0.00    +0.292 HD
ENDBRANCH  15  18
BRANCH  17  20
ATOM     20  O   UNL     1      35.340 -22.593 -18.141  0.00  0.00    -0.503 OA
ATOM     21  H   UNL     1      36.093 -22.540 -17.587  0.00  0.00    +0.292 HD
ENDBRANCH  17  20
ENDBRANCH   5  12
BRANCH   8  22
ATOM     22  O   UNL     1      34.037 -15.656 -26.157  0.00  0.00    -0.505 OA
ATOM     23  H   UNL     1      33.296 -15.521 -26.717  0.00  0.00    +0.292 HD
ENDBRANCH   8  22
BRANCH  10  24
ATOM     24  O   UNL     1      32.986 -12.935 -22.409  0.00  0.00    -0.505 OA
ATOM     25  H   UNL     1      33.605 -12.411 -21.941  0.00  0.00    +0.292 HD
ENDBRANCH  10  24
TORSDOF 5
ENDMDL
MODEL 2
REMARK VINA RESULT:      -9.8      1.406      6.999
REMARK  Name = 5280445
REMARK  5 active torsions:
REMARK  status: ('A' for Active; 'I' for Inactive)
REMARK    1  A    between atoms: C_5  and  C_12
REMARK    2  A    between atoms: C_8  and  O_22
REMARK    3  A    between atoms: C_10  and  O_24
REMARK    4  A    between atoms: C_15  and  O_18
REMARK    5  A    between atoms: C_17  and  O_20
REMARK                            x       y       z     vdW  Elec       q    Type
REMARK                         _______ _______ _______ _____ _____    ______ ____
ROOT
ATOM      1  O   UNL     1      33.917 -18.462 -21.617  0.00  0.00    -0.453 OA
ATOM      2  O   UNL     1      37.840 -19.398 -21.040  0.00  0.00    -0.286 OA
ATOM      3  C   UNL     1      35.576 -19.921 -20.609  0.00  0.00    +0.107 C 
ATOM      4  C   UNL     1      34.255 -19.547 -20.847  0.00  0.00    +0.154 C 
ATOM      5  C   UNL     1      34.935 -17.703 -22.173  0.00  0.00    +0.149 C 
ATOM      6  C   UNL     1      36.659 -19.125 -21.206  0.00  0.00    +0.205 C 
ATOM      7  C   UNL     1      36.242 -17.966 -22.023  0.00  0.00    +0.080 C 
ATOM      8  C   UNL     1      35.862 -21.036 -19.817  0.00  0.00    +0.143 C 
ATOM      9  C   UNL     1      33.209 -20.286 -20.295  0.00  0.00    +0.074 C 
ATOM     10  C   UNL     1      33.491 -21.400 -19.504  0.00  0.00    +0.140 C 
ATOM     11  C   UNL     1      34.814 -21.774 -19.265  0.00  0.00    +0.073 C 
ENDROOT
BRANCH   5  12
ATOM     12  C   UNL     1      34.460 -16.565 -22.986  0.00  0.00    +0.038 C 
ATOM     13  C   UNL     1      34.237 -16.725 -24.355  0.00  0.00    +0.043 C 
ATOM     14  C   UNL     1      34.233 -15.323 -22.388  0.00  0.00    +0.006 C 
ATOM     15  C   UNL     1      33.789 -15.650 -25.123  0.00  0.00    +0.168 C 
ATOM     16  C   UNL     1      33.784 -14.248 -23.156  0.00  0.00    +0.040 C 
ATOM     17  C   UNL     1      33.562 -14.412 -24.522  0.00  0.00    +0.167 C 
BRANCH  15  18
ATOM     18  O   UNL     1      33.576 -15.821 -26.458  0.00  0.00    -0.503 OA
ATOM     19  H   UNL     1      32.770 -16.190 -26.760  0.00  0.00    +0.292 HD
ENDBRANCH  15  18
BRANCH  17  20
ATOM     20  O   UNL     1      33.123 -13.355 -25.261  0.00  0.00    -0.503 OA
ATOM     21  H   UNL     1      32.255 -13.357 -25.614  0.00  0.00    +0.292 HD
ENDBRANCH  17  20
ENDBRANCH   5  12
BRANCH   8  22
ATOM     22  O   UNL     1      37.135 -21.443 -19.555  0.00  0.00    -0.505 OA
ATOM     23  H   UNL     1      37.823 -21.253 -20.164  0.00  0.00    +0.292 HD
ENDBRANCH   8  22
BRANCH  10  24
ATOM     24  O   UNL     1      32.473 -22.125 -18.963  0.00  0.00    -0.505 OA
ATOM     25  H   UNL     1      32.622 -22.641 -18.196  0.00  0.00    +0.292 HD
ENDBRANCH  10  24
TORSDOF 5
ENDMDL
MODEL 3
REMARK VINA RESULT:      -9.7      4.739      7.868
REMARK  Name = 5280445
REMARK  5 active torsions:
REMARK  status: ('A' for Active; 'I' for Inactive)
REMARK    1  A    between atoms: C_5  and  C_12
REMARK    2  A    between atoms: C_8  and  O_22
REMARK    3  A    between atoms: C_10  and  O_24
REMARK    4  A    between atoms: C_15  and  O_18
REMARK    5  A    between atoms: C_17  and  O_20
REMARK                            x       y       z     vdW  Elec       q    Type
REMARK                         _______ _______ _______ _____ _____    ______ ____
ROOT
ATOM      1  O   UNL     1      36.175 -22.648 -16.931  0.00  0.00    -0.453 OA
ATOM      2  O   UNL     1      32.249 -22.978 -17.970  0.00  0.00    -0.286 OA
ATOM      3  C   UNL     1      34.379 -22.082 -18.465  0.00  0.00    +0.107 C 
ATOM      4  C   UNL     1      35.709 -22.012 -18.054  0.00  0.00    +0.154 C 
ATOM      5  C   UNL     1      35.281 -23.385 -16.170  0.00  0.00    +0.149 C 
ATOM      6  C   UNL     1      33.429 -22.871 -17.666  0.00  0.00    +0.205 C 
ATOM      7  C   UNL     1      33.980 -23.533 -16.465  0.00  0.00    +0.080 C 
ATOM      8  C   UNL     1      33.961 -21.414 -19.618  0.00  0.00    +0.143 C 
ATOM      9  C   UNL     1      36.631 -21.272 -18.795  0.00  0.00    +0.074 C 
ATOM     10  C   UNL     1      36.216 -20.604 -19.947  0.00  0.00    +0.140 C 
ATOM     11  C   UNL     1      34.885 -20.675 -20.358  0.00  0.00    +0.073 C 
ENDROOT
BRANCH   5  12
ATOM     12  C   UNL     1      35.888 -24.031 -14.988  0.00  0.00    +0.038 C 
ATOM     13  C   UNL     1      35.135 -24.217 -13.827  0.00  0.00    +0.043 C 
ATOM     14  C   UNL     1      37.217 -24.458 -15.028  0.00  0.00    +0.006 C 
ATOM     15  C   UNL     1      35.708 -24.827 -12.711  0.00  0.00    +0.168 C 
ATOM     16  C   UNL     1      37.791 -25.068 -13.912  0.00  0.00    +0.040 C 
ATOM     17  C   UNL     1      37.036 -25.253 -12.754  0.00  0.00    +0.167 C 
BRANCH  15  18
ATOM     18  O   UNL     1      34.962 -25.002 -11.584  0.00  0.00    -0.503 OA
ATOM     19  H   UNL     1      34.663 -24.256 -11.101  0.00  0.00    +0.292 HD
ENDBRANCH  15  18
BRANCH  17  20
ATOM     20  O   UNL     1      37.607 -25.851 -11.672  0.00  0.00    -0.503 OA
ATOM     21  H   UNL     1      37.704 -25.375 -10.870  0.00  0.00    +0.292 HD
ENDBRANCH  17  20
ENDBRANCH   5  12
BRANCH   8  22
ATOM     22  O   UNL     1      32.673 -21.452 -20.062  0.00  0.00    -0.505 OA
ATOM     23  H   UNL     1      31.980 -21.132 -19.517  0.00  0.00    +0.292 HD
ENDBRANCH   8  22
BRANCH  10  24
ATOM     24  O   UNL     1      37.113 -19.881 -20.674  0.00  0.00    -0.505 OA
ATOM     25  H   UNL     1      37.229 -18.968 -20.499  0.00  0.00    +0.292 HD
ENDBRANCH  10  24
TORSDOF 5
ENDMDL
MODEL 4
REMARK VINA RESULT:      -9.7      2.677      7.507
REMARK  Name = 5280445
REMARK  5 active torsions:
REMARK  status: ('A' for Active; 'I' for Inactive)
REMARK    1  A    between atoms: C_5  and  C_12
REMARK    2  A    between atoms: C_8  and  O_22
REMARK    3  A    between atoms: C_10  and  O_24
REMARK    4  A    between atoms: C_15  and  O_18
REMARK    5  A    between atoms: C_17  and  O_20
REMARK                            x       y       z     vdW  Elec       q    Type
REMARK                         _______ _______ _______ _____ _____    ______ ____
ROOT
ATOM      1  O   UNL     1      33.909 -14.467 -22.501  0.00  0.00    -0.453 OA
ATOM      2  O   UNL     1      33.629 -15.949 -26.287  0.00  0.00    -0.286 OA
ATOM      3  C   UNL     1      34.301 -16.298 -24.048  0.00  0.00    +0.107 C 
ATOM      4  C   UNL     1      34.366 -15.731 -22.776  0.00  0.00    +0.154 C 
ATOM      5  C   UNL     1      33.368 -13.720 -23.537  0.00  0.00    +0.149 C 
ATOM      6  C   UNL     1      33.720 -15.513 -25.147  0.00  0.00    +0.205 C 
ATOM      7  C   UNL     1      33.246 -14.157 -24.800  0.00  0.00    +0.080 C 
ATOM      8  C   UNL     1      34.782 -17.591 -24.269  0.00  0.00    +0.143 C 
ATOM      9  C   UNL     1      34.911 -16.455 -21.716  0.00  0.00    +0.074 C 
ATOM     10  C   UNL     1      35.391 -17.747 -21.934  0.00  0.00    +0.140 C 
ATOM     11  C   UNL     1      35.327 -18.313 -23.207  0.00  0.00    +0.073 C 
ENDROOT
BRANCH   5  12
ATOM     12  C   UNL     1      32.903 -12.378 -23.130  0.00  0.00    +0.038 C 
ATOM     13  C   UNL     1      31.983 -12.240 -22.089  0.00  0.00    +0.043 C 
ATOM     14  C   UNL     1      33.382 -11.242 -23.786  0.00  0.00    +0.006 C 
ATOM     15  C   UNL     1      31.544 -10.973 -21.706  0.00  0.00    +0.168 C 
ATOM     16  C   UNL     1      32.943  -9.974 -23.402  0.00  0.00    +0.040 C 
ATOM     17  C   UNL     1      32.025  -9.840 -22.362  0.00  0.00    +0.167 C 
BRANCH  15  18
ATOM     18  O   UNL     1      30.645 -10.854 -20.689  0.00  0.00    -0.503 OA
ATOM     19  H   UNL     1      30.017 -10.158 -20.698  0.00  0.00    +0.292 HD
ENDBRANCH  15  18
BRANCH  17  20
ATOM     20  O   UNL     1      31.604  -8.597 -21.996  0.00  0.00    -0.503 OA
ATOM     21  H   UNL     1      30.731  -8.321 -22.193  0.00  0.00    +0.292 HD
ENDBRANCH  17  20
ENDBRANCH   5  12
BRANCH   8  22
ATOM     22  O   UNL     1      34.741 -18.189 -25.493  0.00  0.00    -0.505 OA
ATOM     23  H   UNL     1      34.779 -17.667 -26.271  0.00  0.00    +0.292 HD
ENDBRANCH   8  22
BRANCH  10  24
ATOM     24  O   UNL     1      35.924 -18.457 -20.901  0.00  0.00    -0.505 OA
ATOM     25  H   UNL     1      36.209 -18.013 -20.127  0.00  0.00    +0.292 HD
ENDBRANCH  10  24
TORSDOF 5
ENDMDL
MODEL 5
REMARK VINA RESULT:      -9.7      1.288      2.824
REMARK  Name = 5280445
REMARK  5 active torsions:
REMARK  status: ('A' for Active; 'I' for Inactive)
REMARK    1  A    between atoms: C_5  and  C_12
REMARK    2  A    between atoms: C_8  and  O_22
REMARK    3  A    between atoms: C_10  and  O_24
REMARK    4  A    between atoms: C_15  and  O_18
REMARK    5  A    between atoms: C_17  and  O_20
REMARK                            x       y       z     vdW  Elec       q    Type
REMARK                         _______ _______ _______ _____ _____    ______ ____
ROOT
ATOM      1  O   UNL     1      34.220 -17.242 -23.058  0.00  0.00    -0.453 OA
ATOM      2  O   UNL     1      33.248 -13.972 -20.830  0.00  0.00    -0.286 OA
ATOM      3  C   UNL     1      33.557 -14.907 -22.979  0.00  0.00    +0.107 C 
ATOM      4  C   UNL     1      33.897 -16.063 -23.680  0.00  0.00    +0.154 C 
ATOM      5  C   UNL     1      34.214 -17.282 -21.672  0.00  0.00    +0.149 C 
ATOM      6  C   UNL     1      33.540 -14.947 -21.509  0.00  0.00    +0.205 C 
ATOM      7  C   UNL     1      33.898 -16.240 -20.888  0.00  0.00    +0.080 C 
ATOM      8  C   UNL     1      33.236 -13.734 -23.665  0.00  0.00    +0.143 C 
ATOM      9  C   UNL     1      33.919 -16.052 -25.075  0.00  0.00    +0.074 C 
ATOM     10  C   UNL     1      33.599 -14.881 -25.763  0.00  0.00    +0.140 C 
ATOM     11  C   UNL     1      33.259 -13.725 -25.061  0.00  0.00    +0.073 C 
ENDROOT
BRANCH   5  12
ATOM     12  C   UNL     1      34.571 -18.599 -21.107  0.00  0.00    +0.038 C 
ATOM     13  C   UNL     1      33.568 -19.508 -20.759  0.00  0.00    +0.043 C 
ATOM     14  C   UNL     1      35.911 -18.942 -20.919  0.00  0.00    +0.006 C 
ATOM     15  C   UNL     1      33.905 -20.751 -20.226  0.00  0.00    +0.168 C 
ATOM     16  C   UNL     1      36.248 -20.186 -20.385  0.00  0.00    +0.040 C 
ATOM     17  C   UNL     1      35.245 -21.091 -20.039  0.00  0.00    +0.167 C 
BRANCH  15  18
ATOM     18  O   UNL     1      32.916 -21.627 -19.890  0.00  0.00    -0.503 OA
ATOM     19  H   UNL     1      33.115 -22.380 -19.369  0.00  0.00    +0.292 HD
ENDBRANCH  15  18
BRANCH  17  20
ATOM     20  O   UNL     1      35.586 -22.303 -19.520  0.00  0.00    -0.503 OA
ATOM     21  H   UNL     1      35.345 -22.521 -18.641  0.00  0.00    +0.292 HD
ENDBRANCH  17  20
ENDBRANCH   5  12
BRANCH   8  22
ATOM     22  O   UNL     1      32.897 -12.579 -23.027  0.00  0.00    -0.505 OA
ATOM     23  H   UNL     1      32.950 -11.760 -23.480  0.00  0.00    +0.292 HD
ENDBRANCH   8  22
BRANCH  10  24
ATOM     24  O   UNL     1      33.619 -14.867 -27.125  0.00  0.00    -0.505 OA
ATOM     25  H   UNL     1      33.840 -14.080 -27.582  0.00  0.00    +0.292 HD
ENDBRANCH  10  24
TORSDOF 5
ENDMDL
MODEL 6
REMARK VINA RESULT:      -9.7      4.975     10.876
REMARK  Name = 5280445
REMARK  5 active torsions:
REMARK  status: ('A' for Active; 'I' for Inactive)
REMARK    1  A    between atoms: C_5  and  C_12
REMARK    2  A    between atoms: C_8  and  O_22
REMARK    3  A    between atoms: C_10  and  O_24
REMARK    4  A    between atoms: C_15  and  O_18
REMARK    5  A    between atoms: C_17  and  O_20
REMARK                            x       y       z     vdW  Elec       q    Type
REMARK                         _______ _______ _______ _____ _____    ______ ____
ROOT
ATOM      1  O   UNL     1      36.799 -23.710 -16.000  0.00  0.00    -0.453 OA
ATOM      2  O   UNL     1      33.949 -23.964 -13.098  0.00  0.00    -0.286 OA
ATOM      3  C   UNL     1      36.138 -24.509 -13.804  0.00  0.00    +0.107 C 
ATOM      4  C   UNL     1      37.067 -24.383 -14.835  0.00  0.00    +0.154 C 
ATOM      5  C   UNL     1      35.546 -23.137 -16.158  0.00  0.00    +0.149 C 
ATOM      6  C   UNL     1      34.811 -23.895 -13.964  0.00  0.00    +0.205 C 
ATOM      7  C   UNL     1      34.572 -23.184 -15.236  0.00  0.00    +0.080 C 
ATOM      8  C   UNL     1      36.467 -25.206 -12.639  0.00  0.00    +0.143 C 
ATOM      9  C   UNL     1      38.333 -24.955 -14.708  0.00  0.00    +0.074 C 
ATOM     10  C   UNL     1      38.665 -25.652 -13.545  0.00  0.00    +0.140 C 
ATOM     11  C   UNL     1      37.734 -25.778 -12.514  0.00  0.00    +0.073 C 
ENDROOT
BRANCH   5  12
ATOM     12  C   UNL     1      35.366 -22.433 -17.444  0.00  0.00    +0.038 C 
ATOM     13  C   UNL     1      34.133 -22.472 -18.099  0.00  0.00    +0.043 C 
ATOM     14  C   UNL     1      36.429 -21.725 -18.011  0.00  0.00    +0.006 C 
ATOM     15  C   UNL     1      33.963 -21.808 -19.313  0.00  0.00    +0.168 C 
ATOM     16  C   UNL     1      36.259 -21.060 -19.225  0.00  0.00    +0.040 C 
ATOM     17  C   UNL     1      35.026 -21.100 -19.876  0.00  0.00    +0.167 C 
BRANCH  15  18
ATOM     18  O   UNL     1      32.755 -21.855 -19.941  0.00  0.00    -0.503 OA
ATOM     19  H   UNL     1      32.435 -21.102 -20.398  0.00  0.00    +0.292 HD
ENDBRANCH  15  18
BRANCH  17  20
ATOM     20  O   UNL     1      34.872 -20.446 -21.061  0.00  0.00    -0.503 OA
ATOM     21  H   UNL     1      35.502 -20.561 -21.745  0.00  0.00    +0.292 HD
ENDBRANCH  17  20
ENDBRANCH   5  12
BRANCH   8  22
ATOM     22  O   UNL     1      35.595 -25.357 -11.603  0.00  0.00    -0.505 OA
ATOM     23  H   UNL     1      35.070 -26.132 -11.541  0.00  0.00    +0.292 HD
ENDBRANCH   8  22
BRANCH  10  24
ATOM     24  O   UNL     1      39.900 -26.211 -13.418  0.00  0.00    -0.505 OA
ATOM     25  H   UNL     1      40.503 -26.182 -14.134  0.00  0.00    +0.292 HD
ENDBRANCH  10  24
TORSDOF 5
ENDMDL
MODEL 7
REMARK VINA RESULT:      -9.6      8.536     10.892
REMARK  Name = 5280445
REMARK  5 active torsions:
REMARK  status: ('A' for Active; 'I' for Inactive)
REMARK    1  A    between atoms: C_5  and  C_12
REMARK    2  A    between atoms: C_8  and  O_22
REMARK    3  A    between atoms: C_10  and  O_24
REMARK    4  A    between atoms: C_15  and  O_18
REMARK    5  A    between atoms: C_17  and  O_20
REMARK                            x       y       z     vdW  Elec       q    Type
REMARK                         _______ _______ _______ _____ _____    ______ ____
ROOT
ATOM      1  O   UNL     1      33.500 -23.846 -13.878  0.00  0.00    -0.453 OA
ATOM      2  O   UNL     1      36.241 -22.943 -16.754  0.00  0.00    -0.286 OA
ATOM      3  C   UNL     1      35.822 -23.498 -14.495  0.00  0.00    +0.107 C 
ATOM      4  C   UNL     1      34.834 -23.801 -13.561  0.00  0.00    +0.154 C 
ATOM      5  C   UNL     1      33.120 -23.569 -15.183  0.00  0.00    +0.149 C 
ATOM      6  C   UNL     1      35.426 -23.213 -15.883  0.00  0.00    +0.205 C 
ATOM      7  C   UNL     1      33.978 -23.272 -16.172  0.00  0.00    +0.080 C 
ATOM      8  C   UNL     1      37.167 -23.467 -14.116  0.00  0.00    +0.143 C 
ATOM      9  C   UNL     1      35.183 -24.076 -12.239  0.00  0.00    +0.074 C 
ATOM     10  C   UNL     1      36.525 -24.047 -11.857  0.00  0.00    +0.140 C 
ATOM     11  C   UNL     1      37.514 -23.743 -12.792  0.00  0.00    +0.073 C 
ENDROOT
BRANCH   5  12
ATOM     12  C   UNL     1      31.664 -23.651 -15.415  0.00  0.00    +0.038 C 
ATOM     13  C   UNL     1      30.892 -24.579 -14.713  0.00  0.00    +0.043 C 
ATOM     14  C   UNL     1      31.053 -22.800 -16.339  0.00  0.00    +0.006 C 
ATOM     15  C   UNL     1      29.518 -24.656 -14.933  0.00  0.00    +0.168 C 
ATOM     16  C   UNL     1      29.677 -22.877 -16.559  0.00  0.00    +0.040 C 
ATOM     17  C   UNL     1      28.910 -23.804 -15.856  0.00  0.00    +0.167 C 
BRANCH  15  18
ATOM     18  O   UNL     1      28.777 -25.568 -14.241  0.00  0.00    -0.503 OA
ATOM     19  H   UNL     1      27.883 -25.719 -14.476  0.00  0.00    +0.292 HD
ENDBRANCH  15  18
BRANCH  17  20
ATOM     20  O   UNL     1      27.568 -23.870 -16.078  0.00  0.00    -0.503 OA
ATOM     21  H   UNL     1      27.102 -23.108 -16.363  0.00  0.00    +0.292 HD
ENDBRANCH  17  20
ENDBRANCH   5  12
BRANCH   8  22
ATOM     22  O   UNL     1      38.170 -23.177 -14.990  0.00  0.00    -0.505 OA
ATOM     23  H   UNL     1      38.231 -22.320 -15.366  0.00  0.00    +0.292 HD
ENDBRANCH   8  22
BRANCH  10  24
ATOM     24  O   UNL     1      36.870 -24.315 -10.567  0.00  0.00    -0.505 OA
ATOM     25  H   UNL     1      36.329 -24.874 -10.045  0.00  0.00    +0.292 HD
ENDBRANCH  10  24
TORSDOF 5
ENDMDL
MODEL 8
REMARK VINA RESULT:      -9.5      9.386     12.062
REMARK  Name = 5280445
REMARK  5 active torsions:
REMARK  status: ('A' for Active; 'I' for Inactive)
REMARK    1  A    between atoms: C_5  and  C_12
REMARK    2  A    between atoms: C_8  and  O_22
REMARK    3  A    between atoms: C_10  and  O_24
REMARK    4  A    between atoms: C_15  and  O_18
REMARK    5  A    between atoms: C_17  and  O_20
REMARK                            x       y       z     vdW  Elec       q    Type
REMARK                         _______ _______ _______ _____ _____    ______ ____
ROOT
ATOM      1  O   UNL     1      34.789 -24.819 -14.756  0.00  0.00    -0.453 OA
ATOM      2  O   UNL     1      35.470 -24.108 -10.802  0.00  0.00    -0.286 OA
ATOM      3  C   UNL     1      36.347 -24.768 -12.894  0.00  0.00    +0.107 C 
ATOM      4  C   UNL     1      36.047 -24.993 -14.237  0.00  0.00    +0.154 C 
ATOM      5  C   UNL     1      33.773 -24.410 -13.905  0.00  0.00    +0.149 C 
ATOM      6  C   UNL     1      35.276 -24.326 -11.990  0.00  0.00    +0.205 C 
ATOM      7  C   UNL     1      33.939 -24.156 -12.597  0.00  0.00    +0.080 C 
ATOM      8  C   UNL     1      37.648 -24.961 -12.421  0.00  0.00    +0.143 C 
ATOM      9  C   UNL     1      37.045 -25.411 -15.116  0.00  0.00    +0.074 C 
ATOM     10  C   UNL     1      38.345 -25.604 -14.646  0.00  0.00    +0.140 C 
ATOM     11  C   UNL     1      38.645 -25.380 -13.302  0.00  0.00    +0.073 C 
ENDROOT
BRANCH   5  12
ATOM     12  C   UNL     1      32.463 -24.249 -14.567  0.00  0.00    +0.038 C 
ATOM     13  C   UNL     1      31.368 -25.009 -14.150  0.00  0.00    +0.043 C 
ATOM     14  C   UNL     1      32.314 -23.336 -15.614  0.00  0.00    +0.006 C 
ATOM     15  C   UNL     1      30.131 -24.857 -14.776  0.00  0.00    +0.168 C 
ATOM     16  C   UNL     1      31.076 -23.183 -16.240  0.00  0.00    +0.040 C 
ATOM     17  C   UNL     1      29.985 -23.943 -15.820  0.00  0.00    +0.167 C 
BRANCH  15  18
ATOM     18  O   UNL     1      29.071 -25.606 -14.359  0.00  0.00    -0.503 OA
ATOM     19  H   UNL     1      29.218 -26.428 -13.934  0.00  0.00    +0.292 HD
ENDBRANCH  15  18
BRANCH  17  20
ATOM     20  O   UNL     1      28.781 -23.785 -16.438  0.00  0.00    -0.503 OA
ATOM     21  H   UNL     1      28.291 -24.536 -16.710  0.00  0.00    +0.292 HD
ENDBRANCH  17  20
ENDBRANCH   5  12
BRANCH   8  22
ATOM     22  O   UNL     1      37.993 -24.756 -11.119  0.00  0.00    -0.505 OA
ATOM     23  H   UNL     1      38.032 -23.884 -10.777  0.00  0.00    +0.292 HD
ENDBRANCH   8  22
BRANCH  10  24
ATOM     24  O   UNL     1      39.323 -26.013 -15.502  0.00  0.00    -0.505 OA
ATOM     25  H   UNL     1      40.000 -26.584 -15.199  0.00  0.00    +0.292 HD
ENDBRANCH  10  24
TORSDOF 5
ENDMDL
MODEL 9
REMARK VINA RESULT:      -9.4      7.794     11.730
REMARK  Name = 5280445
REMARK  5 active torsions:
REMARK  status: ('A' for Active; 'I' for Inactive)
REMARK    1  A    between atoms: C_5  and  C_12
REMARK    2  A    between atoms: C_8  and  O_22
REMARK    3  A    between atoms: C_10  and  O_24
REMARK    4  A    between atoms: C_15  and  O_18
REMARK    5  A    between atoms: C_17  and  O_20
REMARK                            x       y       z     vdW  Elec       q    Type
REMARK                         _______ _______ _______ _____ _____    ______ ____
ROOT
ATOM      1  O   UNL     1      35.607 -24.338 -15.108  0.00  0.00    -0.453 OA
ATOM      2  O   UNL     1      35.827 -24.627 -11.049  0.00  0.00    -0.286 OA
ATOM      3  C   UNL     1      36.922 -24.850 -13.132  0.00  0.00    +0.107 C 
ATOM      4  C   UNL     1      36.779 -24.730 -14.513  0.00  0.00    +0.154 C 
ATOM      5  C   UNL     1      34.516 -24.059 -14.299  0.00  0.00    +0.149 C 
ATOM      6  C   UNL     1      35.771 -24.545 -12.269  0.00  0.00    +0.205 C 
ATOM      7  C   UNL     1      34.531 -24.131 -12.958  0.00  0.00    +0.080 C 
ATOM      8  C   UNL     1      38.141 -25.252 -12.581  0.00  0.00    +0.143 C 
ATOM      9  C   UNL     1      37.856 -25.011 -15.354  0.00  0.00    +0.074 C 
ATOM     10  C   UNL     1      39.075 -25.413 -14.806  0.00  0.00    +0.140 C 
ATOM     11  C   UNL     1      39.217 -25.533 -13.424  0.00  0.00    +0.073 C 
ENDROOT
BRANCH   5  12
ATOM     12  C   UNL     1      33.309 -23.642 -15.041  0.00  0.00    +0.038 C 
ATOM     13  C   UNL     1      33.405 -23.264 -16.381  0.00  0.00    +0.043 C 
ATOM     14  C   UNL     1      32.066 -23.624 -14.403  0.00  0.00    +0.006 C 
ATOM     15  C   UNL     1      32.265 -22.870 -17.082  0.00  0.00    +0.168 C 
ATOM     16  C   UNL     1      30.925 -23.230 -15.104  0.00  0.00    +0.040 C 
ATOM     17  C   UNL     1      31.025 -22.854 -16.443  0.00  0.00    +0.167 C 
BRANCH  15  18
ATOM     18  O   UNL     1      32.374 -22.503 -18.390  0.00  0.00    -0.503 OA
ATOM     19  H   UNL     1      31.896 -22.968 -19.048  0.00  0.00    +0.292 HD
ENDBRANCH  15  18
BRANCH  17  20
ATOM     20  O   UNL     1      29.904 -22.472 -17.117  0.00  0.00    -0.503 OA
ATOM     21  H   UNL     1      29.059 -22.727 -16.803  0.00  0.00    +0.292 HD
ENDBRANCH  17  20
ENDBRANCH   5  12
BRANCH   8  22
ATOM     22  O   UNL     1      38.332 -25.385 -11.239  0.00  0.00    -0.505 OA
ATOM     23  H   UNL     1      38.760 -26.147 -10.899  0.00  0.00    +0.292 HD
ENDBRANCH   8  22
BRANCH  10  24
ATOM     24  O   UNL     1      40.129 -25.688 -15.624  0.00  0.00    -0.505 OA
ATOM     25  H   UNL     1      40.372 -26.577 -15.790  0.00  0.00    +0.292 HD
ENDBRANCH  10  24
TORSDOF 5
ENDMDL
