MODEL 1
REMARK VINA RESULT:      -9.0      0.000      0.000
REMARK  Name = 77992
REMARK  2 active torsions:
REMARK  status: ('A' for Active; 'I' for Inactive)
REMARK    1  A    between atoms: C_2  and  N_20
REMARK    2  A    between atoms: C_12  and  C_17
REMARK                            x       y       z     vdW  Elec       q    Type
REMARK                         _______ _______ _______ _____ _____    ______ ____
ROOT
ATOM      1  N   UNL     1      33.870 -16.927 -25.520  0.00  0.00    -0.357 N 
ATOM      2  C   UNL     1      35.017 -18.401 -21.794  0.00  0.00    -0.057 C 
ATOM      3  C   UNL     1      35.097 -16.881 -22.080  0.00  0.00    +0.006 C 
ATOM      4  C   UNL     1      35.494 -19.238 -23.006  0.00  0.00    -0.015 C 
ATOM      5  C   UNL     1      34.549 -16.562 -23.430  0.00  0.00    -0.011 A 
ATOM      6  C   UNL     1      34.634 -18.981 -24.259  0.00  0.00    +0.041 C 
ATOM      7  C   UNL     1      34.369 -17.527 -24.400  0.00  0.00    +0.029 A 
ATOM      8  C   UNL     1      34.148 -15.317 -23.990  0.00  0.00    +0.013 A 
ATOM      9  C   UNL     1      33.725 -15.574 -25.299  0.00  0.00    +0.056 A 
ATOM     10  C   UNL     1      34.104 -13.990 -23.514  0.00  0.00    +0.006 C 
ATOM     11  C   UNL     1      33.259 -14.567 -26.152  0.00  0.00    +0.017 C 
ATOM     12  C   UNL     1      33.640 -12.975 -24.357  0.00  0.00    +0.053 C 
ATOM     13  C   UNL     1      33.223 -13.262 -25.655  0.00  0.00    +0.006 C 
ATOM     14  H   UNL     1      33.646 -17.390 -26.360  0.00  0.00    +0.166 HD
ENDROOT
BRANCH  12  17
ATOM     15  O   UNL     1      32.690 -11.223 -23.103  0.00  0.00    -0.270 OA
ATOM     16  N   UNL     1      34.600 -10.737 -24.274  0.00  0.00    -0.325 N 
ATOM     17  C   UNL     1      33.591 -11.606 -23.869  0.00  0.00    +0.243 C 
ATOM     18  H   UNL     1      34.599  -9.803 -23.964  0.00  0.00    +0.145 HD
ATOM     19  H   UNL     1      35.315 -11.058 -24.871  0.00  0.00    +0.145 HD
ENDBRANCH  12  17
BRANCH   2  20
ATOM     20  N   UNL     1      35.812 -18.736 -20.613  0.00  0.00    +0.384 N 
ATOM     21  C   UNL     1      35.918 -20.178 -20.456  0.00  0.00    -0.106 C 
ATOM     22  H   UNL     1      35.366 -18.341 -19.786  0.00  0.00    -0.085 HD
ATOM     23  H   UNL     1      36.749 -18.350 -20.729  0.00  0.00    -0.085 HD
ENDBRANCH   2  20
TORSDOF 2
ENDMDL
MODEL 2
REMARK VINA RESULT:      -9.0      9.351     12.247
REMARK  Name = 77992
REMARK  2 active torsions:
REMARK  status: ('A' for Active; 'I' for Inactive)
REMARK    1  A    between atoms: C_2  and  N_20
REMARK    2  A    between atoms: C_12  and  C_17
REMARK                            x       y       z     vdW  Elec       q    Type
REMARK                         _______ _______ _______ _____ _____    ______ ____
ROOT
ATOM      1  N   UNL     1      33.533 -24.699 -13.581  0.00  0.00    -0.357 N 
ATOM      2  C   UNL     1      36.276 -22.571 -15.888  0.00  0.00    -0.057 C 
ATOM      3  C   UNL     1      34.844 -22.819 -16.425  0.00  0.00    +0.006 C 
ATOM      4  C   UNL     1      36.846 -23.824 -15.180  0.00  0.00    -0.015 C 
ATOM      5  C   UNL     1      34.003 -23.509 -15.404  0.00  0.00    -0.011 A 
ATOM      6  C   UNL     1      35.990 -24.242 -13.969  0.00  0.00    +0.041 C 
ATOM      7  C   UNL     1      34.548 -24.160 -14.317  0.00  0.00    +0.029 A 
ATOM      8  C   UNL     1      32.591 -23.668 -15.331  0.00  0.00    +0.013 A 
ATOM      9  C   UNL     1      32.323 -24.416 -14.178  0.00  0.00    +0.056 A 
ATOM     10  C   UNL     1      31.509 -23.252 -16.132  0.00  0.00    +0.006 C 
ATOM     11  C   UNL     1      31.024 -24.763 -13.790  0.00  0.00    +0.017 C 
ATOM     12  C   UNL     1      30.205 -23.593 -15.754  0.00  0.00    +0.053 C 
ATOM     13  C   UNL     1      29.969 -24.336 -14.600  0.00  0.00    +0.006 C 
ATOM     14  H   UNL     1      33.647 -25.213 -12.749  0.00  0.00    +0.166 HD
ENDROOT
BRANCH  12  17
ATOM     15  O   UNL     1      28.967 -21.981 -16.943  0.00  0.00    -0.270 OA
ATOM     16  N   UNL     1      28.157 -24.126 -16.961  0.00  0.00    -0.325 N 
ATOM     17  C   UNL     1      29.086 -23.163 -16.578  0.00  0.00    +0.243 C 
ATOM     18  H   UNL     1      27.386 -23.872 -17.518  0.00  0.00    +0.145 HD
ATOM     19  H   UNL     1      28.271 -25.061 -16.675  0.00  0.00    +0.145 HD
ENDBRANCH  12  17
BRANCH   2  20
ATOM     20  N   UNL     1      37.162 -22.168 -16.979  0.00  0.00    +0.384 N 
ATOM     21  C   UNL     1      36.393 -21.767 -18.147  0.00  0.00    -0.106 C 
ATOM     22  H   UNL     1      37.764 -22.953 -17.228  0.00  0.00    -0.085 HD
ATOM     23  H   UNL     1      37.724 -21.376 -16.669  0.00  0.00    -0.085 HD
ENDBRANCH   2  20
TORSDOF 2
ENDMDL
MODEL 3
REMARK VINA RESULT:      -8.8      2.201      2.395
REMARK  Name = 77992
REMARK  2 active torsions:
REMARK  status: ('A' for Active; 'I' for Inactive)
REMARK    1  A    between atoms: C_2  and  N_20
REMARK    2  A    between atoms: C_12  and  C_17
REMARK                            x       y       z     vdW  Elec       q    Type
REMARK                         _______ _______ _______ _____ _____    ______ ____
ROOT
ATOM      1  N   UNL     1      34.536 -15.705 -24.243  0.00  0.00    -0.357 N 
ATOM      2  C   UNL     1      34.297 -18.903 -21.580  0.00  0.00    -0.057 C 
ATOM      3  C   UNL     1      33.933 -17.475 -21.105  0.00  0.00    +0.006 C 
ATOM      4  C   UNL     1      35.547 -18.901 -22.494  0.00  0.00    -0.015 C 
ATOM      5  C   UNL     1      33.991 -16.504 -22.236  0.00  0.00    -0.011 A 
ATOM      6  C   UNL     1      35.332 -18.057 -23.765  0.00  0.00    +0.041 C 
ATOM      7  C   UNL     1      34.646 -16.786 -23.417  0.00  0.00    +0.029 A 
ATOM      8  C   UNL     1      33.465 -15.186 -22.346  0.00  0.00    +0.013 A 
ATOM      9  C   UNL     1      33.819 -14.709 -23.613  0.00  0.00    +0.056 A 
ATOM     10  C   UNL     1      32.723 -14.347 -21.490  0.00  0.00    +0.006 C 
ATOM     11  C   UNL     1      33.462 -13.434 -24.065  0.00  0.00    +0.017 C 
ATOM     12  C   UNL     1      32.360 -13.069 -21.931  0.00  0.00    +0.053 C 
ATOM     13  C   UNL     1      32.724 -12.622 -23.199  0.00  0.00    +0.006 C 
ATOM     14  H   UNL     1      34.911 -15.644 -25.151  0.00  0.00    +0.166 HD
ENDROOT
BRANCH  12  17
ATOM     15  O   UNL     1      31.869 -12.093 -19.845  0.00  0.00    -0.270 OA
ATOM     16  N   UNL     1      30.544 -11.476 -21.612  0.00  0.00    -0.325 N 
ATOM     17  C   UNL     1      31.592 -12.200 -21.052  0.00  0.00    +0.243 C 
ATOM     18  H   UNL     1      30.003 -10.878 -21.049  0.00  0.00    +0.145 HD
ATOM     19  H   UNL     1      30.345 -11.561 -22.573  0.00  0.00    +0.145 HD
ENDBRANCH  12  17
BRANCH   2  20
ATOM     20  N   UNL     1      34.522 -19.777 -20.430  0.00  0.00    +0.384 N 
ATOM     21  C   UNL     1      33.345 -20.590 -20.164  0.00  0.00    -0.106 C 
ATOM     22  H   UNL     1      34.727 -19.206 -19.611  0.00  0.00    -0.085 HD
ATOM     23  H   UNL     1      35.307 -20.395 -20.637  0.00  0.00    -0.085 HD
ENDBRANCH   2  20
TORSDOF 2
ENDMDL
MODEL 4
REMARK VINA RESULT:      -8.8      3.271      6.589
REMARK  Name = 77992
REMARK  2 active torsions:
REMARK  status: ('A' for Active; 'I' for Inactive)
REMARK    1  A    between atoms: C_2  and  N_20
REMARK    2  A    between atoms: C_12  and  C_17
REMARK                            x       y       z     vdW  Elec       q    Type
REMARK                         _______ _______ _______ _____ _____    ______ ____
ROOT
ATOM      1  N   UNL     1      35.162 -16.040 -23.697  0.00  0.00    -0.357 N 
ATOM      2  C   UNL     1      32.649 -13.358 -21.731  0.00  0.00    -0.057 C 
ATOM      3  C   UNL     1      32.538 -14.875 -21.439  0.00  0.00    +0.006 C 
ATOM      4  C   UNL     1      32.855 -13.080 -23.240  0.00  0.00    -0.015 C 
ATOM      5  C   UNL     1      33.590 -15.638 -22.171  0.00  0.00    -0.011 A 
ATOM      6  C   UNL     1      34.148 -13.725 -23.775  0.00  0.00    +0.041 C 
ATOM      7  C   UNL     1      34.286 -15.102 -23.234  0.00  0.00    +0.029 A 
ATOM      8  C   UNL     1      34.058 -16.970 -21.985  0.00  0.00    +0.013 A 
ATOM      9  C   UNL     1      35.044 -17.195 -22.953  0.00  0.00    +0.056 A 
ATOM     10  C   UNL     1      33.740 -18.011 -21.089  0.00  0.00    +0.006 C 
ATOM     11  C   UNL     1      35.727 -18.412 -23.064  0.00  0.00    +0.017 C 
ATOM     12  C   UNL     1      34.416 -19.232 -21.190  0.00  0.00    +0.053 C 
ATOM     13  C   UNL     1      35.395 -19.426 -22.163  0.00  0.00    +0.006 C 
ATOM     14  H   UNL     1      35.785 -15.913 -24.449  0.00  0.00    +0.166 HD
ENDROOT
BRANCH  12  17
ATOM     15  O   UNL     1      34.981 -21.010 -19.754  0.00  0.00    -0.270 OA
ATOM     16  N   UNL     1      32.752 -20.515 -19.958  0.00  0.00    -0.325 N 
ATOM     17  C   UNL     1      34.093 -20.308 -20.266  0.00  0.00    +0.243 C 
ATOM     18  H   UNL     1      32.495 -21.234 -19.336  0.00  0.00    +0.145 HD
ATOM     19  H   UNL     1      32.060 -19.942 -20.361  0.00  0.00    +0.145 HD
ENDBRANCH  12  17
BRANCH   2  20
ATOM     20  N   UNL     1      31.455 -12.663 -21.254  0.00  0.00    +0.384 N 
ATOM     21  C   UNL     1      31.330 -11.359 -21.888  0.00  0.00    -0.106 C 
ATOM     22  H   UNL     1      31.519 -12.540 -20.244  0.00  0.00    -0.085 HD
ATOM     23  H   UNL     1      30.634 -13.221 -21.490  0.00  0.00    -0.085 HD
ENDBRANCH   2  20
TORSDOF 2
ENDMDL
MODEL 5
REMARK VINA RESULT:      -8.7     10.754     12.585
REMARK  Name = 77992
REMARK  2 active torsions:
REMARK  status: ('A' for Active; 'I' for Inactive)
REMARK    1  A    between atoms: C_2  and  N_20
REMARK    2  A    between atoms: C_12  and  C_17
REMARK                            x       y       z     vdW  Elec       q    Type
REMARK                         _______ _______ _______ _____ _____    ______ ____
ROOT
ATOM      1  N   UNL     1      32.896 -24.910 -13.611  0.00  0.00    -0.357 N 
ATOM      2  C   UNL     1      29.968 -23.638 -16.292  0.00  0.00    -0.057 C 
ATOM      3  C   UNL     1      31.381 -23.003 -16.333  0.00  0.00    +0.006 C 
ATOM      4  C   UNL     1      29.480 -23.851 -14.838  0.00  0.00    -0.015 C 
ATOM      5  C   UNL     1      32.295 -23.670 -15.361  0.00  0.00    -0.011 A 
ATOM      6  C   UNL     1      30.408 -24.795 -14.050  0.00  0.00    +0.041 C 
ATOM      7  C   UNL     1      31.827 -24.456 -14.329  0.00  0.00    +0.029 A 
ATOM      8  C   UNL     1      33.714 -23.636 -15.260  0.00  0.00    +0.013 A 
ATOM      9  C   UNL     1      34.064 -24.422 -14.156  0.00  0.00    +0.056 A 
ATOM     10  C   UNL     1      34.740 -23.011 -15.998  0.00  0.00    +0.006 C 
ATOM     11  C   UNL     1      35.392 -24.614 -13.759  0.00  0.00    +0.017 C 
ATOM     12  C   UNL     1      36.072 -23.195 -15.610  0.00  0.00    +0.053 C 
ATOM     13  C   UNL     1      36.390 -23.986 -14.508  0.00  0.00    +0.006 C 
ATOM     14  H   UNL     1      32.841 -25.496 -12.822  0.00  0.00    +0.166 HD
ENDROOT
BRANCH  12  17
ATOM     15  O   UNL     1      38.328 -22.685 -16.050  0.00  0.00    -0.270 OA
ATOM     16  N   UNL     1      36.771 -21.801 -17.482  0.00  0.00    -0.325 N 
ATOM     17  C   UNL     1      37.134 -22.554 -16.369  0.00  0.00    +0.243 C 
ATOM     18  H   UNL     1      37.462 -21.353 -18.020  0.00  0.00    +0.145 HD
ATOM     19  H   UNL     1      35.822 -21.717 -17.731  0.00  0.00    +0.145 HD
ENDBRANCH  12  17
BRANCH   2  20
ATOM     20  N   UNL     1      29.016 -22.801 -17.020  0.00  0.00    +0.384 N 
ATOM     21  C   UNL     1      27.876 -22.468 -16.181  0.00  0.00    -0.106 C 
ATOM     22  H   UNL     1      28.690 -23.304 -17.845  0.00  0.00    -0.085 HD
ATOM     23  H   UNL     1      29.484 -21.937 -17.296  0.00  0.00    -0.085 HD
ENDBRANCH   2  20
TORSDOF 2
ENDMDL
MODEL 6
REMARK VINA RESULT:      -8.6      4.913      7.528
REMARK  Name = 77992
REMARK  2 active torsions:
REMARK  status: ('A' for Active; 'I' for Inactive)
REMARK    1  A    between atoms: C_2  and  N_20
REMARK    2  A    between atoms: C_12  and  C_17
REMARK                            x       y       z     vdW  Elec       q    Type
REMARK                         _______ _______ _______ _____ _____    ______ ____
ROOT
ATOM      1  N   UNL     1      32.848 -21.792 -19.094  0.00  0.00    -0.357 N 
ATOM      2  C   UNL     1      35.833 -22.837 -16.378  0.00  0.00    -0.057 C 
ATOM      3  C   UNL     1      36.214 -22.192 -17.733  0.00  0.00    +0.006 C 
ATOM      4  C   UNL     1      34.698 -23.879 -16.541  0.00  0.00    -0.015 C 
ATOM      5  C   UNL     1      34.996 -21.808 -18.505  0.00  0.00    -0.011 A 
ATOM      6  C   UNL     1      33.411 -23.246 -17.103  0.00  0.00    +0.041 C 
ATOM      7  C   UNL     1      33.748 -22.316 -18.211  0.00  0.00    +0.029 A 
ATOM      8  C   UNL     1      34.851 -20.943 -19.625  0.00  0.00    +0.013 A 
ATOM      9  C   UNL     1      33.495 -20.949 -19.973  0.00  0.00    +0.056 A 
ATOM     10  C   UNL     1      35.739 -20.153 -20.383  0.00  0.00    +0.006 C 
ATOM     11  C   UNL     1      32.988 -20.201 -21.041  0.00  0.00    +0.017 C 
ATOM     12  C   UNL     1      35.244 -19.400 -21.453  0.00  0.00    +0.053 C 
ATOM     13  C   UNL     1      33.888 -19.425 -21.775  0.00  0.00    +0.006 C 
ATOM     14  H   UNL     1      31.883 -21.986 -19.103  0.00  0.00    +0.166 HD
ENDROOT
BRANCH  12  17
ATOM     15  O   UNL     1      37.373 -18.545 -21.981  0.00  0.00    -0.270 OA
ATOM     16  N   UNL     1      35.627 -17.854 -23.297  0.00  0.00    -0.325 N 
ATOM     17  C   UNL     1      36.157 -18.582 -22.236  0.00  0.00    +0.243 C 
ATOM     18  H   UNL     1      36.214 -17.290 -23.849  0.00  0.00    +0.145 HD
ATOM     19  H   UNL     1      34.663 -17.904 -23.496  0.00  0.00    +0.145 HD
ENDBRANCH  12  17
BRANCH   2  20
ATOM     20  N   UNL     1      37.004 -23.467 -15.771  0.00  0.00    +0.384 N 
ATOM     21  C   UNL     1      36.614 -24.621 -14.976  0.00  0.00    -0.106 C 
ATOM     22  H   UNL     1      37.474 -22.790 -15.170  0.00  0.00    -0.085 HD
ATOM     23  H   UNL     1      37.631 -23.777 -16.513  0.00  0.00    -0.085 HD
ENDBRANCH   2  20
TORSDOF 2
ENDMDL
MODEL 7
REMARK VINA RESULT:      -8.6      9.629     13.714
REMARK  Name = 77992
REMARK  2 active torsions:
REMARK  status: ('A' for Active; 'I' for Inactive)
REMARK    1  A    between atoms: C_2  and  N_20
REMARK    2  A    between atoms: C_12  and  C_17
REMARK                            x       y       z     vdW  Elec       q    Type
REMARK                         _______ _______ _______ _____ _____    ______ ____
ROOT
ATOM      1  N   UNL     1      34.261 -24.594 -12.930  0.00  0.00    -0.357 N 
ATOM      2  C   UNL     1      32.796 -23.473 -16.668  0.00  0.00    -0.057 C 
ATOM      3  C   UNL     1      34.322 -23.468 -16.404  0.00  0.00    +0.006 C 
ATOM      4  C   UNL     1      32.005 -22.916 -15.459  0.00  0.00    -0.015 C 
ATOM      5  C   UNL     1      34.631 -23.995 -15.043  0.00  0.00    -0.011 A 
ATOM      6  C   UNL     1      32.233 -23.754 -14.186  0.00  0.00    +0.041 C 
ATOM      7  C   UNL     1      33.673 -24.094 -14.056  0.00  0.00    +0.029 A 
ATOM      8  C   UNL     1      35.861 -24.447 -14.489  0.00  0.00    +0.013 A 
ATOM      9  C   UNL     1      35.601 -24.818 -13.165  0.00  0.00    +0.056 A 
ATOM     10  C   UNL     1      37.176 -24.577 -14.981  0.00  0.00    +0.006 C 
ATOM     11  C   UNL     1      36.593 -25.315 -12.312  0.00  0.00    +0.017 C 
ATOM     12  C   UNL     1      38.177 -25.072 -14.138  0.00  0.00    +0.053 C 
ATOM     13  C   UNL     1      37.887 -25.436 -12.824  0.00  0.00    +0.006 C 
ATOM     14  H   UNL     1      33.798 -24.768 -12.078  0.00  0.00    +0.166 HD
ENDROOT
BRANCH  12  17
ATOM     15  O   UNL     1      40.045 -24.342 -15.370  0.00  0.00    -0.270 OA
ATOM     16  N   UNL     1      40.253 -26.341 -14.267  0.00  0.00    -0.325 N 
ATOM     17  C   UNL     1      39.534 -25.210 -14.642  0.00  0.00    +0.243 C 
ATOM     18  H   UNL     1      41.175 -26.468 -14.589  0.00  0.00    +0.145 HD
ATOM     19  H   UNL     1      39.840 -27.014 -13.679  0.00  0.00    +0.145 HD
ENDBRANCH  12  17
BRANCH   2  20
ATOM     20  N   UNL     1      32.488 -22.694 -17.866  0.00  0.00    +0.384 N 
ATOM     21  C   UNL     1      33.690 -22.459 -18.651  0.00  0.00    -0.106 C 
ATOM     22  H   UNL     1      32.087 -21.798 -17.590  0.00  0.00    -0.085 HD
ATOM     23  H   UNL     1      31.823 -23.218 -18.435  0.00  0.00    -0.085 HD
ENDBRANCH   2  20
TORSDOF 2
ENDMDL
MODEL 8
REMARK VINA RESULT:      -8.5      9.223     12.326
REMARK  Name = 77992
REMARK  2 active torsions:
REMARK  status: ('A' for Active; 'I' for Inactive)
REMARK    1  A    between atoms: C_2  and  N_20
REMARK    2  A    between atoms: C_12  and  C_17
REMARK                            x       y       z     vdW  Elec       q    Type
REMARK                         _______ _______ _______ _____ _____    ______ ____
ROOT
ATOM      1  N   UNL     1      33.629 -23.934 -13.255  0.00  0.00    -0.357 N 
ATOM      2  C   UNL     1      37.769 -24.397 -13.113  0.00  0.00    -0.057 C 
ATOM      3  C   UNL     1      37.040 -24.397 -14.479  0.00  0.00    +0.006 C 
ATOM      4  C   UNL     1      36.982 -25.195 -12.044  0.00  0.00    -0.015 C 
ATOM      5  C   UNL     1      35.584 -24.119 -14.307  0.00  0.00    -0.011 A 
ATOM      6  C   UNL     1      35.583 -24.599 -11.794  0.00  0.00    +0.041 C 
ATOM      7  C   UNL     1      34.950 -24.238 -13.088  0.00  0.00    +0.029 A 
ATOM      8  C   UNL     1      34.602 -23.734 -15.262  0.00  0.00    +0.013 A 
ATOM      9  C   UNL     1      33.387 -23.623 -14.576  0.00  0.00    +0.056 A 
ATOM     10  C   UNL     1      34.623 -23.470 -16.646  0.00  0.00    +0.006 C 
ATOM     11  C   UNL     1      32.194 -23.257 -15.211  0.00  0.00    +0.017 C 
ATOM     12  C   UNL     1      33.437 -23.103 -17.292  0.00  0.00    +0.053 C 
ATOM     13  C   UNL     1      32.242 -22.998 -16.582  0.00  0.00    +0.006 C 
ATOM     14  H   UNL     1      32.952 -23.936 -12.540  0.00  0.00    +0.166 HD
ENDROOT
BRANCH  12  17
ATOM     15  O   UNL     1      34.056 -23.569 -19.515  0.00  0.00    -0.270 OA
ATOM     16  N   UNL     1      32.758 -21.711 -19.173  0.00  0.00    -0.325 N 
ATOM     17  C   UNL     1      33.455 -22.827 -18.720  0.00  0.00    +0.243 C 
ATOM     18  H   UNL     1      32.748 -21.493 -20.133  0.00  0.00    +0.145 HD
ATOM     19  H   UNL     1      32.275 -21.139 -18.533  0.00  0.00    +0.145 HD
ENDBRANCH  12  17
BRANCH   2  20
ATOM     20  N   UNL     1      39.114 -24.952 -13.258  0.00  0.00    +0.384 N 
ATOM     21  C   UNL     1      39.334 -25.422 -14.617  0.00  0.00    -0.106 C 
ATOM     22  H   UNL     1      39.227 -25.733 -12.611  0.00  0.00    -0.085 HD
ATOM     23  H   UNL     1      39.795 -24.221 -13.051  0.00  0.00    -0.085 HD
ENDBRANCH   2  20
TORSDOF 2
ENDMDL
MODEL 9
REMARK VINA RESULT:      -8.5      2.262      6.173
REMARK  Name = 77992
REMARK  2 active torsions:
REMARK  status: ('A' for Active; 'I' for Inactive)
REMARK    1  A    between atoms: C_2  and  N_20
REMARK    2  A    between atoms: C_12  and  C_17
REMARK                            x       y       z     vdW  Elec       q    Type
REMARK                         _______ _______ _______ _____ _____    ______ ____
ROOT
ATOM      1  N   UNL     1      33.895 -16.811 -25.821  0.00  0.00    -0.357 N 
ATOM      2  C   UNL     1      33.869 -12.947 -24.257  0.00  0.00    -0.057 C 
ATOM      3  C   UNL     1      33.908 -14.166 -23.302  0.00  0.00    +0.006 C 
ATOM      4  C   UNL     1      32.903 -13.182 -25.443  0.00  0.00    -0.015 C 
ATOM      5  C   UNL     1      34.012 -15.442 -24.068  0.00  0.00    -0.011 A 
ATOM      6  C   UNL     1      33.321 -14.395 -26.297  0.00  0.00    +0.041 C 
ATOM      7  C   UNL     1      33.721 -15.520 -25.414  0.00  0.00    +0.029 A 
ATOM      8  C   UNL     1      34.370 -16.750 -23.634  0.00  0.00    +0.013 A 
ATOM      9  C   UNL     1      34.290 -17.587 -24.752  0.00  0.00    +0.056 A 
ATOM     10  C   UNL     1      34.753 -17.308 -22.398  0.00  0.00    +0.006 C 
ATOM     11  C   UNL     1      34.578 -18.955 -24.691  0.00  0.00    +0.017 C 
ATOM     12  C   UNL     1      35.044 -18.675 -22.324  0.00  0.00    +0.053 C 
ATOM     13  C   UNL     1      34.958 -19.483 -23.455  0.00  0.00    +0.006 C 
ATOM     14  H   UNL     1      33.758 -17.139 -26.739  0.00  0.00    +0.166 HD
ENDROOT
BRANCH  12  17
ATOM     15  O   UNL     1      36.499 -18.918 -20.489  0.00  0.00    -0.270 OA
ATOM     16  N   UNL     1      34.589 -20.187 -20.469  0.00  0.00    -0.325 N 
ATOM     17  C   UNL     1      35.442 -19.254 -21.051  0.00  0.00    +0.243 C 
ATOM     18  H   UNL     1      34.826 -20.600 -19.607  0.00  0.00    +0.145 HD
ATOM     19  H   UNL     1      33.749 -20.433 -20.919  0.00  0.00    +0.145 HD
ENDBRANCH  12  17
BRANCH   2  20
ATOM     20  N   UNL     1      33.477 -11.744 -23.525  0.00  0.00    +0.384 N 
ATOM     21  C   UNL     1      34.041 -10.556 -24.147  0.00  0.00    -0.106 C 
ATOM     22  H   UNL     1      33.814 -11.811 -22.564  0.00  0.00    -0.085 HD
ATOM     23  H   UNL     1      32.460 -11.669 -23.538  0.00  0.00    -0.085 HD
ENDBRANCH   2  20
TORSDOF 2
ENDMDL
