MODEL 1
REMARK VINA RESULT:     -11.7      0.000      0.000
REMARK  Name = 31553
REMARK  9 active torsions:
REMARK  status: ('A' for Active; 'I' for Inactive)
REMARK    1  A    between atoms: C_3  and  C_28
REMARK    2  A    between atoms: C_4  and  C_38
REMARK    3  A    between atoms: C_5  and  C_13
REMARK    4  A    between atoms: C_14  and  O_22
REMARK    5  A    between atoms: C_18  and  O_24
REMARK    6  A    between atoms: C_20  and  O_26
REMARK    7  A    between atoms: C_31  and  O_34
REMARK    8  A    between atoms: C_33  and  O_36
REMARK    9  A    between atoms: C_38  and  O_39
REMARK                            x       y       z     vdW  Elec       q    Type
REMARK                         _______ _______ _______ _____ _____    ______ ____
ROOT
ATOM      1  O   UNL     1      33.920 -14.284 -23.046  0.00  0.00    -0.468 OA
ATOM      2  O   UNL     1      33.733 -15.374 -25.703  0.00  0.00    -0.469 OA
ATOM      3  C   UNL     1      33.949 -13.458 -24.224  0.00  0.00    +0.230 C 
ATOM      4  C   UNL     1      33.130 -14.118 -25.346  0.00  0.00    +0.239 C 
ATOM      5  C   UNL     1      34.682 -17.796 -22.464  0.00  0.00    +0.023 C 
ATOM      6  C   UNL     1      34.134 -15.608 -23.323  0.00  0.00    +0.172 C 
ATOM      7  C   UNL     1      34.052 -16.133 -24.612  0.00  0.00    +0.172 C 
ATOM      8  C   UNL     1      34.433 -16.441 -22.245  0.00  0.00    +0.039 C 
ATOM      9  C   UNL     1      34.628 -18.317 -23.757  0.00  0.00    +0.003 C 
ATOM     10  C   UNL     1      34.315 -17.486 -24.832  0.00  0.00    +0.040 C 
ENDROOT
BRANCH   5  13
ATOM     11  O   UNL     1      33.889 -19.572 -21.095  0.00  0.00    -0.471 OA
ATOM     12  O   UNL     1      37.670 -20.692 -19.957  0.00  0.00    -0.288 OA
ATOM     13  C   UNL     1      35.016 -18.704 -21.295  0.00  0.00    +0.222 C 
ATOM     14  C   UNL     1      36.295 -19.503 -21.545  0.00  0.00    +0.217 C 
ATOM     15  C   UNL     1      36.547 -20.401 -20.354  0.00  0.00    +0.209 C 
ATOM     16  C   UNL     1      35.342 -20.952 -19.703  0.00  0.00    +0.105 C 
ATOM     17  C   UNL     1      34.083 -20.517 -20.123  0.00  0.00    +0.148 C 
ATOM     18  C   UNL     1      35.458 -21.917 -18.699  0.00  0.00    +0.142 C 
ATOM     19  C   UNL     1      32.935 -21.077 -19.560  0.00  0.00    +0.074 C 
ATOM     20  C   UNL     1      33.047 -22.043 -18.561  0.00  0.00    +0.140 C 
ATOM     21  C   UNL     1      34.306 -22.459 -18.127  0.00  0.00    +0.073 C 
BRANCH  14  22
ATOM     22  O   UNL     1      37.400 -18.627 -21.680  0.00  0.00    -0.374 OA
ATOM     23  H   UNL     1      37.910 -18.868 -22.468  0.00  0.00    +0.211 HD
ENDBRANCH  14  22
BRANCH  18  24
ATOM     24  O   UNL     1      36.661 -22.373 -18.252  0.00  0.00    -0.505 OA
ATOM     25  H   UNL     1      37.194 -22.910 -18.805  0.00  0.00    +0.292 HD
ENDBRANCH  18  24
BRANCH  20  26
ATOM     26  O   UNL     1      31.927 -22.581 -18.006  0.00  0.00    -0.505 OA
ATOM     27  H   UNL     1      31.088 -22.416 -18.389  0.00  0.00    +0.292 HD
ENDBRANCH  20  26
ENDBRANCH   5  13
BRANCH   3  28
ATOM     28  C   UNL     1      33.437 -12.095 -23.816  0.00  0.00    +0.024 C 
ATOM     29  C   UNL     1      32.392 -11.989 -22.898  0.00  0.00    +0.039 C 
ATOM     30  C   UNL     1      34.009 -10.944 -24.357  0.00  0.00    +0.003 C 
ATOM     31  C   UNL     1      31.920 -10.732 -22.521  0.00  0.00    +0.172 C 
ATOM     32  C   UNL     1      33.537  -9.687 -23.980  0.00  0.00    +0.040 C 
ATOM     33  C   UNL     1      32.492  -9.580 -23.063  0.00  0.00    +0.168 C 
BRANCH  31  34
ATOM     34  O   UNL     1      30.899 -10.641 -21.622  0.00  0.00    -0.468 OA
ATOM     35  C   UNL     1      31.131 -11.184 -20.324  0.00  0.00    +0.253 C 
ENDBRANCH  31  34
BRANCH  33  36
ATOM     36  O   UNL     1      32.040  -8.347 -22.702  0.00  0.00    -0.503 OA
ATOM     37  H   UNL     1      32.503  -7.849 -22.058  0.00  0.00    +0.292 HD
ENDBRANCH  33  36
ENDBRANCH   3  28
BRANCH   4  38
ATOM     38  C   UNL     1      33.088 -13.283 -26.622  0.00  0.00    +0.185 C 
BRANCH  38  39
ATOM     39  O   UNL     1      33.892 -13.917 -27.602  0.00  0.00    -0.378 OA
ATOM     40  H   UNL     1      33.321 -14.359 -28.250  0.00  0.00    +0.211 HD
ENDBRANCH  38  39
ENDBRANCH   4  38
TORSDOF 9
ENDMDL
MODEL 2
REMARK VINA RESULT:     -11.5      0.583      1.493
REMARK  Name = 31553
REMARK  9 active torsions:
REMARK  status: ('A' for Active; 'I' for Inactive)
REMARK    1  A    between atoms: C_3  and  C_28
REMARK    2  A    between atoms: C_4  and  C_38
REMARK    3  A    between atoms: C_5  and  C_13
REMARK    4  A    between atoms: C_14  and  O_22
REMARK    5  A    between atoms: C_18  and  O_24
REMARK    6  A    between atoms: C_20  and  O_26
REMARK    7  A    between atoms: C_31  and  O_34
REMARK    8  A    between atoms: C_33  and  O_36
REMARK    9  A    between atoms: C_38  and  O_39
REMARK                            x       y       z     vdW  Elec       q    Type
REMARK                         _______ _______ _______ _____ _____    ______ ____
ROOT
ATOM      1  O   UNL     1      33.825 -14.277 -22.884  0.00  0.00    -0.468 OA
ATOM      2  O   UNL     1      33.758 -15.292 -25.575  0.00  0.00    -0.469 OA
ATOM      3  C   UNL     1      33.856 -13.415 -24.036  0.00  0.00    +0.230 C 
ATOM      4  C   UNL     1      33.097 -14.071 -25.200  0.00  0.00    +0.239 C 
ATOM      5  C   UNL     1      34.702 -17.773 -22.379  0.00  0.00    +0.023 C 
ATOM      6  C   UNL     1      34.096 -15.582 -23.192  0.00  0.00    +0.172 C 
ATOM      7  C   UNL     1      34.074 -16.071 -24.497  0.00  0.00    +0.172 C 
ATOM      8  C   UNL     1      34.396 -16.436 -22.129  0.00  0.00    +0.039 C 
ATOM      9  C   UNL     1      34.707 -18.257 -23.688  0.00  0.00    +0.003 C 
ATOM     10  C   UNL     1      34.394 -17.406 -24.748  0.00  0.00    +0.040 C 
ENDROOT
BRANCH   5  13
ATOM     11  O   UNL     1      33.904 -19.565 -21.035  0.00  0.00    -0.471 OA
ATOM     12  O   UNL     1      37.682 -20.733 -19.938  0.00  0.00    -0.288 OA
ATOM     13  C   UNL     1      35.036 -18.702 -21.227  0.00  0.00    +0.222 C 
ATOM     14  C   UNL     1      36.308 -19.507 -21.498  0.00  0.00    +0.217 C 
ATOM     15  C   UNL     1      36.560 -20.427 -20.323  0.00  0.00    +0.209 C 
ATOM     16  C   UNL     1      35.354 -20.979 -19.674  0.00  0.00    +0.105 C 
ATOM     17  C   UNL     1      34.097 -20.527 -20.079  0.00  0.00    +0.148 C 
ATOM     18  C   UNL     1      35.469 -21.961 -18.687  0.00  0.00    +0.142 C 
ATOM     19  C   UNL     1      32.947 -21.087 -19.519  0.00  0.00    +0.074 C 
ATOM     20  C   UNL     1      33.058 -22.070 -18.536  0.00  0.00    +0.140 C 
ATOM     21  C   UNL     1      34.316 -22.503 -18.117  0.00  0.00    +0.073 C 
BRANCH  14  22
ATOM     22  O   UNL     1      37.419 -18.638 -21.626  0.00  0.00    -0.374 OA
ATOM     23  H   UNL     1      38.206 -19.062 -21.250  0.00  0.00    +0.211 HD
ENDBRANCH  14  22
BRANCH  18  24
ATOM     24  O   UNL     1      36.671 -22.434 -18.255  0.00  0.00    -0.505 OA
ATOM     25  H   UNL     1      37.395 -22.485 -18.847  0.00  0.00    +0.292 HD
ENDBRANCH  18  24
BRANCH  20  26
ATOM     26  O   UNL     1      31.936 -22.609 -17.983  0.00  0.00    -0.505 OA
ATOM     27  H   UNL     1      31.377 -22.079 -17.450  0.00  0.00    +0.292 HD
ENDBRANCH  20  26
ENDBRANCH   5  13
BRANCH   3  28
ATOM     28  C   UNL     1      33.280 -12.084 -23.604  0.00  0.00    +0.024 C 
ATOM     29  C   UNL     1      33.815 -10.898 -24.105  0.00  0.00    +0.039 C 
ATOM     30  C   UNL     1      32.215 -12.044 -22.704  0.00  0.00    +0.003 C 
ATOM     31  C   UNL     1      33.284  -9.671 -23.707  0.00  0.00    +0.172 C 
ATOM     32  C   UNL     1      31.685 -10.818 -22.306  0.00  0.00    +0.040 C 
ATOM     33  C   UNL     1      32.219  -9.631 -22.807  0.00  0.00    +0.168 C 
BRANCH  31  34
ATOM     34  O   UNL     1      33.814  -8.518 -24.205  0.00  0.00    -0.468 OA
ATOM     35  C   UNL     1      34.767  -7.839 -23.389  0.00  0.00    +0.253 C 
ENDBRANCH  31  34
BRANCH  33  36
ATOM     36  O   UNL     1      31.692  -8.439 -22.411  0.00  0.00    -0.503 OA
ATOM     37  H   UNL     1      32.163  -7.644 -22.567  0.00  0.00    +0.292 HD
ENDBRANCH  33  36
ENDBRANCH   3  28
BRANCH   4  38
ATOM     38  C   UNL     1      33.060 -13.200 -26.453  0.00  0.00    +0.185 C 
BRANCH  38  39
ATOM     39  O   UNL     1      33.746 -13.877 -27.492  0.00  0.00    -0.378 OA
ATOM     40  H   UNL     1      34.613 -14.169 -27.169  0.00  0.00    +0.211 HD
ENDBRANCH  38  39
ENDBRANCH   4  38
TORSDOF 9
ENDMDL
MODEL 3
REMARK VINA RESULT:     -11.4      2.390     10.413
REMARK  Name = 31553
REMARK  9 active torsions:
REMARK  status: ('A' for Active; 'I' for Inactive)
REMARK    1  A    between atoms: C_3  and  C_28
REMARK    2  A    between atoms: C_4  and  C_38
REMARK    3  A    between atoms: C_5  and  C_13
REMARK    4  A    between atoms: C_14  and  O_22
REMARK    5  A    between atoms: C_18  and  O_24
REMARK    6  A    between atoms: C_20  and  O_26
REMARK    7  A    between atoms: C_31  and  O_34
REMARK    8  A    between atoms: C_33  and  O_36
REMARK    9  A    between atoms: C_38  and  O_39
REMARK                            x       y       z     vdW  Elec       q    Type
REMARK                         _______ _______ _______ _____ _____    ______ ____
ROOT
ATOM      1  O   UNL     1      33.081 -21.695 -18.614  0.00  0.00    -0.468 OA
ATOM      2  O   UNL     1      35.876 -22.243 -18.205  0.00  0.00    -0.469 OA
ATOM      3  C   UNL     1      33.544 -22.826 -17.854  0.00  0.00    +0.230 C 
ATOM      4  C   UNL     1      34.889 -22.494 -17.189  0.00  0.00    +0.239 C 
ATOM      5  C   UNL     1      34.625 -19.646 -21.197  0.00  0.00    +0.023 C 
ATOM      6  C   UNL     1      34.068 -21.130 -19.376  0.00  0.00    +0.172 C 
ATOM      7  C   UNL     1      35.422 -21.404 -19.183  0.00  0.00    +0.172 C 
ATOM      8  C   UNL     1      33.669 -20.239 -20.373  0.00  0.00    +0.039 C 
ATOM      9  C   UNL     1      35.978 -19.941 -21.023  0.00  0.00    +0.003 C 
ATOM     10  C   UNL     1      36.377 -20.821 -20.017  0.00  0.00    +0.040 C 
ENDROOT
BRANCH   5  13
ATOM     11  O   UNL     1      34.206 -17.364 -21.719  0.00  0.00    -0.471 OA
ATOM     12  O   UNL     1      34.712 -17.951 -25.749  0.00  0.00    -0.288 OA
ATOM     13  C   UNL     1      34.194 -18.683 -22.287  0.00  0.00    +0.222 C 
ATOM     14  C   UNL     1      35.105 -18.768 -23.512  0.00  0.00    +0.217 C 
ATOM     15  C   UNL     1      34.632 -17.764 -24.540  0.00  0.00    +0.209 C 
ATOM     16  C   UNL     1      34.091 -16.502 -23.998  0.00  0.00    +0.105 C 
ATOM     17  C   UNL     1      33.924 -16.371 -22.618  0.00  0.00    +0.148 C 
ATOM     18  C   UNL     1      33.775 -15.444 -24.853  0.00  0.00    +0.142 C 
ATOM     19  C   UNL     1      33.473 -15.160 -22.088  0.00  0.00    +0.074 C 
ATOM     20  C   UNL     1      33.161 -14.100 -22.938  0.00  0.00    +0.140 C 
ATOM     21  C   UNL     1      33.307 -14.242 -24.319  0.00  0.00    +0.073 C 
BRANCH  14  22
ATOM     22  O   UNL     1      35.031 -20.060 -24.088  0.00  0.00    -0.374 OA
ATOM     23  H   UNL     1      34.307 -20.086 -24.733  0.00  0.00    +0.211 HD
ENDBRANCH  14  22
BRANCH  18  24
ATOM     24  O   UNL     1      33.916 -15.521 -26.206  0.00  0.00    -0.505 OA
ATOM     25  H   UNL     1      34.763 -15.661 -26.581  0.00  0.00    +0.292 HD
ENDBRANCH  18  24
BRANCH  20  26
ATOM     26  O   UNL     1      32.712 -12.923 -22.421  0.00  0.00    -0.505 OA
ATOM     27  H   UNL     1      32.899 -12.117 -22.861  0.00  0.00    +0.292 HD
ENDBRANCH  20  26
ENDBRANCH   5  13
BRANCH   3  28
ATOM     28  C   UNL     1      32.446 -23.172 -16.872  0.00  0.00    +0.024 C 
ATOM     29  C   UNL     1      31.147 -22.715 -17.090  0.00  0.00    +0.039 C 
ATOM     30  C   UNL     1      32.734 -23.948 -15.749  0.00  0.00    +0.003 C 
ATOM     31  C   UNL     1      30.135 -23.035 -16.184  0.00  0.00    +0.172 C 
ATOM     32  C   UNL     1      31.723 -24.267 -14.844  0.00  0.00    +0.040 C 
ATOM     33  C   UNL     1      30.423 -23.810 -15.061  0.00  0.00    +0.168 C 
BRANCH  31  34
ATOM     34  O   UNL     1      28.868 -22.584 -16.409  0.00  0.00    -0.468 OA
ATOM     35  C   UNL     1      28.017 -23.412 -17.198  0.00  0.00    +0.253 C 
ENDBRANCH  31  34
BRANCH  33  36
ATOM     36  O   UNL     1      29.443 -24.129 -14.171  0.00  0.00    -0.503 OA
ATOM     37  H   UNL     1      28.627 -24.476 -14.476  0.00  0.00    +0.292 HD
ENDBRANCH  33  36
ENDBRANCH   3  28
BRANCH   4  38
ATOM     38  C   UNL     1      35.431 -23.638 -16.337  0.00  0.00    +0.185 C 
BRANCH  38  39
ATOM     39  O   UNL     1      36.832 -23.477 -16.205  0.00  0.00    -0.378 OA
ATOM     40  H   UNL     1      37.036 -22.540 -16.060  0.00  0.00    +0.211 HD
ENDBRANCH  38  39
ENDBRANCH   4  38
TORSDOF 9
ENDMDL
MODEL 4
REMARK VINA RESULT:     -11.3      2.450     10.667
REMARK  Name = 31553
REMARK  9 active torsions:
REMARK  status: ('A' for Active; 'I' for Inactive)
REMARK    1  A    between atoms: C_3  and  C_28
REMARK    2  A    between atoms: C_4  and  C_38
REMARK    3  A    between atoms: C_5  and  C_13
REMARK    4  A    between atoms: C_14  and  O_22
REMARK    5  A    between atoms: C_18  and  O_24
REMARK    6  A    between atoms: C_20  and  O_26
REMARK    7  A    between atoms: C_31  and  O_34
REMARK    8  A    between atoms: C_33  and  O_36
REMARK    9  A    between atoms: C_38  and  O_39
REMARK                            x       y       z     vdW  Elec       q    Type
REMARK                         _______ _______ _______ _____ _____    ______ ____
ROOT
ATOM      1  O   UNL     1      33.635 -21.685 -18.472  0.00  0.00    -0.468 OA
ATOM      2  O   UNL     1      36.471 -22.053 -18.153  0.00  0.00    -0.469 OA
ATOM      3  C   UNL     1      34.192 -22.774 -17.715  0.00  0.00    +0.230 C 
ATOM      4  C   UNL     1      35.536 -22.350 -17.101  0.00  0.00    +0.239 C 
ATOM      5  C   UNL     1      34.961 -19.582 -21.132  0.00  0.00    +0.023 C 
ATOM      6  C   UNL     1      34.559 -21.071 -19.274  0.00  0.00    +0.172 C 
ATOM      7  C   UNL     1      35.932 -21.258 -19.125  0.00  0.00    +0.172 C 
ATOM      8  C   UNL     1      34.071 -20.220 -20.268  0.00  0.00    +0.039 C 
ATOM      9  C   UNL     1      36.334 -19.790 -21.001  0.00  0.00    +0.003 C 
ATOM     10  C   UNL     1      36.821 -20.629 -19.999  0.00  0.00    +0.040 C 
ENDROOT
BRANCH   5  13
ATOM     11  O   UNL     1      34.549 -17.317 -21.729  0.00  0.00    -0.471 OA
ATOM     12  O   UNL     1      34.569 -18.132 -25.751  0.00  0.00    -0.288 OA
ATOM     13  C   UNL     1      34.434 -18.663 -22.218  0.00  0.00    +0.222 C 
ATOM     14  C   UNL     1      35.195 -18.843 -23.531  0.00  0.00    +0.217 C 
ATOM     15  C   UNL     1      34.634 -17.879 -24.554  0.00  0.00    +0.209 C 
ATOM     16  C   UNL     1      34.195 -16.572 -24.026  0.00  0.00    +0.105 C 
ATOM     17  C   UNL     1      34.193 -16.363 -22.645  0.00  0.00    +0.148 C 
ATOM     18  C   UNL     1      33.813 -15.549 -24.897  0.00  0.00    +0.142 C 
ATOM     19  C   UNL     1      33.841 -15.111 -22.136  0.00  0.00    +0.074 C 
ATOM     20  C   UNL     1      33.463 -14.087 -23.003  0.00  0.00    +0.140 C 
ATOM     21  C   UNL     1      33.444 -14.306 -24.381  0.00  0.00    +0.073 C 
BRANCH  14  22
ATOM     22  O   UNL     1      35.017 -20.161 -24.022  0.00  0.00    -0.374 OA
ATOM     23  H   UNL     1      35.183 -20.175 -24.977  0.00  0.00    +0.211 HD
ENDBRANCH  14  22
BRANCH  18  24
ATOM     24  O   UNL     1      33.794 -15.703 -26.250  0.00  0.00    -0.505 OA
ATOM     25  H   UNL     1      33.397 -15.048 -26.790  0.00  0.00    +0.292 HD
ENDBRANCH  18  24
BRANCH  20  26
ATOM     26  O   UNL     1      33.110 -12.870 -22.505  0.00  0.00    -0.505 OA
ATOM     27  H   UNL     1      32.895 -12.169 -23.089  0.00  0.00    +0.292 HD
ENDBRANCH  20  26
ENDBRANCH   5  13
BRANCH   3  28
ATOM     28  C   UNL     1      33.152 -23.173 -16.691  0.00  0.00    +0.024 C 
ATOM     29  C   UNL     1      33.547 -23.554 -15.409  0.00  0.00    +0.039 C 
ATOM     30  C   UNL     1      31.799 -23.160 -17.030  0.00  0.00    +0.003 C 
ATOM     31  C   UNL     1      32.588 -23.923 -14.465  0.00  0.00    +0.172 C 
ATOM     32  C   UNL     1      30.841 -23.529 -16.087  0.00  0.00    +0.040 C 
ATOM     33  C   UNL     1      31.235 -23.910 -14.804  0.00  0.00    +0.168 C 
BRANCH  31  34
ATOM     34  O   UNL     1      32.986 -24.292 -13.215  0.00  0.00    -0.468 OA
ATOM     35  C   UNL     1      34.388 -24.285 -12.954  0.00  0.00    +0.253 C 
ENDBRANCH  31  34
BRANCH  33  36
ATOM     36  O   UNL     1      30.290 -24.267 -13.891  0.00  0.00    -0.503 OA
ATOM     37  H   UNL     1      29.899 -23.616 -13.342  0.00  0.00    +0.292 HD
ENDBRANCH  33  36
ENDBRANCH   3  28
BRANCH   4  38
ATOM     38  C   UNL     1      36.177 -23.446 -16.254  0.00  0.00    +0.185 C 
BRANCH  38  39
ATOM     39  O   UNL     1      37.559 -23.166 -16.126  0.00  0.00    -0.378 OA
ATOM     40  H   UNL     1      38.052 -23.656 -16.803  0.00  0.00    +0.211 HD
ENDBRANCH  38  39
ENDBRANCH   4  38
TORSDOF 9
ENDMDL
MODEL 5
REMARK VINA RESULT:     -11.1      1.712     10.083
REMARK  Name = 31553
REMARK  9 active torsions:
REMARK  status: ('A' for Active; 'I' for Inactive)
REMARK    1  A    between atoms: C_3  and  C_28
REMARK    2  A    between atoms: C_4  and  C_38
REMARK    3  A    between atoms: C_5  and  C_13
REMARK    4  A    between atoms: C_14  and  O_22
REMARK    5  A    between atoms: C_18  and  O_24
REMARK    6  A    between atoms: C_20  and  O_26
REMARK    7  A    between atoms: C_31  and  O_34
REMARK    8  A    between atoms: C_33  and  O_36
REMARK    9  A    between atoms: C_38  and  O_39
REMARK                            x       y       z     vdW  Elec       q    Type
REMARK                         _______ _______ _______ _____ _____    ______ ____
ROOT
ATOM      1  O   UNL     1      34.541 -16.693 -22.103  0.00  0.00    -0.468 OA
ATOM      2  O   UNL     1      34.209 -17.240 -24.909  0.00  0.00    -0.469 OA
ATOM      3  C   UNL     1      34.384 -18.027 -22.617  0.00  0.00    +0.230 C 
ATOM      4  C   UNL     1      34.956 -18.110 -24.041  0.00  0.00    +0.239 C 
ATOM      5  C   UNL     1      33.618 -13.416 -23.394  0.00  0.00    +0.023 C 
ATOM      6  C   UNL     1      34.185 -15.731 -23.010  0.00  0.00    +0.172 C 
ATOM      7  C   UNL     1      34.015 -15.999 -24.368  0.00  0.00    +0.172 C 
ATOM      8  C   UNL     1      34.002 -14.436 -22.524  0.00  0.00    +0.039 C 
ATOM      9  C   UNL     1      33.420 -13.689 -24.747  0.00  0.00    +0.003 C 
ATOM     10  C   UNL     1      33.617 -14.981 -25.236  0.00  0.00    +0.040 C 
ENDROOT
BRANCH   5  13
ATOM     11  O   UNL     1      33.850 -11.102 -23.890  0.00  0.00    -0.471 OA
ATOM     12  O   UNL     1      31.028  -9.988 -21.127  0.00  0.00    -0.288 OA
ATOM     13  C   UNL     1      33.411 -12.009 -22.866  0.00  0.00    +0.222 C 
ATOM     14  C   UNL     1      31.951 -11.754 -22.489  0.00  0.00    +0.217 C 
ATOM     15  C   UNL     1      31.817 -10.328 -22.000  0.00  0.00    +0.209 C 
ATOM     16  C   UNL     1      32.682  -9.339 -22.674  0.00  0.00    +0.105 C 
ATOM     17  C   UNL     1      33.636  -9.782 -23.591  0.00  0.00    +0.148 C 
ATOM     18  C   UNL     1      32.528  -7.974 -22.417  0.00  0.00    +0.142 C 
ATOM     19  C   UNL     1      34.416  -8.853 -24.282  0.00  0.00    +0.074 C 
ATOM     20  C   UNL     1      34.262  -7.490 -24.032  0.00  0.00    +0.140 C 
ATOM     21  C   UNL     1      33.323  -7.051 -23.098  0.00  0.00    +0.073 C 
BRANCH  14  22
ATOM     22  O   UNL     1      31.561 -12.620 -21.438  0.00  0.00    -0.374 OA
ATOM     23  H   UNL     1      31.084 -13.381 -21.805  0.00  0.00    +0.211 HD
ENDBRANCH  14  22
BRANCH  18  24
ATOM     24  O   UNL     1      31.614  -7.490 -21.531  0.00  0.00    -0.505 OA
ATOM     25  H   UNL     1      31.900  -7.003 -20.783  0.00  0.00    +0.292 HD
ENDBRANCH  18  24
BRANCH  20  26
ATOM     26  O   UNL     1      35.030  -6.585 -24.699  0.00  0.00    -0.505 OA
ATOM     27  H   UNL     1      34.754  -5.692 -24.761  0.00  0.00    +0.292 HD
ENDBRANCH  20  26
ENDBRANCH   5  13
BRANCH   3  28
ATOM     28  C   UNL     1      35.059 -18.958 -21.633  0.00  0.00    +0.024 C 
ATOM     29  C   UNL     1      34.326 -19.973 -21.020  0.00  0.00    +0.039 C 
ATOM     30  C   UNL     1      36.414 -18.799 -21.339  0.00  0.00    +0.003 C 
ATOM     31  C   UNL     1      34.948 -20.831 -20.112  0.00  0.00    +0.172 C 
ATOM     32  C   UNL     1      37.035 -19.656 -20.432  0.00  0.00    +0.040 C 
ATOM     33  C   UNL     1      36.303 -20.672 -19.818  0.00  0.00    +0.168 C 
BRANCH  31  34
ATOM     34  O   UNL     1      34.222 -21.821 -19.520  0.00  0.00    -0.468 OA
ATOM     35  C   UNL     1      32.886 -21.502 -19.136  0.00  0.00    +0.253 C 
ENDBRANCH  31  34
BRANCH  33  36
ATOM     36  O   UNL     1      36.921 -21.504 -18.935  0.00  0.00    -0.503 OA
ATOM     37  H   UNL     1      37.846 -21.440 -18.799  0.00  0.00    +0.292 HD
ENDBRANCH  33  36
ENDBRANCH   3  28
BRANCH   4  38
ATOM     38  C   UNL     1      34.854 -19.508 -24.644  0.00  0.00    +0.185 C 
BRANCH  38  39
ATOM     39  O   UNL     1      33.677 -19.574 -25.430  0.00  0.00    -0.378 OA
ATOM     40  H   UNL     1      33.643 -20.428 -25.889  0.00  0.00    +0.211 HD
ENDBRANCH  38  39
ENDBRANCH   4  38
TORSDOF 9
ENDMDL
MODEL 6
REMARK VINA RESULT:     -10.6      3.210      7.161
REMARK  Name = 31553
REMARK  9 active torsions:
REMARK  status: ('A' for Active; 'I' for Inactive)
REMARK    1  A    between atoms: C_3  and  C_28
REMARK    2  A    between atoms: C_4  and  C_38
REMARK    3  A    between atoms: C_5  and  C_13
REMARK    4  A    between atoms: C_14  and  O_22
REMARK    5  A    between atoms: C_18  and  O_24
REMARK    6  A    between atoms: C_20  and  O_26
REMARK    7  A    between atoms: C_31  and  O_34
REMARK    8  A    between atoms: C_33  and  O_36
REMARK    9  A    between atoms: C_38  and  O_39
REMARK                            x       y       z     vdW  Elec       q    Type
REMARK                         _______ _______ _______ _____ _____    ______ ____
ROOT
ATOM      1  O   UNL     1      32.863  -8.612 -24.351  0.00  0.00    -0.468 OA
ATOM      2  O   UNL     1      31.424  -8.501 -21.862  0.00  0.00    -0.469 OA
ATOM      3  C   UNL     1      31.969  -7.533 -24.023  0.00  0.00    +0.230 C 
ATOM      4  C   UNL     1      31.943  -7.321 -22.501  0.00  0.00    +0.239 C 
ATOM      5  C   UNL     1      33.132 -12.050 -23.185  0.00  0.00    +0.023 C 
ATOM      6  C   UNL     1      32.698  -9.701 -23.540  0.00  0.00    +0.172 C 
ATOM      7  C   UNL     1      31.992  -9.649 -22.339  0.00  0.00    +0.172 C 
ATOM      8  C   UNL     1      33.282 -10.898 -23.957  0.00  0.00    +0.039 C 
ATOM      9  C   UNL     1      32.402 -12.005 -21.997  0.00  0.00    +0.003 C 
ATOM     10  C   UNL     1      31.830 -10.805 -21.573  0.00  0.00    +0.040 C 
ENDROOT
BRANCH   5  13
ATOM     11  O   UNL     1      33.806 -14.224 -22.499  0.00  0.00    -0.471 OA
ATOM     12  O   UNL     1      33.670 -15.725 -26.316  0.00  0.00    -0.288 OA
ATOM     13  C   UNL     1      33.758 -13.354 -23.640  0.00  0.00    +0.222 C 
ATOM     14  C   UNL     1      32.975 -13.989 -24.790  0.00  0.00    +0.217 C 
ATOM     15  C   UNL     1      33.641 -15.294 -25.169  0.00  0.00    +0.209 C 
ATOM     16  C   UNL     1      34.234 -16.056 -24.053  0.00  0.00    +0.105 C 
ATOM     17  C   UNL     1      34.267 -15.483 -22.780  0.00  0.00    +0.148 C 
ATOM     18  C   UNL     1      34.730 -17.345 -24.261  0.00  0.00    +0.142 C 
ATOM     19  C   UNL     1      34.767 -16.218 -21.703  0.00  0.00    +0.074 C 
ATOM     20  C   UNL     1      35.260 -17.507 -21.907  0.00  0.00    +0.140 C 
ATOM     21  C   UNL     1      35.246 -18.068 -23.184  0.00  0.00    +0.073 C 
BRANCH  14  22
ATOM     22  O   UNL     1      32.993 -13.138 -25.922  0.00  0.00    -0.374 OA
ATOM     23  H   UNL     1      33.905 -12.866 -26.108  0.00  0.00    +0.211 HD
ENDBRANCH  14  22
BRANCH  18  24
ATOM     24  O   UNL     1      34.724 -17.949 -25.483  0.00  0.00    -0.505 OA
ATOM     25  H   UNL     1      35.364 -18.602 -25.685  0.00  0.00    +0.292 HD
ENDBRANCH  18  24
BRANCH  20  26
ATOM     26  O   UNL     1      35.756 -18.219 -20.859  0.00  0.00    -0.505 OA
ATOM     27  H   UNL     1      36.456 -17.868 -20.344  0.00  0.00    +0.292 HD
ENDBRANCH  20  26
ENDBRANCH   5  13
BRANCH   3  28
ATOM     28  C   UNL     1      32.439  -6.323 -24.800  0.00  0.00    +0.024 C 
ATOM     29  C   UNL     1      31.583  -5.236 -24.980  0.00  0.00    +0.039 C 
ATOM     30  C   UNL     1      33.726  -6.294 -25.336  0.00  0.00    +0.003 C 
ATOM     31  C   UNL     1      32.016  -4.120 -25.697  0.00  0.00    +0.172 C 
ATOM     32  C   UNL     1      34.158  -5.179 -26.052  0.00  0.00    +0.040 C 
ATOM     33  C   UNL     1      33.304  -4.092 -26.233  0.00  0.00    +0.168 C 
BRANCH  31  34
ATOM     34  O   UNL     1      31.172  -3.063 -25.865  0.00  0.00    -0.468 OA
ATOM     35  C   UNL     1      30.772  -2.361 -24.690  0.00  0.00    +0.253 C 
ENDBRANCH  31  34
BRANCH  33  36
ATOM     36  O   UNL     1      33.738  -3.007 -26.934  0.00  0.00    -0.503 OA
ATOM     37  H   UNL     1      34.629  -2.729 -26.861  0.00  0.00    +0.292 HD
ENDBRANCH  33  36
ENDBRANCH   3  28
BRANCH   4  38
ATOM     38  C   UNL     1      31.037  -6.169 -22.075  0.00  0.00    +0.185 C 
BRANCH  38  39
ATOM     39  O   UNL     1      31.821  -5.210 -21.388  0.00  0.00    -0.378 OA
ATOM     40  H   UNL     1      32.296  -4.661 -22.031  0.00  0.00    +0.211 HD
ENDBRANCH  38  39
ENDBRANCH   4  38
TORSDOF 9
ENDMDL
MODEL 7
REMARK VINA RESULT:     -10.5      1.614      3.312
REMARK  Name = 31553
REMARK  9 active torsions:
REMARK  status: ('A' for Active; 'I' for Inactive)
REMARK    1  A    between atoms: C_3  and  C_28
REMARK    2  A    between atoms: C_4  and  C_38
REMARK    3  A    between atoms: C_5  and  C_13
REMARK    4  A    between atoms: C_14  and  O_22
REMARK    5  A    between atoms: C_18  and  O_24
REMARK    6  A    between atoms: C_20  and  O_26
REMARK    7  A    between atoms: C_31  and  O_34
REMARK    8  A    between atoms: C_33  and  O_36
REMARK    9  A    between atoms: C_38  and  O_39
REMARK                            x       y       z     vdW  Elec       q    Type
REMARK                         _______ _______ _______ _____ _____    ______ ____
ROOT
ATOM      1  O   UNL     1      33.784 -16.249 -21.819  0.00  0.00    -0.468 OA
ATOM      2  O   UNL     1      34.695 -16.855 -24.480  0.00  0.00    -0.469 OA
ATOM      3  C   UNL     1      34.134 -15.226 -22.767  0.00  0.00    +0.230 C 
ATOM      4  C   UNL     1      33.858 -15.720 -24.196  0.00  0.00    +0.239 C 
ATOM      5  C   UNL     1      34.699 -19.759 -21.508  0.00  0.00    +0.023 C 
ATOM      6  C   UNL     1      34.238 -17.487 -22.184  0.00  0.00    +0.172 C 
ATOM      7  C   UNL     1      34.689 -17.778 -23.471  0.00  0.00    +0.172 C 
ATOM      8  C   UNL     1      34.228 -18.482 -21.205  0.00  0.00    +0.039 C 
ATOM      9  C   UNL     1      35.176 -20.043 -22.788  0.00  0.00    +0.003 C 
ATOM     10  C   UNL     1      35.173 -19.052 -23.770  0.00  0.00    +0.040 C 
ENDROOT
BRANCH   5  13
ATOM     11  O   UNL     1      35.755 -20.532 -19.523  0.00  0.00    -0.471 OA
ATOM     12  O   UNL     1      32.482 -22.713 -18.352  0.00  0.00    -0.288 OA
ATOM     13  C   UNL     1      34.697 -20.840 -20.443  0.00  0.00    +0.222 C 
ATOM     14  C   UNL     1      33.348 -20.929 -19.729  0.00  0.00    +0.217 C 
ATOM     15  C   UNL     1      33.431 -22.005 -18.668  0.00  0.00    +0.209 C 
ATOM     16  C   UNL     1      34.736 -22.133 -17.989  0.00  0.00    +0.105 C 
ATOM     17  C   UNL     1      35.818 -21.377 -18.447  0.00  0.00    +0.148 C 
ATOM     18  C   UNL     1      34.881 -22.979 -16.887  0.00  0.00    +0.142 C 
ATOM     19  C   UNL     1      37.040 -21.441 -17.775  0.00  0.00    +0.074 C 
ATOM     20  C   UNL     1      37.186 -22.281 -16.672  0.00  0.00    +0.140 C 
ATOM     21  C   UNL     1      36.110 -23.053 -16.231  0.00  0.00    +0.073 C 
BRANCH  14  22
ATOM     22  O   UNL     1      32.332 -21.292 -20.647  0.00  0.00    -0.374 OA
ATOM     23  H   UNL     1      32.445 -22.220 -20.904  0.00  0.00    +0.211 HD
ENDBRANCH  14  22
BRANCH  18  24
ATOM     24  O   UNL     1      33.859 -23.739 -16.403  0.00  0.00    -0.505 OA
ATOM     25  H   UNL     1      33.675 -23.746 -15.484  0.00  0.00    +0.292 HD
ENDBRANCH  18  24
BRANCH  20  26
ATOM     26  O   UNL     1      38.381 -22.351 -16.023  0.00  0.00    -0.505 OA
ATOM     27  H   UNL     1      39.147 -22.634 -16.482  0.00  0.00    +0.292 HD
ENDBRANCH  20  26
ENDBRANCH   5  13
BRANCH   3  28
ATOM     28  C   UNL     1      33.350 -13.989 -22.387  0.00  0.00    +0.024 C 
ATOM     29  C   UNL     1      33.391 -12.860 -23.205  0.00  0.00    +0.039 C 
ATOM     30  C   UNL     1      32.588 -13.978 -21.219  0.00  0.00    +0.003 C 
ATOM     31  C   UNL     1      32.669 -11.719 -22.854  0.00  0.00    +0.172 C 
ATOM     32  C   UNL     1      31.866 -12.838 -20.869  0.00  0.00    +0.040 C 
ATOM     33  C   UNL     1      31.906 -11.708 -21.686  0.00  0.00    +0.168 C 
BRANCH  31  34
ATOM     34  O   UNL     1      32.715 -10.622 -23.662  0.00  0.00    -0.468 OA
ATOM     35  C   UNL     1      33.999 -10.053 -23.906  0.00  0.00    +0.253 C 
ENDBRANCH  31  34
BRANCH  33  36
ATOM     36  O   UNL     1      31.196 -10.600 -21.334  0.00  0.00    -0.503 OA
ATOM     37  H   UNL     1      30.535 -10.658 -20.672  0.00  0.00    +0.292 HD
ENDBRANCH  33  36
ENDBRANCH   3  28
BRANCH   4  38
ATOM     38  C   UNL     1      34.177 -14.675 -25.261  0.00  0.00    +0.185 C 
BRANCH  38  39
ATOM     39  O   UNL     1      33.774 -15.178 -26.522  0.00  0.00    -0.378 OA
ATOM     40  H   UNL     1      33.607 -16.131 -26.450  0.00  0.00    +0.211 HD
ENDBRANCH  38  39
ENDBRANCH   4  38
TORSDOF 9
ENDMDL
MODEL 8
REMARK VINA RESULT:     -10.2      1.775      9.547
REMARK  Name = 31553
REMARK  9 active torsions:
REMARK  status: ('A' for Active; 'I' for Inactive)
REMARK    1  A    between atoms: C_3  and  C_28
REMARK    2  A    between atoms: C_4  and  C_38
REMARK    3  A    between atoms: C_5  and  C_13
REMARK    4  A    between atoms: C_14  and  O_22
REMARK    5  A    between atoms: C_18  and  O_24
REMARK    6  A    between atoms: C_20  and  O_26
REMARK    7  A    between atoms: C_31  and  O_34
REMARK    8  A    between atoms: C_33  and  O_36
REMARK    9  A    between atoms: C_38  and  O_39
REMARK                            x       y       z     vdW  Elec       q    Type
REMARK                         _______ _______ _______ _____ _____    ______ ____
ROOT
ATOM      1  O   UNL     1      34.385 -16.290 -22.972  0.00  0.00    -0.468 OA
ATOM      2  O   UNL     1      33.920 -17.193 -25.665  0.00  0.00    -0.469 OA
ATOM      3  C   UNL     1      34.197 -17.678 -23.300  0.00  0.00    +0.230 C 
ATOM      4  C   UNL     1      34.702 -17.952 -24.725  0.00  0.00    +0.239 C 
ATOM      5  C   UNL     1      33.423 -13.198 -24.636  0.00  0.00    +0.023 C 
ATOM      6  C   UNL     1      33.993 -15.451 -23.980  0.00  0.00    +0.172 C 
ATOM      7  C   UNL     1      33.759 -15.891 -25.282  0.00  0.00    +0.172 C 
ATOM      8  C   UNL     1      33.841 -14.101 -23.659  0.00  0.00    +0.039 C 
ATOM      9  C   UNL     1      33.161 -13.642 -25.933  0.00  0.00    +0.003 C 
ATOM     10  C   UNL     1      33.327 -14.989 -26.256  0.00  0.00    +0.040 C 
ENDROOT
BRANCH   5  13
ATOM     11  O   UNL     1      32.910 -11.663 -22.894  0.00  0.00    -0.471 OA
ATOM     12  O   UNL     1      34.760  -8.530 -24.794  0.00  0.00    -0.288 OA
ATOM     13  C   UNL     1      33.249 -11.732 -24.289  0.00  0.00    +0.222 C 
ATOM     14  C   UNL     1      34.510 -10.923 -24.594  0.00  0.00    +0.217 C 
ATOM     15  C   UNL     1      34.271  -9.482 -24.197  0.00  0.00    +0.209 C 
ATOM     16  C   UNL     1      33.428  -9.281 -23.001  0.00  0.00    +0.105 C 
ATOM     17  C   UNL     1      32.810 -10.385 -22.411  0.00  0.00    +0.148 C 
ATOM     18  C   UNL     1      33.274  -8.006 -22.451  0.00  0.00    +0.142 C 
ATOM     19  C   UNL     1      32.064 -10.218 -21.243  0.00  0.00    +0.074 C 
ATOM     20  C   UNL     1      31.911  -8.948 -20.689  0.00  0.00    +0.140 C 
ATOM     21  C   UNL     1      32.511  -7.843 -21.294  0.00  0.00    +0.073 C 
BRANCH  14  22
ATOM     22  O   UNL     1      34.789 -10.958 -25.982  0.00  0.00    -0.374 OA
ATOM     23  H   UNL     1      35.029 -10.069 -26.287  0.00  0.00    +0.211 HD
ENDBRANCH  14  22
BRANCH  18  24
ATOM     24  O   UNL     1      33.853  -6.897 -22.989  0.00  0.00    -0.505 OA
ATOM     25  H   UNL     1      34.262  -6.265 -22.431  0.00  0.00    +0.292 HD
ENDBRANCH  18  24
BRANCH  20  26
ATOM     26  O   UNL     1      31.174  -8.784 -19.556  0.00  0.00    -0.505 OA
ATOM     27  H   UNL     1      30.241  -8.858 -19.589  0.00  0.00    +0.292 HD
ENDBRANCH  20  26
ENDBRANCH   5  13
BRANCH   3  28
ATOM     28  C   UNL     1      34.911 -18.481 -22.234  0.00  0.00    +0.024 C 
ATOM     29  C   UNL     1      34.200 -19.396 -21.459  0.00  0.00    +0.039 C 
ATOM     30  C   UNL     1      36.279 -18.304 -22.027  0.00  0.00    +0.003 C 
ATOM     31  C   UNL     1      34.858 -20.136 -20.476  0.00  0.00    +0.172 C 
ATOM     32  C   UNL     1      36.936 -19.043 -21.045  0.00  0.00    +0.040 C 
ATOM     33  C   UNL     1      36.226 -19.960 -20.269  0.00  0.00    +0.168 C 
BRANCH  31  34
ATOM     34  O   UNL     1      34.154 -21.030 -19.726  0.00  0.00    -0.468 OA
ATOM     35  C   UNL     1      32.745 -20.825 -19.630  0.00  0.00    +0.253 C 
ENDBRANCH  31  34
BRANCH  33  36
ATOM     36  O   UNL     1      36.880 -20.677 -19.313  0.00  0.00    -0.503 OA
ATOM     37  H   UNL     1      37.018 -20.308 -18.463  0.00  0.00    +0.292 HD
ENDBRANCH  33  36
ENDBRANCH   3  28
BRANCH   4  38
ATOM     38  C   UNL     1      34.563 -19.415 -25.136  0.00  0.00    +0.185 C 
BRANCH  38  39
ATOM     39  O   UNL     1      33.212 -19.659 -25.485  0.00  0.00    -0.378 OA
ATOM     40  H   UNL     1      33.177 -20.321 -26.193  0.00  0.00    +0.211 HD
ENDBRANCH  38  39
ENDBRANCH   4  38
TORSDOF 9
ENDMDL
MODEL 9
REMARK VINA RESULT:      -9.9      3.129      7.231
REMARK  Name = 31553
REMARK  9 active torsions:
REMARK  status: ('A' for Active; 'I' for Inactive)
REMARK    1  A    between atoms: C_3  and  C_28
REMARK    2  A    between atoms: C_4  and  C_38
REMARK    3  A    between atoms: C_5  and  C_13
REMARK    4  A    between atoms: C_14  and  O_22
REMARK    5  A    between atoms: C_18  and  O_24
REMARK    6  A    between atoms: C_20  and  O_26
REMARK    7  A    between atoms: C_31  and  O_34
REMARK    8  A    between atoms: C_33  and  O_36
REMARK    9  A    between atoms: C_38  and  O_39
REMARK                            x       y       z     vdW  Elec       q    Type
REMARK                         _______ _______ _______ _____ _____    ______ ____
ROOT
ATOM      1  O   UNL     1      32.787  -8.612 -24.326  0.00  0.00    -0.468 OA
ATOM      2  O   UNL     1      31.396  -8.509 -21.809  0.00  0.00    -0.469 OA
ATOM      3  C   UNL     1      31.891  -7.540 -23.982  0.00  0.00    +0.230 C 
ATOM      4  C   UNL     1      31.892  -7.326 -22.460  0.00  0.00    +0.239 C 
ATOM      5  C   UNL     1      33.108 -12.045 -23.160  0.00  0.00    +0.023 C 
ATOM      6  C   UNL     1      32.647  -9.702 -23.510  0.00  0.00    +0.172 C 
ATOM      7  C   UNL     1      31.965  -9.653 -22.295  0.00  0.00    +0.172 C 
ATOM      8  C   UNL     1      33.233 -10.894 -23.937  0.00  0.00    +0.039 C 
ATOM      9  C   UNL     1      32.402 -12.005 -21.958  0.00  0.00    +0.003 C 
ATOM     10  C   UNL     1      31.828 -10.809 -21.525  0.00  0.00    +0.040 C 
ENDROOT
BRANCH   5  13
ATOM     11  O   UNL     1      33.784 -14.225 -22.490  0.00  0.00    -0.471 OA
ATOM     12  O   UNL     1      33.655 -15.694 -26.320  0.00  0.00    -0.288 OA
ATOM     13  C   UNL     1      33.737 -13.345 -23.625  0.00  0.00    +0.222 C 
ATOM     14  C   UNL     1      32.956 -13.971 -24.780  0.00  0.00    +0.217 C 
ATOM     15  C   UNL     1      33.624 -15.272 -25.170  0.00  0.00    +0.209 C 
ATOM     16  C   UNL     1      34.217 -16.043 -24.059  0.00  0.00    +0.105 C 
ATOM     17  C   UNL     1      34.248 -15.481 -22.781  0.00  0.00    +0.148 C 
ATOM     18  C   UNL     1      34.715 -17.329 -24.277  0.00  0.00    +0.142 C 
ATOM     19  C   UNL     1      34.748 -16.223 -21.710  0.00  0.00    +0.074 C 
ATOM     20  C   UNL     1      35.242 -17.510 -21.924  0.00  0.00    +0.140 C 
ATOM     21  C   UNL     1      35.231 -18.061 -23.206  0.00  0.00    +0.073 C 
BRANCH  14  22
ATOM     22  O   UNL     1      32.974 -13.111 -25.906  0.00  0.00    -0.374 OA
ATOM     23  H   UNL     1      33.107 -13.634 -26.711  0.00  0.00    +0.211 HD
ENDBRANCH  14  22
BRANCH  18  24
ATOM     24  O   UNL     1      34.711 -17.923 -25.504  0.00  0.00    -0.505 OA
ATOM     25  H   UNL     1      34.675 -18.857 -25.572  0.00  0.00    +0.292 HD
ENDBRANCH  18  24
BRANCH  20  26
ATOM     26  O   UNL     1      35.738 -18.230 -20.881  0.00  0.00    -0.505 OA
ATOM     27  H   UNL     1      36.050 -19.102 -21.020  0.00  0.00    +0.292 HD
ENDBRANCH  20  26
ENDBRANCH   5  13
BRANCH   3  28
ATOM     28  C   UNL     1      32.335  -6.327 -24.770  0.00  0.00    +0.024 C 
ATOM     29  C   UNL     1      33.611  -6.290 -25.330  0.00  0.00    +0.039 C 
ATOM     30  C   UNL     1      31.468  -5.247 -24.935  0.00  0.00    +0.003 C 
ATOM     31  C   UNL     1      34.021  -5.171 -26.056  0.00  0.00    +0.172 C 
ATOM     32  C   UNL     1      31.877  -4.130 -25.661  0.00  0.00    +0.040 C 
ATOM     33  C   UNL     1      33.154  -4.091 -26.222  0.00  0.00    +0.168 C 
BRANCH  31  34
ATOM     34  O   UNL     1      35.270  -5.146 -26.600  0.00  0.00    -0.468 OA
ATOM     35  C   UNL     1      35.361  -4.906 -28.003  0.00  0.00    +0.253 C 
ENDBRANCH  31  34
BRANCH  33  36
ATOM     36  O   UNL     1      33.543  -2.994 -26.929  0.00  0.00    -0.503 OA
ATOM     37  H   UNL     1      34.310  -2.520 -26.675  0.00  0.00    +0.292 HD
ENDBRANCH  33  36
ENDBRANCH   3  28
BRANCH   4  38
ATOM     38  C   UNL     1      30.985  -6.181 -22.019  0.00  0.00    +0.185 C 
BRANCH  38  39
ATOM     39  O   UNL     1      31.668  -5.416 -21.042  0.00  0.00    -0.378 OA
ATOM     40  H   UNL     1      32.621  -5.588 -21.106  0.00  0.00    +0.211 HD
ENDBRANCH  38  39
ENDBRANCH   4  38
TORSDOF 9
ENDMDL
