MODEL 1
REMARK VINA RESULT:      -3.8      0.000      0.000
REMARK  Name = 450656
REMARK  2 active torsions:
REMARK  status: ('A' for Active; 'I' for Inactive)
REMARK    1  A    between atoms: C_2  and  C_4
REMARK    2  A    between atoms: C_2  and  O_5
REMARK                            x       y       z     vdW  Elec       q    Type
REMARK                         _______ _______ _______ _____ _____    ______ ____
ROOT
ATOM      1  O   UNL     1      40.993 -24.678 -14.275  0.00  0.00    -0.247 OA
ATOM      2  C   UNL     1      40.217 -25.423 -14.855  0.00  0.00    +0.350 C 
ENDROOT
BRANCH   2   4
ATOM      3  F   UNL     1      38.909 -25.905 -12.957  0.00  0.00    -0.222 F 
ATOM      4  C   UNL     1      38.896 -25.876 -14.319  0.00  0.00    +0.301 C 
ENDBRANCH   2   4
BRANCH   2   5
ATOM      5  O   UNL     1      40.442 -25.955 -16.082  0.00  0.00    -0.478 OA
ATOM      6  H   UNL     1      40.365 -25.419 -16.846  0.00  0.00    +0.295 HD
ENDBRANCH   2   5
TORSDOF 2
ENDMDL
MODEL 2
REMARK VINA RESULT:      -3.6     10.181     10.548
REMARK  Name = 450656
REMARK  2 active torsions:
REMARK  status: ('A' for Active; 'I' for Inactive)
REMARK    1  A    between atoms: C_2  and  C_4
REMARK    2  A    between atoms: C_2  and  O_5
REMARK                            x       y       z     vdW  Elec       q    Type
REMARK                         _______ _______ _______ _____ _____    ______ ____
ROOT
ATOM      1  O   UNL     1      42.265 -16.567 -15.675  0.00  0.00    -0.247 OA
ATOM      2  C   UNL     1      41.307 -15.811 -15.745  0.00  0.00    +0.350 C 
ENDROOT
BRANCH   2   4
ATOM      3  F   UNL     1      40.913 -14.648 -17.754  0.00  0.00    -0.222 F 
ATOM      4  C   UNL     1      41.300 -14.496 -16.457  0.00  0.00    +0.301 C 
ENDBRANCH   2   4
BRANCH   2   5
ATOM      5  O   UNL     1      40.099 -16.054 -15.179  0.00  0.00    -0.478 OA
ATOM      6  H   UNL     1      39.865 -16.927 -14.933  0.00  0.00    +0.295 HD
ENDBRANCH   2   5
TORSDOF 2
ENDMDL
MODEL 3
REMARK VINA RESULT:      -3.6     12.214     12.524
REMARK  Name = 450656
REMARK  2 active torsions:
REMARK  status: ('A' for Active; 'I' for Inactive)
REMARK    1  A    between atoms: C_2  and  C_4
REMARK    2  A    between atoms: C_2  and  O_5
REMARK                            x       y       z     vdW  Elec       q    Type
REMARK                         _______ _______ _______ _____ _____    ______ ____
ROOT
ATOM      1  O   UNL     1      27.301 -21.535 -17.254  0.00  0.00    -0.247 OA
ATOM      2  C   UNL     1      27.811 -22.613 -16.986  0.00  0.00    +0.350 C 
ENDROOT
BRANCH   2   4
ATOM      3  F   UNL     1      28.682 -21.848 -14.936  0.00  0.00    -0.222 F 
ATOM      4  C   UNL     1      28.744 -22.862 -15.844  0.00  0.00    +0.301 C 
ENDBRANCH   2   4
BRANCH   2   5
ATOM      5  O   UNL     1      27.605 -23.752 -17.692  0.00  0.00    -0.478 OA
ATOM      6  H   UNL     1      27.579 -23.725 -18.628  0.00  0.00    +0.295 HD
ENDBRANCH   2   5
TORSDOF 2
ENDMDL
MODEL 4
REMARK VINA RESULT:      -3.5     11.723     12.010
REMARK  Name = 450656
REMARK  2 active torsions:
REMARK  status: ('A' for Active; 'I' for Inactive)
REMARK    1  A    between atoms: C_2  and  C_4
REMARK    2  A    between atoms: C_2  and  O_5
REMARK                            x       y       z     vdW  Elec       q    Type
REMARK                         _______ _______ _______ _____ _____    ______ ____
ROOT
ATOM      1  O   UNL     1      27.676 -24.073 -17.600  0.00  0.00    -0.247 OA
ATOM      2  C   UNL     1      28.241 -23.298 -16.843  0.00  0.00    +0.350 C 
ENDROOT
BRANCH   2   4
ATOM      3  F   UNL     1      28.645 -24.989 -15.254  0.00  0.00    -0.222 F 
ATOM      4  C   UNL     1      28.824 -23.664 -15.515  0.00  0.00    +0.301 C 
ENDBRANCH   2   4
BRANCH   2   5
ATOM      5  O   UNL     1      28.422 -21.978 -17.097  0.00  0.00    -0.478 OA
ATOM      6  H   UNL     1      28.243 -21.345 -16.430  0.00  0.00    +0.295 HD
ENDBRANCH   2   5
TORSDOF 2
ENDMDL
MODEL 5
REMARK VINA RESULT:      -3.5      5.615      5.860
REMARK  Name = 450656
REMARK  2 active torsions:
REMARK  status: ('A' for Active; 'I' for Inactive)
REMARK    1  A    between atoms: C_2  and  C_4
REMARK    2  A    between atoms: C_2  and  O_5
REMARK                            x       y       z     vdW  Elec       q    Type
REMARK                         _______ _______ _______ _____ _____    ______ ____
ROOT
ATOM      1  O   UNL     1      35.562 -24.434  -9.892  0.00  0.00    -0.247 OA
ATOM      2  C   UNL     1      35.563 -24.332 -11.110  0.00  0.00    +0.350 C 
ENDROOT
BRANCH   2   4
ATOM      3  F   UNL     1      37.133 -22.578 -11.067  0.00  0.00    -0.222 F 
ATOM      4  C   UNL     1      36.434 -23.404 -11.894  0.00  0.00    +0.301 C 
ENDBRANCH   2   4
BRANCH   2   5
ATOM      5  O   UNL     1      34.765 -25.053 -11.937  0.00  0.00    -0.478 OA
ATOM      6  H   UNL     1      34.638 -24.776 -12.822  0.00  0.00    +0.295 HD
ENDBRANCH   2   5
TORSDOF 2
ENDMDL
MODEL 6
REMARK VINA RESULT:      -3.4     13.821     14.016
REMARK  Name = 450656
REMARK  2 active torsions:
REMARK  status: ('A' for Active; 'I' for Inactive)
REMARK    1  A    between atoms: C_2  and  C_4
REMARK    2  A    between atoms: C_2  and  O_5
REMARK                            x       y       z     vdW  Elec       q    Type
REMARK                         _______ _______ _______ _____ _____    ______ ____
ROOT
ATOM      1  O   UNL     1      34.703 -16.714 -25.801  0.00  0.00    -0.247 OA
ATOM      2  C   UNL     1      35.002 -17.031 -24.660  0.00  0.00    +0.350 C 
ENDROOT
BRANCH   2   4
ATOM      3  F   UNL     1      34.601 -19.326 -25.004  0.00  0.00    -0.222 F 
ATOM      4  C   UNL     1      34.750 -18.371 -24.045  0.00  0.00    +0.301 C 
ENDBRANCH   2   4
BRANCH   2   5
ATOM      5  O   UNL     1      35.613 -16.206 -23.773  0.00  0.00    -0.478 OA
ATOM      6  H   UNL     1      36.370 -15.719 -24.032  0.00  0.00    +0.295 HD
ENDBRANCH   2   5
TORSDOF 2
ENDMDL
MODEL 7
REMARK VINA RESULT:      -3.3      3.460      3.642
REMARK  Name = 450656
REMARK  2 active torsions:
REMARK  status: ('A' for Active; 'I' for Inactive)
REMARK    1  A    between atoms: C_2  and  C_4
REMARK    2  A    between atoms: C_2  and  O_5
REMARK                            x       y       z     vdW  Elec       q    Type
REMARK                         _______ _______ _______ _____ _____    ______ ____
ROOT
ATOM      1  O   UNL     1      35.746 -25.606 -15.459  0.00  0.00    -0.247 OA
ATOM      2  C   UNL     1      36.623 -26.456 -15.421  0.00  0.00    +0.350 C 
ENDROOT
BRANCH   2   4
ATOM      3  F   UNL     1      37.059 -27.036 -13.181  0.00  0.00    -0.222 F 
ATOM      4  C   UNL     1      37.639 -26.595 -14.332  0.00  0.00    +0.301 C 
ENDBRANCH   2   4
BRANCH   2   5
ATOM      5  O   UNL     1      36.809 -27.405 -16.372  0.00  0.00    -0.478 OA
ATOM      6  H   UNL     1      36.570 -27.231 -17.260  0.00  0.00    +0.295 HD
ENDBRANCH   2   5
TORSDOF 2
ENDMDL
MODEL 8
REMARK VINA RESULT:      -3.3      3.287      3.789
REMARK  Name = 450656
REMARK  2 active torsions:
REMARK  status: ('A' for Active; 'I' for Inactive)
REMARK    1  A    between atoms: C_2  and  C_4
REMARK    2  A    between atoms: C_2  and  O_5
REMARK                            x       y       z     vdW  Elec       q    Type
REMARK                         _______ _______ _______ _____ _____    ______ ____
ROOT
ATOM      1  O   UNL     1      36.657 -27.467 -16.364  0.00  0.00    -0.247 OA
ATOM      2  C   UNL     1      36.993 -26.814 -15.388  0.00  0.00    +0.350 C 
ENDROOT
BRANCH   2   4
ATOM      3  F   UNL     1      36.927 -24.460 -15.366  0.00  0.00    -0.222 F 
ATOM      4  C   UNL     1      36.304 -25.579 -14.901  0.00  0.00    +0.301 C 
ENDBRANCH   2   4
BRANCH   2   5
ATOM      5  O   UNL     1      38.052 -27.114 -14.595  0.00  0.00    -0.478 OA
ATOM      6  H   UNL     1      38.648 -26.440 -14.335  0.00  0.00    +0.295 HD
ENDBRANCH   2   5
TORSDOF 2
ENDMDL
MODEL 9
REMARK VINA RESULT:      -3.3      2.040      2.398
REMARK  Name = 450656
REMARK  2 active torsions:
REMARK  status: ('A' for Active; 'I' for Inactive)
REMARK    1  A    between atoms: C_2  and  C_4
REMARK    2  A    between atoms: C_2  and  O_5
REMARK                            x       y       z     vdW  Elec       q    Type
REMARK                         _______ _______ _______ _____ _____    ______ ____
ROOT
ATOM      1  O   UNL     1      39.253 -26.649 -14.685  0.00  0.00    -0.247 OA
ATOM      2  C   UNL     1      38.038 -26.520 -14.663  0.00  0.00    +0.350 C 
ENDROOT
BRANCH   2   4
ATOM      3  F   UNL     1      38.024 -26.096 -12.346  0.00  0.00    -0.222 F 
ATOM      4  C   UNL     1      37.223 -26.258 -13.436  0.00  0.00    +0.301 C 
ENDBRANCH   2   4
BRANCH   2   5
ATOM      5  O   UNL     1      37.241 -26.597 -15.757  0.00  0.00    -0.478 OA
ATOM      6  H   UNL     1      36.657 -27.322 -15.861  0.00  0.00    +0.295 HD
ENDBRANCH   2   5
TORSDOF 2
ENDMDL
