MODEL 1
REMARK VINA RESULT:     -11.7      0.000      0.000
REMARK  Name = 24941243
REMARK  5 active torsions:
REMARK  status: ('A' for Active; 'I' for Inactive)
REMARK    1  A    between atoms: N_1  and  C_14
REMARK    2  A    between atoms: N_2  and  C_22
REMARK    3  A    between atoms: C_25  and  O_28
REMARK    4  A    between atoms: C_26  and  O_30
REMARK    5  A    between atoms: C_27  and  O_32
REMARK                            x       y       z     vdW  Elec       q    Type
REMARK                         _______ _______ _______ _____ _____    ______ ____
ROOT
ATOM      1  N   UNL     1      34.585 -18.351 -22.191  0.00  0.00    -0.260 N 
ATOM      2  N   UNL     1      33.593 -13.944 -23.590  0.00  0.00    -0.247 N 
ATOM      3  N   UNL     1      34.079 -16.138 -22.916  0.00  0.00    -0.322 NA
ATOM      4  N   UNL     1      34.385 -14.284 -21.407  0.00  0.00    -0.170 NA
ATOM      5  C   UNL     1      34.512 -16.958 -21.936  0.00  0.00    +0.201 C 
ATOM      6  C   UNL     1      34.572 -18.792 -23.590  0.00  0.00    +0.120 C 
ATOM      7  C   UNL     1      34.894 -16.523 -20.683  0.00  0.00    +0.070 C 
ATOM      8  C   UNL     1      34.041 -14.833 -22.588  0.00  0.00    +0.150 C 
ATOM      9  C   UNL     1      34.808 -15.161 -20.474  0.00  0.00    +0.116 C 
ATOM     10  H   UNL     1      33.353 -14.389 -24.435  0.00  0.00    +0.165 HD
ENDROOT
BRANCH   1  14
ATOM     11  N   UNL     1      35.349 -22.560 -18.309  0.00  0.00    -0.280 N 
ATOM     12  N   UNL     1      36.155 -21.765 -19.039  0.00  0.00    -0.173 NA
ATOM     13  C   UNL     1      33.957 -21.349 -19.429  0.00  0.00    +0.032 A 
ATOM     14  C   UNL     1      34.425 -19.389 -21.234  0.00  0.00    +0.055 C 
ATOM     15  C   UNL     1      35.318 -20.993 -19.753  0.00  0.00    +0.103 A 
ATOM     16  C   UNL     1      34.014 -22.353 -18.505  0.00  0.00    +0.053 A 
ATOM     17  C   UNL     1      35.587 -19.976 -20.688  0.00  0.00    +0.036 C 
ATOM     18  C   UNL     1      32.795 -20.790 -19.947  0.00  0.00    +0.004 C 
ATOM     19  C   UNL     1      33.095 -19.778 -20.879  0.00  0.00    +0.015 C 
ATOM     20  C   UNL     1      32.991 -23.134 -17.790  0.00  0.00    +0.051 C 
ATOM     21  H   UNL     1      35.695 -23.237 -17.684  0.00  0.00    +0.189 HD
ENDBRANCH   1  14
BRANCH   2  22
ATOM     22  C   UNL     1      33.423 -12.548 -23.618  0.00  0.00    +0.064 C 
ATOM     23  C   UNL     1      32.445 -11.949 -22.825  0.00  0.00    +0.055 C 
ATOM     24  C   UNL     1      34.235 -11.762 -24.437  0.00  0.00    +0.055 C 
ATOM     25  C   UNL     1      34.068 -10.378 -24.461  0.00  0.00    +0.177 C 
ATOM     26  C   UNL     1      32.278 -10.564 -22.851  0.00  0.00    +0.177 C 
ATOM     27  C   UNL     1      33.089  -9.779 -23.668  0.00  0.00    +0.206 C 
BRANCH  25  28
ATOM     28  O   UNL     1      34.867  -9.621 -25.265  0.00  0.00    -0.468 OA
ATOM     29  C   UNL     1      35.659 -10.314 -26.227  0.00  0.00    +0.253 C 
ENDBRANCH  25  28
BRANCH  26  30
ATOM     30  O   UNL     1      31.317  -9.992 -22.071  0.00  0.00    -0.468 OA
ATOM     31  C   UNL     1      31.574  -9.927 -20.670  0.00  0.00    +0.253 C 
ENDBRANCH  26  30
BRANCH  27  32
ATOM     32  O   UNL     1      32.925  -8.425 -23.694  0.00  0.00    -0.465 OA
ATOM     33  C   UNL     1      33.728  -7.659 -22.799  0.00  0.00    +0.253 C 
ENDBRANCH  27  32
ENDBRANCH   2  22
TORSDOF 5
ENDMDL
MODEL 2
REMARK VINA RESULT:     -11.7      0.013      2.304
REMARK  Name = 24941243
REMARK  5 active torsions:
REMARK  status: ('A' for Active; 'I' for Inactive)
REMARK    1  A    between atoms: N_1  and  C_14
REMARK    2  A    between atoms: N_2  and  C_22
REMARK    3  A    between atoms: C_25  and  O_28
REMARK    4  A    between atoms: C_26  and  O_30
REMARK    5  A    between atoms: C_27  and  O_32
REMARK                            x       y       z     vdW  Elec       q    Type
REMARK                         _______ _______ _______ _____ _____    ______ ____
ROOT
ATOM      1  N   UNL     1      34.586 -18.345 -22.190  0.00  0.00    -0.260 N 
ATOM      2  N   UNL     1      33.597 -13.935 -23.583  0.00  0.00    -0.247 N 
ATOM      3  N   UNL     1      34.081 -16.130 -22.912  0.00  0.00    -0.322 NA
ATOM      4  N   UNL     1      34.391 -14.278 -21.401  0.00  0.00    -0.170 NA
ATOM      5  C   UNL     1      34.515 -16.952 -21.933  0.00  0.00    +0.201 C 
ATOM      6  C   UNL     1      34.571 -18.784 -23.589  0.00  0.00    +0.120 C 
ATOM      7  C   UNL     1      34.898 -16.518 -20.680  0.00  0.00    +0.070 C 
ATOM      8  C   UNL     1      34.045 -14.826 -22.583  0.00  0.00    +0.150 C 
ATOM      9  C   UNL     1      34.815 -15.157 -20.469  0.00  0.00    +0.116 C 
ATOM     10  H   UNL     1      33.355 -14.379 -24.428  0.00  0.00    +0.165 HD
ENDROOT
BRANCH   1  14
ATOM     11  N   UNL     1      35.351 -22.546 -18.301  0.00  0.00    -0.280 N 
ATOM     12  N   UNL     1      36.157 -21.747 -19.026  0.00  0.00    -0.173 NA
ATOM     13  C   UNL     1      33.959 -21.346 -19.432  0.00  0.00    +0.032 A 
ATOM     14  C   UNL     1      34.427 -19.383 -21.234  0.00  0.00    +0.055 C 
ATOM     15  C   UNL     1      35.320 -20.980 -19.746  0.00  0.00    +0.103 A 
ATOM     16  C   UNL     1      34.017 -22.349 -18.507  0.00  0.00    +0.053 A 
ATOM     17  C   UNL     1      35.589 -19.962 -20.679  0.00  0.00    +0.036 C 
ATOM     18  C   UNL     1      32.797 -20.796 -19.959  0.00  0.00    +0.004 C 
ATOM     19  C   UNL     1      33.097 -19.781 -20.888  0.00  0.00    +0.015 C 
ATOM     20  C   UNL     1      32.993 -23.137 -17.800  0.00  0.00    +0.051 C 
ATOM     21  H   UNL     1      35.697 -23.221 -17.673  0.00  0.00    +0.189 HD
ENDBRANCH   1  14
BRANCH   2  22
ATOM     22  C   UNL     1      33.428 -12.539 -23.609  0.00  0.00    +0.064 C 
ATOM     23  C   UNL     1      34.237 -11.754 -24.430  0.00  0.00    +0.055 C 
ATOM     24  C   UNL     1      32.449 -11.939 -22.816  0.00  0.00    +0.055 C 
ATOM     25  C   UNL     1      32.280 -10.556 -22.844  0.00  0.00    +0.177 C 
ATOM     26  C   UNL     1      34.068 -10.369 -24.458  0.00  0.00    +0.177 C 
ATOM     27  C   UNL     1      33.089  -9.770 -23.665  0.00  0.00    +0.206 C 
BRANCH  25  28
ATOM     28  O   UNL     1      31.320  -9.982 -22.065  0.00  0.00    -0.468 OA
ATOM     29  C   UNL     1      31.581  -9.908 -20.665  0.00  0.00    +0.253 C 
ENDBRANCH  25  28
BRANCH  26  30
ATOM     30  O   UNL     1      34.866  -9.614 -25.264  0.00  0.00    -0.468 OA
ATOM     31  C   UNL     1      35.677 -10.309 -26.207  0.00  0.00    +0.253 C 
ENDBRANCH  26  30
BRANCH  27  32
ATOM     32  O   UNL     1      32.924  -8.417 -23.691  0.00  0.00    -0.465 OA
ATOM     33  C   UNL     1      33.726  -7.650 -22.797  0.00  0.00    +0.253 C 
ENDBRANCH  27  32
ENDBRANCH   2  22
TORSDOF 5
ENDMDL
MODEL 3
REMARK VINA RESULT:     -11.3      5.968     11.675
REMARK  Name = 24941243
REMARK  5 active torsions:
REMARK  status: ('A' for Active; 'I' for Inactive)
REMARK    1  A    between atoms: N_1  and  C_14
REMARK    2  A    between atoms: N_2  and  C_22
REMARK    3  A    between atoms: C_25  and  O_28
REMARK    4  A    between atoms: C_26  and  O_30
REMARK    5  A    between atoms: C_27  and  O_32
REMARK                            x       y       z     vdW  Elec       q    Type
REMARK                         _______ _______ _______ _____ _____    ______ ____
ROOT
ATOM      1  N   UNL     1      36.237 -18.847 -21.860  0.00  0.00    -0.260 N 
ATOM      2  N   UNL     1      36.759 -21.513 -17.989  0.00  0.00    -0.247 N 
ATOM      3  N   UNL     1      36.521 -20.184 -19.908  0.00  0.00    -0.322 NA
ATOM      4  N   UNL     1      34.654 -21.427 -19.025  0.00  0.00    -0.170 NA
ATOM      5  C   UNL     1      35.708 -19.730 -20.885  0.00  0.00    +0.201 C 
ATOM      6  C   UNL     1      37.696 -18.779 -22.003  0.00  0.00    +0.120 C 
ATOM      7  C   UNL     1      34.376 -20.074 -20.997  0.00  0.00    +0.070 C 
ATOM      8  C   UNL     1      35.938 -21.016 -19.026  0.00  0.00    +0.150 C 
ATOM      9  C   UNL     1      33.899 -20.934 -20.029  0.00  0.00    +0.116 C 
ATOM     10  H   UNL     1      37.687 -21.186 -18.029  0.00  0.00    +0.165 HD
ENDROOT
BRANCH   1  14
ATOM     11  N   UNL     1      33.505 -15.602 -25.781  0.00  0.00    -0.280 N 
ATOM     12  N   UNL     1      34.139 -16.790 -25.787  0.00  0.00    -0.173 NA
ATOM     13  C   UNL     1      34.145 -15.826 -23.731  0.00  0.00    +0.032 A 
ATOM     14  C   UNL     1      35.519 -17.836 -22.553  0.00  0.00    +0.055 C 
ATOM     15  C   UNL     1      34.553 -16.964 -24.520  0.00  0.00    +0.103 A 
ATOM     16  C   UNL     1      33.479 -14.976 -24.568  0.00  0.00    +0.053 A 
ATOM     17  C   UNL     1      35.268 -18.022 -23.931  0.00  0.00    +0.036 C 
ATOM     18  C   UNL     1      34.375 -15.613 -22.378  0.00  0.00    +0.004 C 
ATOM     19  C   UNL     1      35.092 -16.688 -21.815  0.00  0.00    +0.015 C 
ATOM     20  C   UNL     1      32.830 -13.668 -24.380  0.00  0.00    +0.051 C 
ATOM     21  H   UNL     1      33.093 -15.215 -26.587  0.00  0.00    +0.189 HD
ENDBRANCH   1  14
BRANCH   2  22
ATOM     22  C   UNL     1      36.510 -22.382 -16.911  0.00  0.00    +0.064 C 
ATOM     23  C   UNL     1      37.560 -22.790 -16.089  0.00  0.00    +0.055 C 
ATOM     24  C   UNL     1      35.213 -22.833 -16.662  0.00  0.00    +0.055 C 
ATOM     25  C   UNL     1      34.967 -23.691 -15.592  0.00  0.00    +0.177 C 
ATOM     26  C   UNL     1      37.313 -23.650 -15.018  0.00  0.00    +0.177 C 
ATOM     27  C   UNL     1      36.017 -24.100 -14.769  0.00  0.00    +0.206 C 
BRANCH  25  28
ATOM     28  O   UNL     1      33.696 -24.125 -15.359  0.00  0.00    -0.468 OA
ATOM     29  C   UNL     1      32.770 -23.169 -14.847  0.00  0.00    +0.253 C 
ENDBRANCH  25  28
BRANCH  26  30
ATOM     30  O   UNL     1      38.349 -24.042 -14.223  0.00  0.00    -0.468 OA
ATOM     31  C   UNL     1      39.115 -25.161 -14.662  0.00  0.00    +0.253 C 
ENDBRANCH  26  30
BRANCH  27  32
ATOM     32  O   UNL     1      35.776 -24.942 -13.724  0.00  0.00    -0.465 OA
ATOM     33  C   UNL     1      35.445 -24.342 -12.473  0.00  0.00    +0.253 C 
ENDBRANCH  27  32
ENDBRANCH   2  22
TORSDOF 5
ENDMDL
MODEL 4
REMARK VINA RESULT:     -11.3      5.946     11.533
REMARK  Name = 24941243
REMARK  5 active torsions:
REMARK  status: ('A' for Active; 'I' for Inactive)
REMARK    1  A    between atoms: N_1  and  C_14
REMARK    2  A    between atoms: N_2  and  C_22
REMARK    3  A    between atoms: C_25  and  O_28
REMARK    4  A    between atoms: C_26  and  O_30
REMARK    5  A    between atoms: C_27  and  O_32
REMARK                            x       y       z     vdW  Elec       q    Type
REMARK                         _______ _______ _______ _____ _____    ______ ____
ROOT
ATOM      1  N   UNL     1      36.215 -18.824 -21.876  0.00  0.00    -0.260 N 
ATOM      2  N   UNL     1      36.718 -21.491 -18.004  0.00  0.00    -0.247 N 
ATOM      3  N   UNL     1      36.489 -20.161 -19.924  0.00  0.00    -0.322 NA
ATOM      4  N   UNL     1      34.616 -21.398 -19.045  0.00  0.00    -0.170 NA
ATOM      5  C   UNL     1      35.680 -19.705 -20.902  0.00  0.00    +0.201 C 
ATOM      6  C   UNL     1      37.674 -18.761 -22.016  0.00  0.00    +0.120 C 
ATOM      7  C   UNL     1      34.348 -20.044 -21.017  0.00  0.00    +0.070 C 
ATOM      8  C   UNL     1      35.901 -20.992 -19.043  0.00  0.00    +0.150 C 
ATOM      9  C   UNL     1      33.865 -20.903 -20.051  0.00  0.00    +0.116 C 
ATOM     10  H   UNL     1      37.647 -21.168 -18.042  0.00  0.00    +0.165 HD
ENDROOT
BRANCH   1  14
ATOM     11  N   UNL     1      33.493 -15.575 -25.801  0.00  0.00    -0.280 N 
ATOM     12  N   UNL     1      34.118 -16.768 -25.805  0.00  0.00    -0.173 NA
ATOM     13  C   UNL     1      34.139 -15.795 -23.753  0.00  0.00    +0.032 A 
ATOM     14  C   UNL     1      35.502 -17.811 -22.572  0.00  0.00    +0.055 C 
ATOM     15  C   UNL     1      34.535 -16.939 -24.539  0.00  0.00    +0.103 A 
ATOM     16  C   UNL     1      33.476 -14.944 -24.592  0.00  0.00    +0.053 A 
ATOM     17  C   UNL     1      35.245 -18.001 -23.947  0.00  0.00    +0.036 C 
ATOM     18  C   UNL     1      34.375 -15.578 -22.401  0.00  0.00    +0.004 C 
ATOM     19  C   UNL     1      35.086 -16.656 -21.837  0.00  0.00    +0.015 C 
ATOM     20  C   UNL     1      32.837 -13.630 -24.406  0.00  0.00    +0.051 C 
ATOM     21  H   UNL     1      33.081 -15.189 -26.608  0.00  0.00    +0.189 HD
ENDBRANCH   1  14
BRANCH   2  22
ATOM     22  C   UNL     1      36.464 -22.359 -16.926  0.00  0.00    +0.064 C 
ATOM     23  C   UNL     1      35.168 -22.813 -16.688  0.00  0.00    +0.055 C 
ATOM     24  C   UNL     1      37.510 -22.768 -16.098  0.00  0.00    +0.055 C 
ATOM     25  C   UNL     1      37.258 -23.631 -15.032  0.00  0.00    +0.177 C 
ATOM     26  C   UNL     1      34.916 -23.676 -15.620  0.00  0.00    +0.177 C 
ATOM     27  C   UNL     1      35.962 -24.085 -14.793  0.00  0.00    +0.206 C 
BRANCH  25  28
ATOM     28  O   UNL     1      38.289 -24.023 -14.231  0.00  0.00    -0.468 OA
ATOM     29  C   UNL     1      39.046 -25.153 -14.656  0.00  0.00    +0.253 C 
ENDBRANCH  25  28
BRANCH  26  30
ATOM     30  O   UNL     1      33.644 -24.112 -15.398  0.00  0.00    -0.468 OA
ATOM     31  C   UNL     1      32.699 -23.148 -14.941  0.00  0.00    +0.253 C 
ENDBRANCH  26  30
BRANCH  27  32
ATOM     32  O   UNL     1      35.716 -24.928 -13.750  0.00  0.00    -0.465 OA
ATOM     33  C   UNL     1      35.363 -24.330 -12.504  0.00  0.00    +0.253 C 
ENDBRANCH  27  32
ENDBRANCH   2  22
TORSDOF 5
ENDMDL
MODEL 5
REMARK VINA RESULT:     -11.1      6.039     11.606
REMARK  Name = 24941243
REMARK  5 active torsions:
REMARK  status: ('A' for Active; 'I' for Inactive)
REMARK    1  A    between atoms: N_1  and  C_14
REMARK    2  A    between atoms: N_2  and  C_22
REMARK    3  A    between atoms: C_25  and  O_28
REMARK    4  A    between atoms: C_26  and  O_30
REMARK    5  A    between atoms: C_27  and  O_32
REMARK                            x       y       z     vdW  Elec       q    Type
REMARK                         _______ _______ _______ _____ _____    ______ ____
ROOT
ATOM      1  N   UNL     1      36.186 -18.793 -21.936  0.00  0.00    -0.260 N 
ATOM      2  N   UNL     1      36.673 -21.428 -18.040  0.00  0.00    -0.247 N 
ATOM      3  N   UNL     1      36.452 -20.114 -19.971  0.00  0.00    -0.322 NA
ATOM      4  N   UNL     1      34.586 -21.376 -19.113  0.00  0.00    -0.170 NA
ATOM      5  C   UNL     1      35.651 -19.677 -20.965  0.00  0.00    +0.201 C 
ATOM      6  C   UNL     1      37.645 -18.707 -22.053  0.00  0.00    +0.120 C 
ATOM      7  C   UNL     1      34.326 -20.039 -21.098  0.00  0.00    +0.070 C 
ATOM      8  C   UNL     1      35.864 -20.949 -19.094  0.00  0.00    +0.150 C 
ATOM      9  C   UNL     1      33.843 -20.900 -20.133  0.00  0.00    +0.116 C 
ATOM     10  H   UNL     1      37.597 -21.089 -18.065  0.00  0.00    +0.165 HD
ENDROOT
BRANCH   1  14
ATOM     11  N   UNL     1      33.281 -14.080 -23.585  0.00  0.00    -0.280 N 
ATOM     12  N   UNL     1      33.838 -14.516 -22.438  0.00  0.00    -0.173 NA
ATOM     13  C   UNL     1      34.106 -15.995 -24.140  0.00  0.00    +0.032 A 
ATOM     14  C   UNL     1      35.467 -17.796 -22.648  0.00  0.00    +0.055 C 
ATOM     15  C   UNL     1      34.365 -15.713 -22.748  0.00  0.00    +0.103 A 
ATOM     16  C   UNL     1      33.412 -14.932 -24.643  0.00  0.00    +0.053 A 
ATOM     17  C   UNL     1      35.071 -16.633 -21.952  0.00  0.00    +0.036 C 
ATOM     18  C   UNL     1      34.482 -17.127 -24.854  0.00  0.00    +0.004 C 
ATOM     19  C   UNL     1      35.186 -18.029 -24.032  0.00  0.00    +0.015 C 
ATOM     20  C   UNL     1      32.862 -14.616 -25.971  0.00  0.00    +0.051 C 
ATOM     21  H   UNL     1      32.816 -13.215 -23.654  0.00  0.00    +0.189 HD
ENDBRANCH   1  14
BRANCH   2  22
ATOM     22  C   UNL     1      36.417 -22.293 -16.960  0.00  0.00    +0.064 C 
ATOM     23  C   UNL     1      37.459 -22.694 -16.126  0.00  0.00    +0.055 C 
ATOM     24  C   UNL     1      35.119 -22.749 -16.724  0.00  0.00    +0.055 C 
ATOM     25  C   UNL     1      34.866 -23.604 -15.652  0.00  0.00    +0.177 C 
ATOM     26  C   UNL     1      37.205 -23.550 -15.054  0.00  0.00    +0.177 C 
ATOM     27  C   UNL     1      35.908 -24.005 -14.817  0.00  0.00    +0.206 C 
BRANCH  25  28
ATOM     28  O   UNL     1      33.594 -24.042 -15.432  0.00  0.00    -0.468 OA
ATOM     29  C   UNL     1      32.653 -23.085 -14.953  0.00  0.00    +0.253 C 
ENDBRANCH  25  28
BRANCH  26  30
ATOM     30  O   UNL     1      38.233 -23.934 -14.246  0.00  0.00    -0.468 OA
ATOM     31  C   UNL     1      38.975 -25.085 -14.643  0.00  0.00    +0.253 C 
ENDBRANCH  26  30
BRANCH  27  32
ATOM     32  O   UNL     1      35.660 -24.843 -13.770  0.00  0.00    -0.465 OA
ATOM     33  C   UNL     1      35.315 -24.239 -12.526  0.00  0.00    +0.253 C 
ENDBRANCH  27  32
ENDBRANCH   2  22
TORSDOF 5
ENDMDL
MODEL 6
REMARK VINA RESULT:     -10.4      5.873     11.333
REMARK  Name = 24941243
REMARK  5 active torsions:
REMARK  status: ('A' for Active; 'I' for Inactive)
REMARK    1  A    between atoms: N_1  and  C_14
REMARK    2  A    between atoms: N_2  and  C_22
REMARK    3  A    between atoms: C_25  and  O_28
REMARK    4  A    between atoms: C_26  and  O_30
REMARK    5  A    between atoms: C_27  and  O_32
REMARK                            x       y       z     vdW  Elec       q    Type
REMARK                         _______ _______ _______ _____ _____    ______ ____
ROOT
ATOM      1  N   UNL     1      35.864 -18.648 -22.197  0.00  0.00    -0.260 N 
ATOM      2  N   UNL     1      36.058 -21.426 -18.375  0.00  0.00    -0.247 N 
ATOM      3  N   UNL     1      35.983 -20.043 -20.268  0.00  0.00    -0.322 NA
ATOM      4  N   UNL     1      34.011 -21.196 -19.500  0.00  0.00    -0.170 NA
ATOM      5  C   UNL     1      35.242 -19.521 -21.268  0.00  0.00    +0.201 C 
ATOM      6  C   UNL     1      37.329 -18.661 -22.273  0.00  0.00    +0.120 C 
ATOM      7  C   UNL     1      33.900 -19.785 -21.448  0.00  0.00    +0.070 C 
ATOM      8  C   UNL     1      35.314 -20.860 -19.434  0.00  0.00    +0.150 C 
ATOM      9  C   UNL     1      33.331 -20.639 -20.524  0.00  0.00    +0.116 C 
ATOM     10  H   UNL     1      37.004 -21.153 -18.365  0.00  0.00    +0.165 HD
ENDROOT
BRANCH   1  14
ATOM     11  N   UNL     1      33.386 -13.677 -23.782  0.00  0.00    -0.280 N 
ATOM     12  N   UNL     1      33.901 -14.176 -22.641  0.00  0.00    -0.173 NA
ATOM     13  C   UNL     1      34.041 -15.650 -24.363  0.00  0.00    +0.032 A 
ATOM     14  C   UNL     1      35.237 -17.583 -22.896  0.00  0.00    +0.055 C 
ATOM     15  C   UNL     1      34.322 -15.410 -22.968  0.00  0.00    +0.103 A 
ATOM     16  C   UNL     1      33.444 -14.523 -24.851  0.00  0.00    +0.053 A 
ATOM     17  C   UNL     1      34.943 -16.399 -22.184  0.00  0.00    +0.036 C 
ATOM     18  C   UNL     1      34.318 -16.800 -25.092  0.00  0.00    +0.004 C 
ATOM     19  C   UNL     1      34.939 -17.771 -24.283  0.00  0.00    +0.015 C 
ATOM     20  C   UNL     1      32.925 -14.142 -26.176  0.00  0.00    +0.051 C 
ATOM     21  H   UNL     1      32.999 -12.774 -23.839  0.00  0.00    +0.189 HD
ENDBRANCH   1  14
BRANCH   2  22
ATOM     22  C   UNL     1      35.712 -22.303 -17.330  0.00  0.00    +0.064 C 
ATOM     23  C   UNL     1      34.399 -22.754 -17.205  0.00  0.00    +0.055 C 
ATOM     24  C   UNL     1      36.684 -22.725 -16.422  0.00  0.00    +0.055 C 
ATOM     25  C   UNL     1      36.342 -23.597 -15.390  0.00  0.00    +0.177 C 
ATOM     26  C   UNL     1      34.056 -23.626 -16.171  0.00  0.00    +0.177 C 
ATOM     27  C   UNL     1      35.028 -24.048 -15.264  0.00  0.00    +0.206 C 
BRANCH  25  28
ATOM     28  O   UNL     1      37.300 -24.001 -14.509  0.00  0.00    -0.468 OA
ATOM     29  C   UNL     1      37.541 -23.160 -13.384  0.00  0.00    +0.253 C 
ENDBRANCH  25  28
BRANCH  26  30
ATOM     30  O   UNL     1      32.769 -24.059 -16.060  0.00  0.00    -0.468 OA
ATOM     31  C   UNL     1      31.826 -23.149 -15.499  0.00  0.00    +0.253 C 
ENDBRANCH  26  30
BRANCH  27  32
ATOM     32  O   UNL     1      34.693 -24.899 -14.253  0.00  0.00    -0.465 OA
ATOM     33  C   UNL     1      34.258 -24.312 -13.029  0.00  0.00    +0.253 C 
ENDBRANCH  27  32
ENDBRANCH   2  22
TORSDOF 5
ENDMDL
MODEL 7
REMARK VINA RESULT:     -10.4      5.798     11.315
REMARK  Name = 24941243
REMARK  5 active torsions:
REMARK  status: ('A' for Active; 'I' for Inactive)
REMARK    1  A    between atoms: N_1  and  C_14
REMARK    2  A    between atoms: N_2  and  C_22
REMARK    3  A    between atoms: C_25  and  O_28
REMARK    4  A    between atoms: C_26  and  O_30
REMARK    5  A    between atoms: C_27  and  O_32
REMARK                            x       y       z     vdW  Elec       q    Type
REMARK                         _______ _______ _______ _____ _____    ______ ____
ROOT
ATOM      1  N   UNL     1      35.716 -18.516 -22.362  0.00  0.00    -0.260 N 
ATOM      2  N   UNL     1      35.907 -21.338 -18.572  0.00  0.00    -0.247 N 
ATOM      3  N   UNL     1      35.834 -19.934 -20.450  0.00  0.00    -0.322 NA
ATOM      4  N   UNL     1      33.843 -21.032 -19.649  0.00  0.00    -0.170 NA
ATOM      5  C   UNL     1      35.087 -19.378 -21.428  0.00  0.00    +0.201 C 
ATOM      6  C   UNL     1      37.177 -18.574 -22.472  0.00  0.00    +0.120 C 
ATOM      7  C   UNL     1      33.733 -19.598 -21.579  0.00  0.00    +0.070 C 
ATOM      8  C   UNL     1      35.158 -20.738 -19.609  0.00  0.00    +0.150 C 
ATOM      9  C   UNL     1      33.159 -20.443 -20.651  0.00  0.00    +0.116 C 
ATOM     10  H   UNL     1      36.861 -21.095 -18.582  0.00  0.00    +0.165 HD
ENDROOT
BRANCH   1  14
ATOM     11  N   UNL     1      33.331 -13.464 -23.833  0.00  0.00    -0.280 N 
ATOM     12  N   UNL     1      33.840 -13.997 -22.705  0.00  0.00    -0.173 NA
ATOM     13  C   UNL     1      33.944 -15.437 -24.458  0.00  0.00    +0.032 A 
ATOM     14  C   UNL     1      35.107 -17.424 -23.036  0.00  0.00    +0.055 C 
ATOM     15  C   UNL     1      34.235 -15.232 -23.059  0.00  0.00    +0.103 A 
ATOM     16  C   UNL     1      33.367 -14.289 -24.920  0.00  0.00    +0.053 A 
ATOM     17  C   UNL     1      34.839 -16.250 -22.298  0.00  0.00    +0.036 C 
ATOM     18  C   UNL     1      34.195 -16.578 -25.211  0.00  0.00    +0.004 C 
ATOM     19  C   UNL     1      34.799 -17.577 -24.425  0.00  0.00    +0.015 C 
ATOM     20  C   UNL     1      32.851 -13.870 -26.233  0.00  0.00    +0.051 C 
ATOM     21  H   UNL     1      32.961 -12.553 -23.870  0.00  0.00    +0.189 HD
ENDBRANCH   1  14
BRANCH   2  22
ATOM     22  C   UNL     1      35.557 -22.215 -17.529  0.00  0.00    +0.064 C 
ATOM     23  C   UNL     1      36.513 -22.594 -16.588  0.00  0.00    +0.055 C 
ATOM     24  C   UNL     1      34.253 -22.703 -17.435  0.00  0.00    +0.055 C 
ATOM     25  C   UNL     1      33.906 -23.570 -16.400  0.00  0.00    +0.177 C 
ATOM     26  C   UNL     1      36.165 -23.462 -15.552  0.00  0.00    +0.177 C 
ATOM     27  C   UNL     1      34.862 -23.949 -15.457  0.00  0.00    +0.206 C 
BRANCH  25  28
ATOM     28  O   UNL     1      32.629 -24.039 -16.319  0.00  0.00    -0.468 OA
ATOM     29  C   UNL     1      31.614 -23.099 -15.976  0.00  0.00    +0.253 C 
ENDBRANCH  25  28
BRANCH  26  30
ATOM     30  O   UNL     1      37.109 -23.825 -14.638  0.00  0.00    -0.468 OA
ATOM     31  C   UNL     1      37.337 -22.931 -13.552  0.00  0.00    +0.253 C 
ENDBRANCH  26  30
BRANCH  27  32
ATOM     32  O   UNL     1      34.523 -24.798 -14.446  0.00  0.00    -0.465 OA
ATOM     33  C   UNL     1      33.971 -24.214 -13.268  0.00  0.00    +0.253 C 
ENDBRANCH  27  32
ENDBRANCH   2  22
TORSDOF 5
ENDMDL
MODEL 8
REMARK VINA RESULT:      -9.7      4.089      7.365
REMARK  Name = 24941243
REMARK  5 active torsions:
REMARK  status: ('A' for Active; 'I' for Inactive)
REMARK    1  A    between atoms: N_1  and  C_14
REMARK    2  A    between atoms: N_2  and  C_22
REMARK    3  A    between atoms: C_25  and  O_28
REMARK    4  A    between atoms: C_26  and  O_30
REMARK    5  A    between atoms: C_27  and  O_32
REMARK                            x       y       z     vdW  Elec       q    Type
REMARK                         _______ _______ _______ _____ _____    ______ ____
ROOT
ATOM      1  N   UNL     1      34.429 -22.949 -17.192  0.00  0.00    -0.260 N 
ATOM      2  N   UNL     1      33.889 -19.823 -20.700  0.00  0.00    -0.247 N 
ATOM      3  N   UNL     1      34.135 -21.375 -18.958  0.00  0.00    -0.322 NA
ATOM      4  N   UNL     1      36.062 -20.380 -20.009  0.00  0.00    -0.170 NA
ATOM      5  C   UNL     1      34.975 -22.067 -18.159  0.00  0.00    +0.201 C 
ATOM      6  C   UNL     1      33.033 -23.367 -17.358  0.00  0.00    +0.120 C 
ATOM      7  C   UNL     1      36.350 -21.970 -18.225  0.00  0.00    +0.070 C 
ATOM      8  C   UNL     1      34.737 -20.563 -19.846  0.00  0.00    +0.150 C 
ATOM      9  C   UNL     1      36.842 -21.103 -19.178  0.00  0.00    +0.116 C 
ATOM     10  H   UNL     1      32.931 -19.988 -20.545  0.00  0.00    +0.165 HD
ENDROOT
BRANCH   1  14
ATOM     11  N   UNL     1      35.450 -24.513 -11.726  0.00  0.00    -0.280 N 
ATOM     12  N   UNL     1      34.355 -24.358 -12.495  0.00  0.00    -0.173 NA
ATOM     13  C   UNL     1      36.269 -23.890 -13.623  0.00  0.00    +0.032 A 
ATOM     14  C   UNL     1      35.011 -23.284 -15.941  0.00  0.00    +0.055 C 
ATOM     15  C   UNL     1      34.829 -23.969 -13.691  0.00  0.00    +0.103 A 
ATOM     16  C   UNL     1      36.631 -24.244 -12.354  0.00  0.00    +0.053 A 
ATOM     17  C   UNL     1      34.152 -23.659 -14.884  0.00  0.00    +0.036 C 
ATOM     18  C   UNL     1      37.141 -23.526 -14.642  0.00  0.00    +0.004 C 
ATOM     19  C   UNL     1      36.436 -23.223 -15.823  0.00  0.00    +0.015 C 
ATOM     20  C   UNL     1      37.926 -24.360 -11.664  0.00  0.00    +0.051 C 
ATOM     21  H   UNL     1      35.402 -24.798 -10.785  0.00  0.00    +0.189 HD
ENDBRANCH   1  14
BRANCH   2  22
ATOM     22  C   UNL     1      34.145 -18.897 -21.727  0.00  0.00    +0.064 C 
ATOM     23  C   UNL     1      34.337 -19.342 -23.035  0.00  0.00    +0.055 C 
ATOM     24  C   UNL     1      34.205 -17.533 -21.439  0.00  0.00    +0.055 C 
ATOM     25  C   UNL     1      34.455 -16.615 -22.458  0.00  0.00    +0.177 C 
ATOM     26  C   UNL     1      34.588 -18.423 -24.054  0.00  0.00    +0.177 C 
ATOM     27  C   UNL     1      34.647 -17.060 -23.766  0.00  0.00    +0.206 C 
BRANCH  25  28
ATOM     28  O   UNL     1      34.510 -15.286 -22.163  0.00  0.00    -0.468 OA
ATOM     29  C   UNL     1      34.466 -14.926 -20.784  0.00  0.00    +0.253 C 
ENDBRANCH  25  28
BRANCH  26  30
ATOM     30  O   UNL     1      34.774 -18.871 -25.328  0.00  0.00    -0.468 OA
ATOM     31  C   UNL     1      34.921 -20.278 -25.504  0.00  0.00    +0.253 C 
ENDBRANCH  26  30
BRANCH  27  32
ATOM     32  O   UNL     1      34.894 -16.162 -24.762  0.00  0.00    -0.465 OA
ATOM     33  C   UNL     1      33.768 -15.678 -25.491  0.00  0.00    +0.253 C 
ENDBRANCH  27  32
ENDBRANCH   2  22
TORSDOF 5
ENDMDL
MODEL 9
REMARK VINA RESULT:      -9.7      4.089      7.163
REMARK  Name = 24941243
REMARK  5 active torsions:
REMARK  status: ('A' for Active; 'I' for Inactive)
REMARK    1  A    between atoms: N_1  and  C_14
REMARK    2  A    between atoms: N_2  and  C_22
REMARK    3  A    between atoms: C_25  and  O_28
REMARK    4  A    between atoms: C_26  and  O_30
REMARK    5  A    between atoms: C_27  and  O_32
REMARK                            x       y       z     vdW  Elec       q    Type
REMARK                         _______ _______ _______ _____ _____    ______ ____
ROOT
ATOM      1  N   UNL     1      34.421 -22.947 -17.190  0.00  0.00    -0.260 N 
ATOM      2  N   UNL     1      33.879 -19.812 -20.689  0.00  0.00    -0.247 N 
ATOM      3  N   UNL     1      34.126 -21.369 -18.951  0.00  0.00    -0.322 NA
ATOM      4  N   UNL     1      36.053 -20.388 -20.016  0.00  0.00    -0.170 NA
ATOM      5  C   UNL     1      34.966 -22.068 -18.160  0.00  0.00    +0.201 C 
ATOM      6  C   UNL     1      33.020 -23.354 -17.345  0.00  0.00    +0.120 C 
ATOM      7  C   UNL     1      36.341 -21.982 -18.236  0.00  0.00    +0.070 C 
ATOM      8  C   UNL     1      34.728 -20.560 -19.843  0.00  0.00    +0.150 C 
ATOM      9  C   UNL     1      36.833 -21.117 -19.192  0.00  0.00    +0.116 C 
ATOM     10  H   UNL     1      32.920 -19.970 -20.527  0.00  0.00    +0.165 HD
ENDROOT
BRANCH   1  14
ATOM     11  N   UNL     1      35.471 -24.533 -11.735  0.00  0.00    -0.280 N 
ATOM     12  N   UNL     1      34.371 -24.370 -12.496  0.00  0.00    -0.173 NA
ATOM     13  C   UNL     1      36.280 -23.908 -13.636  0.00  0.00    +0.032 A 
ATOM     14  C   UNL     1      35.009 -23.289 -15.943  0.00  0.00    +0.055 C 
ATOM     15  C   UNL     1      34.840 -23.980 -13.694  0.00  0.00    +0.103 A 
ATOM     16  C   UNL     1      36.649 -24.267 -12.371  0.00  0.00    +0.053 A 
ATOM     17  C   UNL     1      34.156 -23.663 -14.882  0.00  0.00    +0.036 C 
ATOM     18  C   UNL     1      37.147 -23.544 -14.660  0.00  0.00    +0.004 C 
ATOM     19  C   UNL     1      36.435 -23.234 -15.835  0.00  0.00    +0.015 C 
ATOM     20  C   UNL     1      37.948 -24.391 -11.689  0.00  0.00    +0.051 C 
ATOM     21  H   UNL     1      35.428 -24.820 -10.795  0.00  0.00    +0.189 HD
ENDBRANCH   1  14
BRANCH   2  22
ATOM     22  C   UNL     1      34.134 -18.886 -21.717  0.00  0.00    +0.064 C 
ATOM     23  C   UNL     1      34.211 -17.525 -21.426  0.00  0.00    +0.055 C 
ATOM     24  C   UNL     1      34.314 -19.331 -23.028  0.00  0.00    +0.055 C 
ATOM     25  C   UNL     1      34.571 -18.413 -24.045  0.00  0.00    +0.177 C 
ATOM     26  C   UNL     1      34.467 -16.607 -22.445  0.00  0.00    +0.177 C 
ATOM     27  C   UNL     1      34.647 -17.051 -23.755  0.00  0.00    +0.206 C 
BRANCH  25  28
ATOM     28  O   UNL     1      34.745 -18.860 -25.321  0.00  0.00    -0.468 OA
ATOM     29  C   UNL     1      34.913 -20.265 -25.498  0.00  0.00    +0.253 C 
ENDBRANCH  25  28
BRANCH  26  30
ATOM     30  O   UNL     1      34.538 -15.279 -22.147  0.00  0.00    -0.468 OA
ATOM     31  C   UNL     1      34.506 -14.923 -20.767  0.00  0.00    +0.253 C 
ENDBRANCH  26  30
BRANCH  27  32
ATOM     32  O   UNL     1      34.896 -16.154 -24.751  0.00  0.00    -0.465 OA
ATOM     33  C   UNL     1      33.770 -15.658 -25.471  0.00  0.00    +0.253 C 
ENDBRANCH  27  32
ENDBRANCH   2  22
TORSDOF 5
ENDMDL
