MODEL 1
REMARK VINA RESULT:      -7.2      0.000      0.000
REMARK  Name = 4474777
REMARK  6 active torsions:
REMARK  status: ('A' for Active; 'I' for Inactive)
REMARK    1  A    between atoms: C_1  and  O_10
REMARK    2  A    between atoms: C_4  and  N_9
REMARK    3  A    between atoms: O_10  and  C_11
REMARK    4  A    between atoms: C_11  and  C_12
REMARK    5  A    between atoms: C_12  and  C_13
REMARK    6  A    between atoms: C_13  and  O_14
REMARK                            x       y       z     vdW  Elec       q    Type
REMARK                         _______ _______ _______ _____ _____    ______ ____
ROOT
ATOM      1  C   UNL     1      34.344 -19.073 -21.119  0.00  0.00    +0.139 C 
ATOM      2  C   UNL     1      33.149 -19.657 -20.717  0.00  0.00    +0.039 C 
ATOM      3  C   UNL     1      35.562 -19.665 -20.808  0.00  0.00    +0.039 C 
ATOM      4  C   UNL     1      34.389 -21.450 -19.678  0.00  0.00    +0.143 C 
ATOM      5  C   UNL     1      33.171 -20.850 -19.994  0.00  0.00    +0.027 C 
ATOM      6  C   UNL     1      35.586 -20.859 -20.086  0.00  0.00    +0.027 C 
ENDROOT
BRANCH   4   9
ATOM      7  O   UNL     1      33.895 -23.690 -19.443  0.00  0.00    -0.126 OA
ATOM      8  O   UNL     1      34.951 -22.676 -17.807  0.00  0.00    -0.126 OA
ATOM      9  N   UNL     1      34.413 -22.664 -18.941  0.00  0.00    +0.058 N 
ENDBRANCH   4   9
BRANCH   1  10
ATOM     10  O   UNL     1      34.322 -17.901 -21.830  0.00  0.00    -0.475 OA
BRANCH  10  11
ATOM     11  C   UNL     1      34.960 -16.779 -21.237  0.00  0.00    +0.208 C 
BRANCH  11  12
ATOM     12  C   UNL     1      34.364 -15.494 -21.791  0.00  0.00    +0.079 C 
BRANCH  12  13
ATOM     13  C   UNL     1      34.568 -15.372 -23.292  0.00  0.00    +0.141 C 
BRANCH  13  14
ATOM     14  O   UNL     1      35.705 -16.137 -23.663  0.00  0.00    -0.382 OA
ATOM     15  H   UNL     1      35.426 -16.886 -24.214  0.00  0.00    +0.210 HD
ENDBRANCH  13  14
ENDBRANCH  12  13
ENDBRANCH  11  12
ENDBRANCH  10  11
ENDBRANCH   1  10
TORSDOF 6
ENDMDL
MODEL 2
REMARK VINA RESULT:      -7.2      0.036      1.535
REMARK  Name = 4474777
REMARK  6 active torsions:
REMARK  status: ('A' for Active; 'I' for Inactive)
REMARK    1  A    between atoms: C_1  and  O_10
REMARK    2  A    between atoms: C_4  and  N_9
REMARK    3  A    between atoms: O_10  and  C_11
REMARK    4  A    between atoms: C_11  and  C_12
REMARK    5  A    between atoms: C_12  and  C_13
REMARK    6  A    between atoms: C_13  and  O_14
REMARK                            x       y       z     vdW  Elec       q    Type
REMARK                         _______ _______ _______ _____ _____    ______ ____
ROOT
ATOM      1  C   UNL     1      34.322 -19.074 -21.101  0.00  0.00    +0.139 C 
ATOM      2  C   UNL     1      35.542 -19.668 -20.798  0.00  0.00    +0.039 C 
ATOM      3  C   UNL     1      33.128 -19.661 -20.700  0.00  0.00    +0.039 C 
ATOM      4  C   UNL     1      34.375 -21.462 -19.679  0.00  0.00    +0.143 C 
ATOM      5  C   UNL     1      35.569 -20.866 -20.084  0.00  0.00    +0.027 C 
ATOM      6  C   UNL     1      33.154 -20.860 -19.986  0.00  0.00    +0.027 C 
ENDROOT
BRANCH   4   9
ATOM      7  O   UNL     1      34.939 -22.705 -17.821  0.00  0.00    -0.126 OA
ATOM      8  O   UNL     1      33.888 -23.707 -19.467  0.00  0.00    -0.126 OA
ATOM      9  N   UNL     1      34.401 -22.684 -18.954  0.00  0.00    +0.058 N 
ENDBRANCH   4   9
BRANCH   1  10
ATOM     10  O   UNL     1      34.296 -17.896 -21.801  0.00  0.00    -0.475 OA
BRANCH  10  11
ATOM     11  C   UNL     1      34.945 -16.781 -21.205  0.00  0.00    +0.208 C 
BRANCH  11  12
ATOM     12  C   UNL     1      34.399 -15.490 -21.794  0.00  0.00    +0.079 C 
BRANCH  12  13
ATOM     13  C   UNL     1      34.541 -15.449 -23.307  0.00  0.00    +0.141 C 
BRANCH  13  14
ATOM     14  O   UNL     1      35.713 -16.161 -23.677  0.00  0.00    -0.382 OA
ATOM     15  H   UNL     1      36.476 -15.562 -23.653  0.00  0.00    +0.210 HD
ENDBRANCH  13  14
ENDBRANCH  12  13
ENDBRANCH  11  12
ENDBRANCH  10  11
ENDBRANCH   1  10
TORSDOF 6
ENDMDL
MODEL 3
REMARK VINA RESULT:      -6.8      2.928      6.171
REMARK  Name = 4474777
REMARK  6 active torsions:
REMARK  status: ('A' for Active; 'I' for Inactive)
REMARK    1  A    between atoms: C_1  and  O_10
REMARK    2  A    between atoms: C_4  and  N_9
REMARK    3  A    between atoms: O_10  and  C_11
REMARK    4  A    between atoms: C_11  and  C_12
REMARK    5  A    between atoms: C_12  and  C_13
REMARK    6  A    between atoms: C_13  and  O_14
REMARK                            x       y       z     vdW  Elec       q    Type
REMARK                         _______ _______ _______ _____ _____    ______ ____
ROOT
ATOM      1  C   UNL     1      35.190 -18.711 -21.336  0.00  0.00    +0.139 C 
ATOM      2  C   UNL     1      35.165 -17.324 -21.244  0.00  0.00    +0.039 C 
ATOM      3  C   UNL     1      34.968 -19.344 -22.553  0.00  0.00    +0.039 C 
ATOM      4  C   UNL     1      34.690 -17.188 -23.608  0.00  0.00    +0.143 C 
ATOM      5  C   UNL     1      34.914 -16.560 -22.384  0.00  0.00    +0.027 C 
ATOM      6  C   UNL     1      34.717 -18.581 -23.694  0.00  0.00    +0.027 C 
ENDROOT
BRANCH   4   9
ATOM      7  O   UNL     1      34.859 -16.815 -25.877  0.00  0.00    -0.126 OA
ATOM      8  O   UNL     1      33.787 -15.341 -24.653  0.00  0.00    -0.126 OA
ATOM      9  N   UNL     1      34.433 -16.411 -24.769  0.00  0.00    +0.058 N 
ENDBRANCH   4   9
BRANCH   1  10
ATOM     10  O   UNL     1      35.438 -19.461 -20.216  0.00  0.00    -0.475 OA
BRANCH  10  11
ATOM     11  C   UNL     1      35.651 -20.852 -20.411  0.00  0.00    +0.208 C 
BRANCH  11  12
ATOM     12  C   UNL     1      35.083 -21.631 -19.234  0.00  0.00    +0.079 C 
BRANCH  12  13
ATOM     13  C   UNL     1      33.613 -21.965 -19.428  0.00  0.00    +0.141 C 
BRANCH  13  14
ATOM     14  O   UNL     1      32.880 -20.754 -19.543  0.00  0.00    -0.382 OA
ATOM     15  H   UNL     1      32.091 -20.905 -20.088  0.00  0.00    +0.210 HD
ENDBRANCH  13  14
ENDBRANCH  12  13
ENDBRANCH  11  12
ENDBRANCH  10  11
ENDBRANCH   1  10
TORSDOF 6
ENDMDL
MODEL 4
REMARK VINA RESULT:      -6.8      2.673      6.461
REMARK  Name = 4474777
REMARK  6 active torsions:
REMARK  status: ('A' for Active; 'I' for Inactive)
REMARK    1  A    between atoms: C_1  and  O_10
REMARK    2  A    between atoms: C_4  and  N_9
REMARK    3  A    between atoms: O_10  and  C_11
REMARK    4  A    between atoms: C_11  and  C_12
REMARK    5  A    between atoms: C_12  and  C_13
REMARK    6  A    between atoms: C_13  and  O_14
REMARK                            x       y       z     vdW  Elec       q    Type
REMARK                         _______ _______ _______ _____ _____    ______ ____
ROOT
ATOM      1  C   UNL     1      34.477 -22.220 -19.016  0.00  0.00    +0.139 C 
ATOM      2  C   UNL     1      35.759 -21.768 -19.307  0.00  0.00    +0.039 C 
ATOM      3  C   UNL     1      33.362 -21.548 -19.503  0.00  0.00    +0.039 C 
ATOM      4  C   UNL     1      34.815 -19.950 -20.586  0.00  0.00    +0.143 C 
ATOM      5  C   UNL     1      35.929 -20.629 -20.094  0.00  0.00    +0.027 C 
ATOM      6  C   UNL     1      33.531 -20.409 -20.290  0.00  0.00    +0.027 C 
ENDROOT
BRANCH   4   9
ATOM      7  O   UNL     1      35.382 -17.730 -20.843  0.00  0.00    -0.126 OA
ATOM      8  O   UNL     1      34.740 -18.855 -22.614  0.00  0.00    -0.126 OA
ATOM      9  N   UNL     1      34.988 -18.789 -21.386  0.00  0.00    +0.058 N 
ENDBRANCH   4   9
BRANCH   1  10
ATOM     10  O   UNL     1      34.310 -23.339 -18.243  0.00  0.00    -0.475 OA
BRANCH  10  11
ATOM     11  C   UNL     1      33.391 -23.242 -17.164  0.00  0.00    +0.208 C 
BRANCH  11  12
ATOM     12  C   UNL     1      34.083 -23.613 -15.861  0.00  0.00    +0.079 C 
BRANCH  12  13
ATOM     13  C   UNL     1      35.396 -22.868 -15.682  0.00  0.00    +0.141 C 
BRANCH  13  14
ATOM     14  O   UNL     1      36.453 -23.674 -16.183  0.00  0.00    -0.382 OA
ATOM     15  H   UNL     1      37.299 -23.351 -15.834  0.00  0.00    +0.210 HD
ENDBRANCH  13  14
ENDBRANCH  12  13
ENDBRANCH  11  12
ENDBRANCH  10  11
ENDBRANCH   1  10
TORSDOF 6
ENDMDL
MODEL 5
REMARK VINA RESULT:      -6.7      3.120      4.641
REMARK  Name = 4474777
REMARK  6 active torsions:
REMARK  status: ('A' for Active; 'I' for Inactive)
REMARK    1  A    between atoms: C_1  and  O_10
REMARK    2  A    between atoms: C_4  and  N_9
REMARK    3  A    between atoms: O_10  and  C_11
REMARK    4  A    between atoms: C_11  and  C_12
REMARK    5  A    between atoms: C_12  and  C_13
REMARK    6  A    between atoms: C_13  and  O_14
REMARK                            x       y       z     vdW  Elec       q    Type
REMARK                         _______ _______ _______ _____ _____    ______ ____
ROOT
ATOM      1  C   UNL     1      34.613 -16.822 -24.837  0.00  0.00    +0.139 C 
ATOM      2  C   UNL     1      34.940 -16.178 -23.648  0.00  0.00    +0.039 C 
ATOM      3  C   UNL     1      34.503 -18.206 -24.886  0.00  0.00    +0.039 C 
ATOM      4  C   UNL     1      35.054 -18.319 -22.536  0.00  0.00    +0.143 C 
ATOM      5  C   UNL     1      35.161 -16.929 -22.494  0.00  0.00    +0.027 C 
ATOM      6  C   UNL     1      34.724 -18.958 -23.732  0.00  0.00    +0.027 C 
ENDROOT
BRANCH   4   9
ATOM      7  O   UNL     1      34.473 -19.998 -21.067  0.00  0.00    -0.126 OA
ATOM      8  O   UNL     1      36.281 -18.825 -20.650  0.00  0.00    -0.126 OA
ATOM      9  N   UNL     1      35.280 -19.085 -21.361  0.00  0.00    +0.058 N 
ENDBRANCH   4   9
BRANCH   1  10
ATOM     10  O   UNL     1      34.395 -16.083 -25.970  0.00  0.00    -0.475 OA
BRANCH  10  11
ATOM     11  C   UNL     1      33.081 -15.578 -26.164  0.00  0.00    +0.208 C 
BRANCH  11  12
ATOM     12  C   UNL     1      33.032 -14.107 -25.779  0.00  0.00    +0.079 C 
BRANCH  12  13
ATOM     13  C   UNL     1      33.098 -13.198 -26.996  0.00  0.00    +0.141 C 
BRANCH  13  14
ATOM     14  O   UNL     1      34.074 -13.705 -27.894  0.00  0.00    -0.382 OA
ATOM     15  H   UNL     1      34.761 -14.174 -27.394  0.00  0.00    +0.210 HD
ENDBRANCH  13  14
ENDBRANCH  12  13
ENDBRANCH  11  12
ENDBRANCH  10  11
ENDBRANCH   1  10
TORSDOF 6
ENDMDL
MODEL 6
REMARK VINA RESULT:      -6.7      3.563      6.796
REMARK  Name = 4474777
REMARK  6 active torsions:
REMARK  status: ('A' for Active; 'I' for Inactive)
REMARK    1  A    between atoms: C_1  and  O_10
REMARK    2  A    between atoms: C_4  and  N_9
REMARK    3  A    between atoms: O_10  and  C_11
REMARK    4  A    between atoms: C_11  and  C_12
REMARK    5  A    between atoms: C_12  and  C_13
REMARK    6  A    between atoms: C_13  and  O_14
REMARK                            x       y       z     vdW  Elec       q    Type
REMARK                         _______ _______ _______ _____ _____    ______ ____
ROOT
ATOM      1  C   UNL     1      35.222 -17.976 -23.144  0.00  0.00    +0.139 C 
ATOM      2  C   UNL     1      34.778 -18.329 -24.413  0.00  0.00    +0.039 C 
ATOM      3  C   UNL     1      35.078 -16.675 -22.679  0.00  0.00    +0.039 C 
ATOM      4  C   UNL     1      34.034 -16.059 -24.770  0.00  0.00    +0.143 C 
ATOM      5  C   UNL     1      34.181 -17.367 -25.229  0.00  0.00    +0.027 C 
ATOM      6  C   UNL     1      34.482 -15.712 -23.494  0.00  0.00    +0.027 C 
ENDROOT
BRANCH   4   9
ATOM      7  O   UNL     1      32.793 -14.138 -25.066  0.00  0.00    -0.126 OA
ATOM      8  O   UNL     1      33.545 -15.181 -26.846  0.00  0.00    -0.126 OA
ATOM      9  N   UNL     1      33.428 -15.079 -25.601  0.00  0.00    +0.058 N 
ENDBRANCH   4   9
BRANCH   1  10
ATOM     10  O   UNL     1      35.807 -18.922 -22.343  0.00  0.00    -0.475 OA
BRANCH  10  11
ATOM     11  C   UNL     1      35.443 -18.913 -20.970  0.00  0.00    +0.208 C 
BRANCH  11  12
ATOM     12  C   UNL     1      34.656 -20.171 -20.636  0.00  0.00    +0.079 C 
BRANCH  12  13
ATOM     13  C   UNL     1      33.155 -19.932 -20.676  0.00  0.00    +0.141 C 
BRANCH  13  14
ATOM     14  O   UNL     1      32.550 -20.642 -19.605  0.00  0.00    -0.382 OA
ATOM     15  H   UNL     1      33.236 -21.086 -19.082  0.00  0.00    +0.210 HD
ENDBRANCH  13  14
ENDBRANCH  12  13
ENDBRANCH  11  12
ENDBRANCH  10  11
ENDBRANCH   1  10
TORSDOF 6
ENDMDL
MODEL 7
REMARK VINA RESULT:      -6.6      7.866      9.745
REMARK  Name = 4474777
REMARK  6 active torsions:
REMARK  status: ('A' for Active; 'I' for Inactive)
REMARK    1  A    between atoms: C_1  and  O_10
REMARK    2  A    between atoms: C_4  and  N_9
REMARK    3  A    between atoms: O_10  and  C_11
REMARK    4  A    between atoms: C_11  and  C_12
REMARK    5  A    between atoms: C_12  and  C_13
REMARK    6  A    between atoms: C_13  and  O_14
REMARK                            x       y       z     vdW  Elec       q    Type
REMARK                         _______ _______ _______ _____ _____    ______ ____
ROOT
ATOM      1  C   UNL     1      31.637 -24.297 -14.237  0.00  0.00    +0.139 C 
ATOM      2  C   UNL     1      31.820 -23.234 -15.114  0.00  0.00    +0.039 C 
ATOM      3  C   UNL     1      30.444 -25.008 -14.224  0.00  0.00    +0.039 C 
ATOM      4  C   UNL     1      29.593 -23.585 -15.982  0.00  0.00    +0.143 C 
ATOM      5  C   UNL     1      30.794 -22.876 -15.989  0.00  0.00    +0.027 C 
ATOM      6  C   UNL     1      29.417 -24.652 -15.099  0.00  0.00    +0.027 C 
ENDROOT
BRANCH   4   9
ATOM      7  O   UNL     1      27.854 -24.125 -17.396  0.00  0.00    -0.126 OA
ATOM      8  O   UNL     1      28.348 -22.005 -17.110  0.00  0.00    -0.126 OA
ATOM      9  N   UNL     1      28.548 -23.221 -16.872  0.00  0.00    +0.058 N 
ENDBRANCH   4   9
BRANCH   1  10
ATOM     10  O   UNL     1      32.646 -24.649 -13.378  0.00  0.00    -0.475 OA
BRANCH  10  11
ATOM     11  C   UNL     1      33.970 -24.318 -13.773  0.00  0.00    +0.208 C 
BRANCH  11  12
ATOM     12  C   UNL     1      34.869 -24.236 -12.550  0.00  0.00    +0.079 C 
BRANCH  12  13
ATOM     13  C   UNL     1      36.223 -24.883 -12.794  0.00  0.00    +0.141 C 
BRANCH  13  14
ATOM     14  O   UNL     1      36.416 -25.915 -11.837  0.00  0.00    -0.382 OA
ATOM     15  H   UNL     1      37.150 -26.484 -12.120  0.00  0.00    +0.210 HD
ENDBRANCH  13  14
ENDBRANCH  12  13
ENDBRANCH  11  12
ENDBRANCH  10  11
ENDBRANCH   1  10
TORSDOF 6
ENDMDL
MODEL 8
REMARK VINA RESULT:      -6.6      2.722      6.229
REMARK  Name = 4474777
REMARK  6 active torsions:
REMARK  status: ('A' for Active; 'I' for Inactive)
REMARK    1  A    between atoms: C_1  and  O_10
REMARK    2  A    between atoms: C_4  and  N_9
REMARK    3  A    between atoms: O_10  and  C_11
REMARK    4  A    between atoms: C_11  and  C_12
REMARK    5  A    between atoms: C_12  and  C_13
REMARK    6  A    between atoms: C_13  and  O_14
REMARK                            x       y       z     vdW  Elec       q    Type
REMARK                         _______ _______ _______ _____ _____    ______ ____
ROOT
ATOM      1  C   UNL     1      33.932 -22.203 -19.086  0.00  0.00    +0.139 C 
ATOM      2  C   UNL     1      32.995 -21.340 -19.642  0.00  0.00    +0.039 C 
ATOM      3  C   UNL     1      35.291 -21.995 -19.282  0.00  0.00    +0.039 C 
ATOM      4  C   UNL     1      34.786 -20.037 -20.606  0.00  0.00    +0.143 C 
ATOM      5  C   UNL     1      33.423 -20.252 -20.405  0.00  0.00    +0.027 C 
ATOM      6  C   UNL     1      35.721 -20.908 -20.044  0.00  0.00    +0.027 C 
ENDROOT
BRANCH   4   9
ATOM      7  O   UNL     1      35.221 -19.030 -22.634  0.00  0.00    -0.126 OA
ATOM      8  O   UNL     1      35.601 -17.888 -20.798  0.00  0.00    -0.126 OA
ATOM      9  N   UNL     1      35.223 -18.932 -21.383  0.00  0.00    +0.058 N 
ENDBRANCH   4   9
BRANCH   1  10
ATOM     10  O   UNL     1      33.510 -23.270 -18.337  0.00  0.00    -0.475 OA
BRANCH  10  11
ATOM     11  C   UNL     1      34.057 -23.393 -17.031  0.00  0.00    +0.208 C 
BRANCH  11  12
ATOM     12  C   UNL     1      32.981 -23.116 -15.992  0.00  0.00    +0.079 C 
BRANCH  12  13
ATOM     13  C   UNL     1      31.610 -23.581 -16.455  0.00  0.00    +0.141 C 
BRANCH  13  14
ATOM     14  O   UNL     1      30.936 -22.487 -17.062  0.00  0.00    -0.382 OA
ATOM     15  H   UNL     1      30.950 -21.725 -16.461  0.00  0.00    +0.210 HD
ENDBRANCH  13  14
ENDBRANCH  12  13
ENDBRANCH  11  12
ENDBRANCH  10  11
ENDBRANCH   1  10
TORSDOF 6
ENDMDL
MODEL 9
REMARK VINA RESULT:      -6.5      3.325      6.832
REMARK  Name = 4474777
REMARK  6 active torsions:
REMARK  status: ('A' for Active; 'I' for Inactive)
REMARK    1  A    between atoms: C_1  and  O_10
REMARK    2  A    between atoms: C_4  and  N_9
REMARK    3  A    between atoms: O_10  and  C_11
REMARK    4  A    between atoms: C_11  and  C_12
REMARK    5  A    between atoms: C_12  and  C_13
REMARK    6  A    between atoms: C_13  and  O_14
REMARK                            x       y       z     vdW  Elec       q    Type
REMARK                         _______ _______ _______ _____ _____    ______ ____
ROOT
ATOM      1  C   UNL     1      35.070 -16.853 -21.468  0.00  0.00    +0.139 C 
ATOM      2  C   UNL     1      35.093 -17.028 -22.847  0.00  0.00    +0.039 C 
ATOM      3  C   UNL     1      34.636 -15.656 -20.912  0.00  0.00    +0.039 C 
ATOM      4  C   UNL     1      34.240 -14.787 -23.132  0.00  0.00    +0.143 C 
ATOM      5  C   UNL     1      34.676 -15.991 -23.682  0.00  0.00    +0.027 C 
ATOM      6  C   UNL     1      34.220 -14.618 -21.747  0.00  0.00    +0.027 C 
ENDROOT
BRANCH   4   9
ATOM      7  O   UNL     1      33.377 -14.007 -25.123  0.00  0.00    -0.126 OA
ATOM      8  O   UNL     1      33.897 -12.548 -23.568  0.00  0.00    -0.126 OA
ATOM      9  N   UNL     1      33.817 -13.730 -23.982  0.00  0.00    +0.058 N 
ENDBRANCH   4   9
BRANCH   1  10
ATOM     10  O   UNL     1      35.479 -17.873 -20.647  0.00  0.00    -0.475 OA
BRANCH  10  11
ATOM     11  C   UNL     1      35.655 -19.148 -21.249  0.00  0.00    +0.208 C 
BRANCH  11  12
ATOM     12  C   UNL     1      34.829 -20.188 -20.508  0.00  0.00    +0.079 C 
BRANCH  12  13
ATOM     13  C   UNL     1      33.337 -19.986 -20.720  0.00  0.00    +0.141 C 
BRANCH  13  14
ATOM     14  O   UNL     1      32.636 -20.588 -19.642  0.00  0.00    -0.382 OA
ATOM     15  H   UNL     1      33.245 -21.144 -19.130  0.00  0.00    +0.210 HD
ENDBRANCH  13  14
ENDBRANCH  12  13
ENDBRANCH  11  12
ENDBRANCH  10  11
ENDBRANCH   1  10
TORSDOF 6
ENDMDL
