MODEL 1
REMARK VINA RESULT:      -8.5      0.000      0.000
REMARK  Name = 71484494
REMARK  5 active torsions:
REMARK  status: ('A' for Active; 'I' for Inactive)
REMARK    1  A    between atoms: N_2  and  C_29
REMARK    2  A    between atoms: C_3  and  O_25
REMARK    3  A    between atoms: C_16  and  O_27
REMARK    4  A    between atoms: C_18  and  C_22
REMARK    5  A    between atoms: C_29  and  C_30
REMARK                            x       y       z     vdW  Elec       q    Type
REMARK                         _______ _______ _______ _____ _____    ______ ____
ROOT
ATOM      1  O   UNL     1      32.170 -10.613 -19.704  0.00  0.00    -0.296 OA
ATOM      2  N   UNL     1      31.950  -6.031 -24.223  0.00  0.00    +0.392 N 
ATOM      3  C   UNL     1      32.313  -7.154 -21.909  0.00  0.00    +0.076 C 
ATOM      4  C   UNL     1      32.977  -6.335 -23.047  0.00  0.00    -0.024 C 
ATOM      5  C   UNL     1      31.773  -8.488 -22.513  0.00  0.00    +0.047 C 
ATOM      6  C   UNL     1      30.709  -8.159 -23.594  0.00  0.00    -0.015 C 
ATOM      7  C   UNL     1      31.232  -7.284 -24.732  0.00  0.00    -0.072 C 
ATOM      8  C   UNL     1      34.224  -7.090 -23.552  0.00  0.00    +0.008 C 
ATOM      9  C   UNL     1      33.279  -7.430 -20.719  0.00  0.00    +0.033 C 
ATOM     10  C   UNL     1      32.912  -9.266 -23.211  0.00  0.00    +0.009 C 
ATOM     11  C   UNL     1      31.075  -9.291 -21.383  0.00  0.00    +0.071 C 
ATOM     12  C   UNL     1      34.041  -8.582 -23.721  0.00  0.00    -0.025 C 
ATOM     13  C   UNL     1      30.905  -4.981 -23.791  0.00  0.00    -0.096 C 
ATOM     14  C   UNL     1      32.627  -8.260 -19.618  0.00  0.00    +0.067 C 
ATOM     15  C   UNL     1      32.000  -9.502 -20.204  0.00  0.00    +0.151 C 
ATOM     16  C   UNL     1      32.826 -10.654 -23.427  0.00  0.00    +0.134 C 
ATOM     17  C   UNL     1      35.058  -9.297 -24.375  0.00  0.00    -0.004 C 
ATOM     18  C   UNL     1      33.842 -11.350 -24.086  0.00  0.00    +0.086 C 
ATOM     19  C   UNL     1      34.960 -10.673 -24.555  0.00  0.00    +0.007 C 
ENDROOT
BRANCH  18  22
ATOM     20  O   UNL     1      33.295 -13.240 -25.381  0.00  0.00    -0.270 OA
ATOM     21  N   UNL     1      34.215 -13.632 -23.317  0.00  0.00    -0.325 N 
ATOM     22  C   UNL     1      33.752 -12.787 -24.319  0.00  0.00    +0.246 C 
ATOM     23  H   UNL     1      34.171 -14.608 -23.437  0.00  0.00    +0.145 HD
ATOM     24  H   UNL     1      34.587 -13.254 -22.488  0.00  0.00    +0.145 HD
ENDBRANCH  18  22
BRANCH   3  25
ATOM     25  O   UNL     1      31.270  -6.337 -21.362  0.00  0.00    -0.388 OA
ATOM     26  H   UNL     1      30.544  -6.902 -21.056  0.00  0.00    +0.210 HD
ENDBRANCH   3  25
BRANCH  16  27
ATOM     27  O   UNL     1      31.722 -11.391 -23.110  0.00  0.00    -0.506 OA
ATOM     28  H   UNL     1      30.869 -11.013 -23.189  0.00  0.00    +0.292 HD
ENDBRANCH  16  27
BRANCH   2  29
ATOM     29  C   UNL     1      32.678  -5.383 -25.420  0.00  0.00    -0.073 C 
BRANCH  29  30
ATOM     30  C   UNL     1      31.990  -4.186 -25.982  0.00  0.00    -0.020 C 
ATOM     31  C   UNL     1      32.762  -2.926 -26.254  0.00  0.00    -0.002 C 
ATOM     32  C   UNL     1      32.252  -3.756 -27.398  0.00  0.00    -0.002 C 
ENDBRANCH  29  30
ENDBRANCH   2  29
TORSDOF 5
ENDMDL
