MODEL 1
REMARK VINA RESULT:      -8.2      0.000      0.000
REMARK  Name = 13765
REMARK  2 active torsions:
REMARK  status: ('A' for Active; 'I' for Inactive)
REMARK    1  A    between atoms: C_5  and  O_19
REMARK    2  A    between atoms: C_5  and  C_21
REMARK                            x       y       z     vdW  Elec       q    Type
REMARK                         _______ _______ _______ _____ _____    ______ ____
ROOT
ATOM      1  C   UNL     1      31.968 -23.458 -14.588  0.00  0.00    +0.023 C 
ATOM      2  C   UNL     1      33.018 -23.505 -15.719  0.00  0.00    +0.002 C 
ATOM      3  C   UNL     1      34.422 -23.122 -15.244  0.00  0.00    +0.001 C 
ATOM      4  C   UNL     1      34.867 -24.119 -14.120  0.00  0.00    +0.004 C 
ATOM      5  C   UNL     1      30.666 -23.767 -15.392  0.00  0.00    +0.088 C 
ATOM      6  C   UNL     1      32.386 -24.479 -13.516  0.00  0.00    +0.002 C 
ATOM      7  C   UNL     1      32.376 -22.686 -16.835  0.00  0.00    +0.002 C 
ATOM      8  C   UNL     1      33.811 -24.222 -12.995  0.00  0.00    +0.000 C 
ATOM      9  C   UNL     1      30.868 -22.975 -16.710  0.00  0.00    +0.027 C 
ATOM     10  C   UNL     1      36.281 -23.717 -13.609  0.00  0.00    +0.018 C 
ATOM     11  C   UNL     1      35.438 -23.104 -16.403  0.00  0.00    +0.004 C 
ATOM     12  C   UNL     1      31.840 -22.058 -13.916  0.00  0.00    +0.002 C 
ATOM     13  C   UNL     1      36.853 -22.795 -15.913  0.00  0.00    +0.022 C 
ATOM     14  C   UNL     1      37.222 -23.743 -14.804  0.00  0.00    -0.049 C 
ATOM     15  C   UNL     1      36.830 -24.555 -12.437  0.00  0.00    +0.004 C 
ATOM     16  C   UNL     1      37.423 -25.879 -12.901  0.00  0.00    +0.005 C 
ATOM     17  C   UNL     1      38.256 -24.595 -14.905  0.00  0.00    -0.035 C 
ATOM     18  C   UNL     1      38.572 -25.640 -13.880  0.00  0.00    +0.025 C 
ENDROOT
BRANCH   5  19
ATOM     19  O   UNL     1      29.503 -23.277 -14.729  0.00  0.00    -0.387 OA
ATOM     20  H   UNL     1      29.461 -23.648 -13.833  0.00  0.00    +0.210 HD
ENDBRANCH   5  19
BRANCH   5  21
ATOM     21  C   UNL     1      30.407 -25.248 -15.692  0.00  0.00    +0.027 C 
ATOM     22  C   UNL     1      29.210 -25.760 -14.920  0.00  0.00    +0.002 C 
ENDBRANCH   5  21
TORSDOF 2
ENDMDL
MODEL 2
REMARK VINA RESULT:      -8.1     10.351     13.063
REMARK  Name = 13765
REMARK  2 active torsions:
REMARK  status: ('A' for Active; 'I' for Inactive)
REMARK    1  A    between atoms: C_5  and  O_19
REMARK    2  A    between atoms: C_5  and  C_21
REMARK                            x       y       z     vdW  Elec       q    Type
REMARK                         _______ _______ _______ _____ _____    ______ ____
ROOT
ATOM      1  C   UNL     1      34.429 -17.245 -22.065  0.00  0.00    +0.023 C 
ATOM      2  C   UNL     1      34.525 -17.111 -23.600  0.00  0.00    +0.002 C 
ATOM      3  C   UNL     1      33.623 -16.007 -24.159  0.00  0.00    +0.001 C 
ATOM      4  C   UNL     1      34.040 -14.638 -23.520  0.00  0.00    +0.004 C 
ATOM      5  C   UNL     1      35.338 -18.491 -21.829  0.00  0.00    +0.088 C 
ATOM      6  C   UNL     1      34.892 -15.915 -21.447  0.00  0.00    +0.002 C 
ATOM      7  C   UNL     1      34.323 -18.539 -24.096  0.00  0.00    +0.002 C 
ATOM      8  C   UNL     1      34.083 -14.717 -21.976  0.00  0.00    +0.000 C 
ATOM      9  C   UNL     1      34.981 -19.421 -23.018  0.00  0.00    +0.027 C 
ATOM     10  C   UNL     1      33.107 -13.516 -24.059  0.00  0.00    +0.018 C 
ATOM     11  C   UNL     1      33.679 -15.940 -25.698  0.00  0.00    +0.004 C 
ATOM     12  C   UNL     1      32.989 -17.552 -21.557  0.00  0.00    +0.002 C 
ATOM     13  C   UNL     1      32.836 -14.788 -26.247  0.00  0.00    +0.022 C 
ATOM     14  C   UNL     1      33.236 -13.504 -25.574  0.00  0.00    -0.049 C 
ATOM     15  C   UNL     1      33.335 -12.113 -23.459  0.00  0.00    +0.004 C 
ATOM     16  C   UNL     1      34.507 -11.390 -24.110  0.00  0.00    +0.005 C 
ATOM     17  C   UNL     1      33.739 -12.463 -26.260  0.00  0.00    -0.035 C 
ATOM     18  C   UNL     1      34.268 -11.221 -25.610  0.00  0.00    +0.025 C 
ENDROOT
BRANCH   5  19
ATOM     19  O   UNL     1      35.022 -19.156 -20.608  0.00  0.00    -0.387 OA
ATOM     20  H   UNL     1      35.199 -18.561 -19.861  0.00  0.00    +0.210 HD
ENDBRANCH   5  19
BRANCH   5  21
ATOM     21  C   UNL     1      36.847 -18.216 -21.799  0.00  0.00    +0.027 C 
ATOM     22  C   UNL     1      37.580 -19.279 -21.009  0.00  0.00    +0.002 C 
ENDBRANCH   5  21
TORSDOF 2
ENDMDL
MODEL 3
REMARK VINA RESULT:      -8.1     14.348     16.650
REMARK  Name = 13765
REMARK  2 active torsions:
REMARK  status: ('A' for Active; 'I' for Inactive)
REMARK    1  A    between atoms: C_5  and  O_19
REMARK    2  A    between atoms: C_5  and  C_21
REMARK                            x       y       z     vdW  Elec       q    Type
REMARK                         _______ _______ _______ _____ _____    ______ ____
ROOT
ATOM      1  C   UNL     1      32.237  -8.316 -23.446  0.00  0.00    +0.023 C 
ATOM      2  C   UNL     1      32.460  -8.640 -21.953  0.00  0.00    +0.002 C 
ATOM      3  C   UNL     1      31.826  -9.968 -21.531  0.00  0.00    +0.001 C 
ATOM      4  C   UNL     1      32.454 -11.124 -22.383  0.00  0.00    +0.004 C 
ATOM      5  C   UNL     1      32.872  -6.892 -23.528  0.00  0.00    +0.088 C 
ATOM      6  C   UNL     1      32.904  -9.427 -24.273  0.00  0.00    +0.002 C 
ATOM      7  C   UNL     1      32.021  -7.364 -21.242  0.00  0.00    +0.002 C 
ATOM      8  C   UNL     1      32.377 -10.825 -23.899  0.00  0.00    +0.000 C 
ATOM      9  C   UNL     1      32.423  -6.227 -22.201  0.00  0.00    +0.027 C 
ATOM     10  C   UNL     1      31.792 -12.474 -21.983  0.00  0.00    +0.018 C 
ATOM     11  C   UNL     1      31.997 -10.236 -20.023  0.00  0.00    +0.004 C 
ATOM     12  C   UNL     1      30.734  -8.234 -23.847  0.00  0.00    +0.002 C 
ATOM     13  C   UNL     1      31.429 -11.598 -19.620  0.00  0.00    +0.022 C 
ATOM     14  C   UNL     1      32.022 -12.670 -20.493  0.00  0.00    -0.049 C 
ATOM     15  C   UNL     1      32.244 -13.705 -22.795  0.00  0.00    +0.004 C 
ATOM     16  C   UNL     1      33.574 -14.263 -22.304  0.00  0.00    +0.005 C 
ATOM     17  C   UNL     1      32.760 -13.674 -19.991  0.00  0.00    -0.035 C 
ATOM     18  C   UNL     1      33.473 -14.684 -20.838  0.00  0.00    +0.025 C 
ENDROOT
BRANCH   5  19
ATOM     19  O   UNL     1      32.353  -6.141 -24.623  0.00  0.00    -0.387 OA
ATOM     20  H   UNL     1      32.636  -5.216 -24.544  0.00  0.00    +0.210 HD
ENDBRANCH   5  19
BRANCH   5  21
ATOM     21  C   UNL     1      34.400  -6.854 -23.656  0.00  0.00    +0.027 C 
ATOM     22  C   UNL     1      34.821  -6.500 -25.067  0.00  0.00    +0.002 C 
ENDBRANCH   5  21
TORSDOF 2
ENDMDL
MODEL 4
REMARK VINA RESULT:      -7.6     12.295     14.599
REMARK  Name = 13765
REMARK  2 active torsions:
REMARK  status: ('A' for Active; 'I' for Inactive)
REMARK    1  A    between atoms: C_5  and  O_19
REMARK    2  A    between atoms: C_5  and  C_21
REMARK                            x       y       z     vdW  Elec       q    Type
REMARK                         _______ _______ _______ _____ _____    ______ ____
ROOT
ATOM      1  C   UNL     1      31.970 -10.255 -22.146  0.00  0.00    +0.023 C 
ATOM      2  C   UNL     1      32.370 -11.119 -20.930  0.00  0.00    +0.002 C 
ATOM      3  C   UNL     1      32.149 -12.616 -21.166  0.00  0.00    +0.001 C 
ATOM      4  C   UNL     1      33.010 -13.069 -22.394  0.00  0.00    +0.004 C 
ATOM      5  C   UNL     1      32.188  -8.824 -21.564  0.00  0.00    +0.088 C 
ATOM      6  C   UNL     1      32.858 -10.671 -23.330  0.00  0.00    +0.002 C 
ATOM      7  C   UNL     1      31.648 -10.450 -19.764  0.00  0.00    +0.002 C 
ATOM      8  C   UNL     1      32.757 -12.177 -23.631  0.00  0.00    +0.000 C 
ATOM      9  C   UNL     1      31.663  -8.949 -20.109  0.00  0.00    +0.027 C 
ATOM     10  C   UNL     1      32.768 -14.583 -22.660  0.00  0.00    +0.018 C 
ATOM     11  C   UNL     1      32.484 -13.453 -19.915  0.00  0.00    +0.004 C 
ATOM     12  C   UNL     1      30.478 -10.421 -22.563  0.00  0.00    +0.002 C 
ATOM     13  C   UNL     1      32.336 -14.952 -20.178  0.00  0.00    +0.022 C 
ATOM     14  C   UNL     1      33.139 -15.334 -21.391  0.00  0.00    -0.049 C 
ATOM     15  C   UNL     1      33.483 -15.166 -23.896  0.00  0.00    +0.004 C 
ATOM     16  C   UNL     1      34.944 -15.496 -23.614  0.00  0.00    +0.005 C 
ATOM     17  C   UNL     1      34.153 -16.213 -21.329  0.00  0.00    -0.035 C 
ATOM     18  C   UNL     1      35.057 -16.519 -22.485  0.00  0.00    +0.025 C 
ENDROOT
BRANCH   5  19
ATOM     19  O   UNL     1      31.414  -7.846 -22.254  0.00  0.00    -0.387 OA
ATOM     20  H   UNL     1      30.742  -7.483 -21.656  0.00  0.00    +0.210 HD
ENDBRANCH   5  19
BRANCH   5  21
ATOM     21  C   UNL     1      33.636  -8.319 -21.568  0.00  0.00    +0.027 C 
ATOM     22  C   UNL     1      33.911  -7.460 -22.784  0.00  0.00    +0.002 C 
ENDBRANCH   5  21
TORSDOF 2
ENDMDL
MODEL 5
REMARK VINA RESULT:      -7.5      2.340      6.093
REMARK  Name = 13765
REMARK  2 active torsions:
REMARK  status: ('A' for Active; 'I' for Inactive)
REMARK    1  A    between atoms: C_5  and  O_19
REMARK    2  A    between atoms: C_5  and  C_21
REMARK                            x       y       z     vdW  Elec       q    Type
REMARK                         _______ _______ _______ _____ _____    ______ ____
ROOT
ATOM      1  C   UNL     1      35.883 -24.462 -14.163  0.00  0.00    +0.023 C 
ATOM      2  C   UNL     1      35.454 -23.379 -15.176  0.00  0.00    +0.002 C 
ATOM      3  C   UNL     1      34.148 -23.725 -15.898  0.00  0.00    +0.001 C 
ATOM      4  C   UNL     1      33.007 -23.883 -14.837  0.00  0.00    +0.004 C 
ATOM      5  C   UNL     1      37.262 -23.893 -13.703  0.00  0.00    +0.088 C 
ATOM      6  C   UNL     1      34.781 -24.570 -13.096  0.00  0.00    +0.002 C 
ATOM      7  C   UNL     1      36.711 -23.152 -16.010  0.00  0.00    +0.002 C 
ATOM      8  C   UNL     1      33.403 -24.869 -13.713  0.00  0.00    +0.000 C 
ATOM      9  C   UNL     1      37.874 -23.342 -15.018  0.00  0.00    +0.027 C 
ATOM     10  C   UNL     1      31.684 -24.266 -15.560  0.00  0.00    +0.018 C 
ATOM     11  C   UNL     1      33.778 -22.667 -16.957  0.00  0.00    +0.004 C 
ATOM     12  C   UNL     1      36.092 -25.866 -14.804  0.00  0.00    +0.002 C 
ATOM     13  C   UNL     1      32.436 -22.977 -17.623  0.00  0.00    +0.022 C 
ATOM     14  C   UNL     1      31.381 -23.168 -16.568  0.00  0.00    -0.049 C 
ATOM     15  C   UNL     1      30.477 -24.541 -14.640  0.00  0.00    +0.004 C 
ATOM     16  C   UNL     1      29.799 -23.257 -14.177  0.00  0.00    +0.005 C 
ATOM     17  C   UNL     1      30.300 -22.375 -16.486  0.00  0.00    -0.035 C 
ATOM     18  C   UNL     1      29.298 -22.451 -15.374  0.00  0.00    +0.025 C 
ENDROOT
BRANCH   5  19
ATOM     19  O   UNL     1      38.113 -24.913 -13.186  0.00  0.00    -0.387 OA
ATOM     20  H   UNL     1      38.924 -24.512 -12.837  0.00  0.00    +0.210 HD
ENDBRANCH   5  19
BRANCH   5  21
ATOM     21  C   UNL     1      37.204 -22.791 -12.637  0.00  0.00    +0.027 C 
ATOM     22  C   UNL     1      37.205 -23.380 -11.242  0.00  0.00    +0.002 C 
ENDBRANCH   5  21
TORSDOF 2
ENDMDL
MODEL 6
REMARK VINA RESULT:      -7.0      2.623      5.227
REMARK  Name = 13765
REMARK  2 active torsions:
REMARK  status: ('A' for Active; 'I' for Inactive)
REMARK    1  A    between atoms: C_5  and  O_19
REMARK    2  A    between atoms: C_5  and  C_21
REMARK                            x       y       z     vdW  Elec       q    Type
REMARK                         _______ _______ _______ _____ _____    ______ ____
ROOT
ATOM      1  C   UNL     1      33.829 -23.992 -15.142  0.00  0.00    +0.023 C 
ATOM      2  C   UNL     1      34.908 -22.895 -15.259  0.00  0.00    +0.002 C 
ATOM      3  C   UNL     1      35.498 -22.788 -16.669  0.00  0.00    +0.001 C 
ATOM      4  C   UNL     1      34.347 -22.453 -17.677  0.00  0.00    +0.004 C 
ATOM      5  C   UNL     1      33.526 -23.934 -13.612  0.00  0.00    +0.088 C 
ATOM      6  C   UNL     1      32.680 -23.625 -16.096  0.00  0.00    +0.002 C 
ATOM      7  C   UNL     1      35.848 -23.194 -14.096  0.00  0.00    +0.002 C 
ATOM      8  C   UNL     1      33.165 -23.442 -17.545  0.00  0.00    +0.000 C 
ATOM      9  C   UNL     1      34.928 -23.728 -12.982  0.00  0.00    +0.027 C 
ATOM     10  C   UNL     1      34.933 -22.375 -19.117  0.00  0.00    +0.018 C 
ATOM     11  C   UNL     1      36.625 -21.739 -16.745  0.00  0.00    +0.004 C 
ATOM     12  C   UNL     1      34.344 -25.414 -15.513  0.00  0.00    +0.002 C 
ATOM     13  C   UNL     1      37.159 -21.582 -18.169  0.00  0.00    +0.022 C 
ATOM     14  C   UNL     1      36.017 -21.309 -19.110  0.00  0.00    -0.049 C 
ATOM     15  C   UNL     1      33.907 -22.134 -20.242  0.00  0.00    +0.004 C 
ATOM     16  C   UNL     1      33.522 -20.665 -20.368  0.00  0.00    +0.005 C 
ATOM     17  C   UNL     1      35.935 -20.174 -19.824  0.00  0.00    -0.035 C 
ATOM     18  C   UNL     1      34.752 -19.810 -20.669  0.00  0.00    +0.025 C 
ENDROOT
BRANCH   5  19
ATOM     19  O   UNL     1      32.976 -25.158 -13.132  0.00  0.00    -0.387 OA
ATOM     20  H   UNL     1      33.285 -25.892 -13.688  0.00  0.00    +0.210 HD
ENDBRANCH   5  19
BRANCH   5  21
ATOM     21  C   UNL     1      32.570 -22.820 -13.166  0.00  0.00    +0.027 C 
ATOM     22  C   UNL     1      31.131 -23.289 -13.204  0.00  0.00    +0.002 C 
ENDBRANCH   5  21
TORSDOF 2
ENDMDL
MODEL 7
REMARK VINA RESULT:      -7.0      2.294      6.371
REMARK  Name = 13765
REMARK  2 active torsions:
REMARK  status: ('A' for Active; 'I' for Inactive)
REMARK    1  A    between atoms: C_5  and  O_19
REMARK    2  A    between atoms: C_5  and  C_21
REMARK                            x       y       z     vdW  Elec       q    Type
REMARK                         _______ _______ _______ _____ _____    ______ ____
ROOT
ATOM      1  C   UNL     1      35.445 -23.839 -15.186  0.00  0.00    +0.023 C 
ATOM      2  C   UNL     1      34.467 -24.350 -14.107  0.00  0.00    +0.002 C 
ATOM      3  C   UNL     1      33.156 -23.559 -14.069  0.00  0.00    +0.001 C 
ATOM      4  C   UNL     1      32.452 -23.676 -15.464  0.00  0.00    +0.004 C 
ATOM      5  C   UNL     1      36.688 -24.738 -14.895  0.00  0.00    +0.088 C 
ATOM      6  C   UNL     1      34.765 -24.010 -16.555  0.00  0.00    +0.002 C 
ATOM      7  C   UNL     1      35.324 -24.402 -12.845  0.00  0.00    +0.002 C 
ATOM      8  C   UNL     1      33.405 -23.292 -16.620  0.00  0.00    +0.000 C 
ATOM      9  C   UNL     1      36.726 -24.798 -13.345  0.00  0.00    +0.027 C 
ATOM     10  C   UNL     1      31.135 -22.848 -15.444  0.00  0.00    +0.018 C 
ATOM     11  C   UNL     1      32.226 -24.037 -12.936  0.00  0.00    +0.004 C 
ATOM     12  C   UNL     1      35.839 -22.342 -15.011  0.00  0.00    +0.002 C 
ATOM     13  C   UNL     1      30.889 -23.296 -12.950  0.00  0.00    +0.022 C 
ATOM     14  C   UNL     1      30.271 -23.394 -14.318  0.00  0.00    -0.049 C 
ATOM     15  C   UNL     1      30.362 -22.793 -16.778  0.00  0.00    +0.004 C 
ATOM     16  C   UNL     1      29.521 -24.043 -17.009  0.00  0.00    +0.005 C 
ATOM     17  C   UNL     1      29.084 -23.988 -14.526  0.00  0.00    -0.035 C 
ATOM     18  C   UNL     1      28.499 -24.219 -15.887  0.00  0.00    +0.025 C 
ENDROOT
BRANCH   5  19
ATOM     19  O   UNL     1      37.895 -24.145 -15.367  0.00  0.00    -0.387 OA
ATOM     20  H   UNL     1      38.236 -23.529 -14.700  0.00  0.00    +0.210 HD
ENDBRANCH   5  19
BRANCH   5  21
ATOM     21  C   UNL     1      36.636 -26.153 -15.484  0.00  0.00    +0.027 C 
ATOM     22  C   UNL     1      37.197 -27.169 -14.512  0.00  0.00    +0.002 C 
ENDBRANCH   5  21
TORSDOF 2
ENDMDL
MODEL 8
REMARK VINA RESULT:      -6.9      6.225      8.384
REMARK  Name = 13765
REMARK  2 active torsions:
REMARK  status: ('A' for Active; 'I' for Inactive)
REMARK    1  A    between atoms: C_5  and  O_19
REMARK    2  A    between atoms: C_5  and  C_21
REMARK                            x       y       z     vdW  Elec       q    Type
REMARK                         _______ _______ _______ _____ _____    ______ ____
ROOT
ATOM      1  C   UNL     1      35.396 -18.252 -21.879  0.00  0.00    +0.023 C 
ATOM      2  C   UNL     1      34.190 -18.770 -21.065  0.00  0.00    +0.002 C 
ATOM      3  C   UNL     1      34.346 -20.231 -20.634  0.00  0.00    +0.001 C 
ATOM      4  C   UNL     1      35.631 -20.364 -19.746  0.00  0.00    +0.004 C 
ATOM      5  C   UNL     1      34.891 -16.825 -22.261  0.00  0.00    +0.088 C 
ATOM      6  C   UNL     1      36.640 -18.336 -20.979  0.00  0.00    +0.002 C 
ATOM      7  C   UNL     1      32.989 -18.389 -21.926  0.00  0.00    +0.002 C 
ATOM      8  C   UNL     1      36.873 -19.759 -20.441  0.00  0.00    +0.000 C 
ATOM      9  C   UNL     1      33.391 -17.054 -22.582  0.00  0.00    +0.027 C 
ATOM     10  C   UNL     1      35.815 -21.852 -19.330  0.00  0.00    +0.018 C 
ATOM     11  C   UNL     1      33.101 -20.750 -19.889  0.00  0.00    +0.004 C 
ATOM     12  C   UNL     1      35.667 -19.069 -23.177  0.00  0.00    +0.002 C 
ATOM     13  C   UNL     1      33.292 -22.184 -19.394  0.00  0.00    +0.022 C 
ATOM     14  C   UNL     1      34.558 -22.276 -18.587  0.00  0.00    -0.049 C 
ATOM     15  C   UNL     1      37.088 -22.164 -18.517  0.00  0.00    +0.004 C 
ATOM     16  C   UNL     1      36.930 -21.818 -17.041  0.00  0.00    +0.005 C 
ATOM     17  C   UNL     1      34.556 -22.632 -17.292  0.00  0.00    -0.035 C 
ATOM     18  C   UNL     1      35.777 -22.608 -16.423  0.00  0.00    +0.025 C 
ENDROOT
BRANCH   5  19
ATOM     19  O   UNL     1      35.545 -16.325 -23.424  0.00  0.00    -0.387 OA
ATOM     20  H   UNL     1      36.034 -17.043 -23.855  0.00  0.00    +0.210 HD
ENDBRANCH   5  19
BRANCH   5  21
ATOM     21  C   UNL     1      35.048 -15.753 -21.175  0.00  0.00    +0.027 C 
ATOM     22  C   UNL     1      33.775 -14.950 -21.014  0.00  0.00    +0.002 C 
ENDBRANCH   5  21
TORSDOF 2
ENDMDL
MODEL 9
REMARK VINA RESULT:      -6.7      6.777      8.978
REMARK  Name = 13765
REMARK  2 active torsions:
REMARK  status: ('A' for Active; 'I' for Inactive)
REMARK    1  A    between atoms: C_5  and  O_19
REMARK    2  A    between atoms: C_5  and  C_21
REMARK                            x       y       z     vdW  Elec       q    Type
REMARK                         _______ _______ _______ _____ _____    ______ ____
ROOT
ATOM      1  C   UNL     1      34.933 -17.301 -22.051  0.00  0.00    +0.023 C 
ATOM      2  C   UNL     1      33.806 -17.884 -21.172  0.00  0.00    +0.002 C 
ATOM      3  C   UNL     1      33.914 -19.401 -20.994  0.00  0.00    +0.001 C 
ATOM      4  C   UNL     1      35.287 -19.736 -20.317  0.00  0.00    +0.004 C 
ATOM      5  C   UNL     1      34.485 -15.808 -22.139  0.00  0.00    +0.088 C 
ATOM      6  C   UNL     1      36.272 -17.587 -21.350  0.00  0.00    +0.002 C 
ATOM      7  C   UNL     1      32.536 -17.311 -21.795  0.00  0.00    +0.002 C 
ATOM      8  C   UNL     1      36.471 -19.088 -21.072  0.00  0.00    +0.000 C 
ATOM      9  C   UNL     1      32.944 -15.910 -22.288  0.00  0.00    +0.027 C 
ATOM     10  C   UNL     1      35.419 -21.278 -20.161  0.00  0.00    +0.018 C 
ATOM     11  C   UNL     1      32.739 -19.972 -20.176  0.00  0.00    +0.004 C 
ATOM     12  C   UNL     1      34.984 -17.910 -23.483  0.00  0.00    +0.002 C 
ATOM     13  C   UNL     1      32.891 -21.474 -19.936  0.00  0.00    +0.022 C 
ATOM     14  C   UNL     1      34.239 -21.755 -19.330  0.00  0.00    -0.049 C 
ATOM     15  C   UNL     1      36.759 -21.778 -19.584  0.00  0.00    +0.004 C 
ATOM     16  C   UNL     1      36.811 -21.666 -18.065  0.00  0.00    +0.005 C 
ATOM     17  C   UNL     1      34.374 -22.314 -18.116  0.00  0.00    -0.035 C 
ATOM     18  C   UNL     1      35.693 -22.489 -17.426  0.00  0.00    +0.025 C 
ENDROOT
BRANCH   5  19
ATOM     19  O   UNL     1      35.020 -15.160 -23.290  0.00  0.00    -0.387 OA
ATOM     20  H   UNL     1      35.919 -15.486 -23.456  0.00  0.00    +0.210 HD
ENDBRANCH   5  19
BRANCH   5  21
ATOM     21  C   UNL     1      34.849 -14.933 -20.934  0.00  0.00    +0.027 C 
ATOM     22  C   UNL     1      33.639 -14.185 -20.417  0.00  0.00    +0.002 C 
ENDBRANCH   5  21
TORSDOF 2
ENDMDL
