MODEL 1
REMARK VINA RESULT:      -9.9      0.000      0.000
REMARK  Name = 127504
REMARK  2 active torsions:
REMARK  status: ('A' for Active; 'I' for Inactive)
REMARK    1  A    between atoms: N_1  and  C_13
REMARK    2  A    between atoms: C_12  and  O_20
REMARK                            x       y       z     vdW  Elec       q    Type
REMARK                         _______ _______ _______ _____ _____    ______ ____
ROOT
ATOM      1  N   UNL     1      32.687 -10.114 -23.022  0.00  0.00    -0.304 N 
ATOM      2  N   UNL     1      33.299 -12.781 -23.913  0.00  0.00    -0.288 N 
ATOM      3  N   UNL     1      33.487 -14.410 -25.668  0.00  0.00    -0.130 NA
ATOM      4  N   UNL     1      33.776 -15.671 -26.088  0.00  0.00    -0.109 NA
ATOM      5  C   UNL     1      33.767 -10.360 -23.977  0.00  0.00    +0.112 C 
ATOM      6  C   UNL     1      31.927 -11.264 -22.534  0.00  0.00    +0.112 C 
ATOM      7  C   UNL     1      33.501 -11.630 -24.791  0.00  0.00    +0.114 C 
ATOM      8  C   UNL     1      32.777 -12.537 -22.568  0.00  0.00    +0.114 C 
ATOM      9  C   UNL     1      33.595 -14.072 -24.343  0.00  0.00    +0.154 C 
ATOM     10  C   UNL     1      34.007 -15.031 -23.410  0.00  0.00    +0.041 C 
ATOM     11  C   UNL     1      34.300 -16.314 -23.838  0.00  0.00    +0.062 C 
ATOM     12  C   UNL     1      34.172 -16.591 -25.183  0.00  0.00    +0.244 C 
ENDROOT
BRANCH   1  13
ATOM     13  C   UNL     1      32.390  -8.823 -22.592  0.00  0.00    +0.048 C 
ATOM     14  C   UNL     1      31.969  -7.822 -23.500  0.00  0.00    +0.010 C 
ATOM     15  C   UNL     1      32.498  -8.458 -21.230  0.00  0.00    +0.014 C 
ATOM     16  C   UNL     1      31.671  -6.530 -23.068  0.00  0.00    -0.021 C 
ATOM     17  C   UNL     1      32.200  -7.166 -20.798  0.00  0.00    +0.001 C 
ATOM     18  C   UNL     1      31.787  -6.202 -21.717  0.00  0.00    -0.004 C 
ATOM     19  C   UNL     1      31.230  -5.499 -24.050  0.00  0.00    +0.031 C 
ENDBRANCH   1  13
BRANCH  12  20
ATOM     20  O   UNL     1      34.452 -17.848 -25.648  0.00  0.00    -0.455 OA
ATOM     21  C   UNL     1      34.497 -18.894 -24.685  0.00  0.00    +0.254 C 
ENDBRANCH  12  20
TORSDOF 2
ENDMDL
MODEL 2
REMARK VINA RESULT:      -9.8      4.765      7.497
REMARK  Name = 127504
REMARK  2 active torsions:
REMARK  status: ('A' for Active; 'I' for Inactive)
REMARK    1  A    between atoms: N_1  and  C_13
REMARK    2  A    between atoms: C_12  and  O_20
REMARK                            x       y       z     vdW  Elec       q    Type
REMARK                         _______ _______ _______ _____ _____    ______ ____
ROOT
ATOM      1  N   UNL     1      34.293 -16.396 -23.458  0.00  0.00    -0.304 N 
ATOM      2  N   UNL     1      35.003 -18.484 -21.609  0.00  0.00    -0.288 N 
ATOM      3  N   UNL     1      36.510 -19.425 -19.993  0.00  0.00    -0.130 NA
ATOM      4  N   UNL     1      36.845 -20.412 -19.121  0.00  0.00    -0.109 NA
ATOM      5  C   UNL     1      34.448 -16.117 -22.031  0.00  0.00    +0.112 C 
ATOM      6  C   UNL     1      34.510 -17.767 -23.918  0.00  0.00    +0.112 C 
ATOM      7  C   UNL     1      35.426 -17.103 -21.383  0.00  0.00    +0.114 C 
ATOM      8  C   UNL     1      34.208 -18.773 -22.803  0.00  0.00    +0.114 C 
ATOM      9  C   UNL     1      35.347 -19.495 -20.715  0.00  0.00    +0.154 C 
ATOM     10  C   UNL     1      34.491 -20.592 -20.556  0.00  0.00    +0.041 C 
ATOM     11  C   UNL     1      34.834 -21.597 -19.668  0.00  0.00    +0.062 C 
ATOM     12  C   UNL     1      36.017 -21.468 -18.971  0.00  0.00    +0.244 C 
ENDROOT
BRANCH   1  13
ATOM     13  C   UNL     1      33.950 -15.385 -24.353  0.00  0.00    +0.048 C 
ATOM     14  C   UNL     1      34.029 -14.020 -23.988  0.00  0.00    +0.010 C 
ATOM     15  C   UNL     1      33.508 -15.681 -25.663  0.00  0.00    +0.014 C 
ATOM     16  C   UNL     1      33.686 -13.009 -24.886  0.00  0.00    -0.021 C 
ATOM     17  C   UNL     1      33.165 -14.670 -26.560  0.00  0.00    +0.001 C 
ATOM     18  C   UNL     1      33.254 -13.334 -26.171  0.00  0.00    -0.004 C 
ATOM     19  C   UNL     1      33.780 -11.580 -24.470  0.00  0.00    +0.031 C 
ENDBRANCH   1  13
BRANCH  12  20
ATOM     20  O   UNL     1      36.393 -22.439 -18.083  0.00  0.00    -0.455 OA
ATOM     21  C   UNL     1      37.061 -22.008 -16.903  0.00  0.00    +0.254 C 
ENDBRANCH  12  20
TORSDOF 2
ENDMDL
MODEL 3
REMARK VINA RESULT:      -9.5      0.923      1.571
REMARK  Name = 127504
REMARK  2 active torsions:
REMARK  status: ('A' for Active; 'I' for Inactive)
REMARK    1  A    between atoms: N_1  and  C_13
REMARK    2  A    between atoms: C_12  and  O_20
REMARK                            x       y       z     vdW  Elec       q    Type
REMARK                         _______ _______ _______ _____ _____    ______ ____
ROOT
ATOM      1  N   UNL     1      32.633  -9.855 -22.782  0.00  0.00    -0.304 N 
ATOM      2  N   UNL     1      33.142 -12.498 -23.800  0.00  0.00    -0.288 N 
ATOM      3  N   UNL     1      33.801 -14.781 -23.456  0.00  0.00    -0.130 NA
ATOM      4  N   UNL     1      34.043 -16.030 -23.938  0.00  0.00    -0.109 NA
ATOM      5  C   UNL     1      31.861 -11.004 -22.312  0.00  0.00    +0.112 C 
ATOM      6  C   UNL     1      33.671 -10.088 -23.785  0.00  0.00    +0.112 C 
ATOM      7  C   UNL     1      32.676 -12.296 -22.429  0.00  0.00    +0.114 C 
ATOM      8  C   UNL     1      33.342 -11.316 -24.639  0.00  0.00    +0.114 C 
ATOM      9  C   UNL     1      33.389 -13.777 -24.293  0.00  0.00    +0.154 C 
ATOM     10  C   UNL     1      33.213 -14.034 -25.658  0.00  0.00    +0.041 C 
ATOM     11  C   UNL     1      33.459 -15.304 -26.148  0.00  0.00    +0.062 C 
ATOM     12  C   UNL     1      33.871 -16.272 -25.255  0.00  0.00    +0.244 C 
ENDROOT
BRANCH   1  13
ATOM     13  C   UNL     1      32.387  -8.576 -22.289  0.00  0.00    +0.048 C 
ATOM     14  C   UNL     1      32.029  -7.510 -23.148  0.00  0.00    +0.010 C 
ATOM     15  C   UNL     1      32.487  -8.288 -20.908  0.00  0.00    +0.014 C 
ATOM     16  C   UNL     1      31.783  -6.229 -22.653  0.00  0.00    -0.021 C 
ATOM     17  C   UNL     1      32.240  -7.008 -20.412  0.00  0.00    +0.001 C 
ATOM     18  C   UNL     1      31.889  -5.978 -21.285  0.00  0.00    -0.004 C 
ATOM     19  C   UNL     1      31.408  -5.128 -23.586  0.00  0.00    +0.031 C 
ENDBRANCH   1  13
BRANCH  12  20
ATOM     20  O   UNL     1      34.126 -17.541 -25.698  0.00  0.00    -0.455 OA
ATOM     21  C   UNL     1      34.504 -18.500 -24.718  0.00  0.00    +0.254 C 
ENDBRANCH  12  20
TORSDOF 2
ENDMDL
MODEL 4
REMARK VINA RESULT:      -9.5      2.862      8.708
REMARK  Name = 127504
REMARK  2 active torsions:
REMARK  status: ('A' for Active; 'I' for Inactive)
REMARK    1  A    between atoms: N_1  and  C_13
REMARK    2  A    between atoms: C_12  and  O_20
REMARK                            x       y       z     vdW  Elec       q    Type
REMARK                         _______ _______ _______ _____ _____    ______ ____
ROOT
ATOM      1  N   UNL     1      33.834 -15.009 -23.547  0.00  0.00    -0.304 N 
ATOM      2  N   UNL     1      33.091 -12.242 -23.273  0.00  0.00    -0.288 N 
ATOM      3  N   UNL     1      31.603 -10.546 -22.449  0.00  0.00    -0.130 NA
ATOM      4  N   UNL     1      31.253  -9.239 -22.321  0.00  0.00    -0.109 NA
ATOM      5  C   UNL     1      33.752 -14.377 -22.230  0.00  0.00    +0.112 C 
ATOM      6  C   UNL     1      33.527 -14.193 -24.720  0.00  0.00    +0.112 C 
ATOM      7  C   UNL     1      32.750 -13.218 -22.240  0.00  0.00    +0.114 C 
ATOM      8  C   UNL     1      33.820 -12.714 -24.451  0.00  0.00    +0.114 C 
ATOM      9  C   UNL     1      32.731 -10.903 -23.142  0.00  0.00    +0.154 C 
ATOM     10  C   UNL     1      33.534  -9.915 -23.726  0.00  0.00    +0.041 C 
ATOM     11  C   UNL     1      33.175  -8.584 -23.596  0.00  0.00    +0.062 C 
ATOM     12  C   UNL     1      32.030  -8.290 -22.886  0.00  0.00    +0.244 C 
ENDROOT
BRANCH   1  13
ATOM     13  C   UNL     1      34.192 -16.348 -23.679  0.00  0.00    +0.048 C 
ATOM     14  C   UNL     1      34.575 -17.123 -22.559  0.00  0.00    +0.010 C 
ATOM     15  C   UNL     1      34.190 -16.989 -24.940  0.00  0.00    +0.014 C 
ATOM     16  C   UNL     1      34.933 -18.465 -22.692  0.00  0.00    -0.021 C 
ATOM     17  C   UNL     1      34.548 -18.331 -25.073  0.00  0.00    +0.001 C 
ATOM     18  C   UNL     1      34.920 -19.068 -23.949  0.00  0.00    -0.004 C 
ATOM     19  C   UNL     1      35.331 -19.253 -21.491  0.00  0.00    +0.031 C 
ENDBRANCH   1  13
BRANCH  12  20
ATOM     20  O   UNL     1      31.640  -6.987 -22.733  0.00  0.00    -0.455 OA
ATOM     21  C   UNL     1      32.034  -6.335 -21.532  0.00  0.00    +0.254 C 
ENDBRANCH  12  20
TORSDOF 2
ENDMDL
MODEL 5
REMARK VINA RESULT:      -9.5      3.483      8.930
REMARK  Name = 127504
REMARK  2 active torsions:
REMARK  status: ('A' for Active; 'I' for Inactive)
REMARK    1  A    between atoms: N_1  and  C_13
REMARK    2  A    between atoms: C_12  and  O_20
REMARK                            x       y       z     vdW  Elec       q    Type
REMARK                         _______ _______ _______ _____ _____    ______ ____
ROOT
ATOM      1  N   UNL     1      34.238 -16.391 -21.714  0.00  0.00    -0.304 N 
ATOM      2  N   UNL     1      33.458 -13.722 -22.456  0.00  0.00    -0.288 N 
ATOM      3  N   UNL     1      31.984 -11.837 -22.245  0.00  0.00    -0.130 NA
ATOM      4  N   UNL     1      31.616 -10.577 -22.598  0.00  0.00    -0.109 NA
ATOM      5  C   UNL     1      34.213 -15.311 -20.727  0.00  0.00    +0.112 C 
ATOM      6  C   UNL     1      33.854 -16.074 -23.088  0.00  0.00    +0.112 C 
ATOM      7  C   UNL     1      33.191 -14.238 -21.115  0.00  0.00    +0.114 C 
ATOM      8  C   UNL     1      34.133 -14.603 -23.410  0.00  0.00    +0.114 C 
ATOM      9  C   UNL     1      33.081 -12.431 -22.816  0.00  0.00    +0.154 C 
ATOM     10  C   UNL     1      33.832 -11.736 -23.772  0.00  0.00    +0.041 C 
ATOM     11  C   UNL     1      33.456 -10.453 -24.130  0.00  0.00    +0.062 C 
ATOM     12  C   UNL     1      32.344  -9.911 -23.519  0.00  0.00    +0.244 C 
ENDROOT
BRANCH   1  13
ATOM     13  C   UNL     1      34.614 -17.683 -21.354  0.00  0.00    +0.048 C 
ATOM     14  C   UNL     1      33.656 -18.647 -20.961  0.00  0.00    +0.010 C 
ATOM     15  C   UNL     1      35.970 -18.084 -21.365  0.00  0.00    +0.014 C 
ATOM     16  C   UNL     1      34.034 -19.941 -20.602  0.00  0.00    -0.021 C 
ATOM     17  C   UNL     1      36.348 -19.377 -21.006  0.00  0.00    +0.001 C 
ATOM     18  C   UNL     1      35.380 -20.306 -20.624  0.00  0.00    -0.004 C 
ATOM     19  C   UNL     1      32.999 -20.933 -20.193  0.00  0.00    +0.031 C 
ENDBRANCH   1  13
BRANCH  12  20
ATOM     20  O   UNL     1      31.938  -8.646 -23.845  0.00  0.00    -0.455 OA
ATOM     21  C   UNL     1      31.490  -7.820 -22.777  0.00  0.00    +0.254 C 
ENDBRANCH  12  20
TORSDOF 2
ENDMDL
MODEL 6
REMARK VINA RESULT:      -9.5      3.464      8.874
REMARK  Name = 127504
REMARK  2 active torsions:
REMARK  status: ('A' for Active; 'I' for Inactive)
REMARK    1  A    between atoms: N_1  and  C_13
REMARK    2  A    between atoms: C_12  and  O_20
REMARK                            x       y       z     vdW  Elec       q    Type
REMARK                         _______ _______ _______ _____ _____    ______ ____
ROOT
ATOM      1  N   UNL     1      34.206 -16.376 -21.699  0.00  0.00    -0.304 N 
ATOM      2  N   UNL     1      33.399 -13.708 -22.412  0.00  0.00    -0.288 N 
ATOM      3  N   UNL     1      33.726 -11.689 -23.672  0.00  0.00    -0.130 NA
ATOM      4  N   UNL     1      33.345 -10.427 -24.007  0.00  0.00    -0.109 NA
ATOM      5  C   UNL     1      33.831 -16.044 -23.073  0.00  0.00    +0.112 C 
ATOM      6  C   UNL     1      34.158 -15.312 -20.698  0.00  0.00    +0.112 C 
ATOM      7  C   UNL     1      34.094 -14.565 -23.371  0.00  0.00    +0.114 C 
ATOM      8  C   UNL     1      33.126 -14.247 -21.080  0.00  0.00    +0.114 C 
ATOM      9  C   UNL     1      33.009 -12.416 -22.757  0.00  0.00    +0.154 C 
ATOM     10  C   UNL     1      31.871 -11.858 -22.159  0.00  0.00    +0.041 C 
ATOM     11  C   UNL     1      31.484 -10.575 -22.501  0.00  0.00    +0.062 C 
ATOM     12  C   UNL     1      32.247  -9.895 -23.428  0.00  0.00    +0.244 C 
ENDROOT
BRANCH   1  13
ATOM     13  C   UNL     1      34.597 -17.668 -21.355  0.00  0.00    +0.048 C 
ATOM     14  C   UNL     1      33.653 -18.641 -20.951  0.00  0.00    +0.010 C 
ATOM     15  C   UNL     1      35.956 -18.059 -21.392  0.00  0.00    +0.014 C 
ATOM     16  C   UNL     1      34.047 -19.934 -20.606  0.00  0.00    -0.021 C 
ATOM     17  C   UNL     1      36.349 -19.352 -21.047  0.00  0.00    +0.001 C 
ATOM     18  C   UNL     1      35.394 -20.290 -20.654  0.00  0.00    -0.004 C 
ATOM     19  C   UNL     1      33.026 -20.937 -20.185  0.00  0.00    +0.031 C 
ENDBRANCH   1  13
BRANCH  12  20
ATOM     20  O   UNL     1      31.899  -8.623 -23.794  0.00  0.00    -0.455 OA
ATOM     21  C   UNL     1      31.469  -7.751 -22.755  0.00  0.00    +0.254 C 
ENDBRANCH  12  20
TORSDOF 2
ENDMDL
MODEL 7
REMARK VINA RESULT:      -9.4      4.774      9.812
REMARK  Name = 127504
REMARK  2 active torsions:
REMARK  status: ('A' for Active; 'I' for Inactive)
REMARK    1  A    between atoms: N_1  and  C_13
REMARK    2  A    between atoms: C_12  and  O_20
REMARK                            x       y       z     vdW  Elec       q    Type
REMARK                         _______ _______ _______ _____ _____    ______ ____
ROOT
ATOM      1  N   UNL     1      34.952 -19.164 -21.370  0.00  0.00    -0.304 N 
ATOM      2  N   UNL     1      34.313 -17.163 -23.337  0.00  0.00    -0.288 N 
ATOM      3  N   UNL     1      34.257 -16.414 -25.618  0.00  0.00    -0.130 NA
ATOM      4  N   UNL     1      33.956 -15.468 -26.547  0.00  0.00    -0.109 NA
ATOM      5  C   UNL     1      33.986 -19.435 -22.434  0.00  0.00    +0.112 C 
ATOM      6  C   UNL     1      35.584 -17.846 -21.335  0.00  0.00    +0.112 C 
ATOM      7  C   UNL     1      34.284 -18.586 -23.673  0.00  0.00    +0.114 C 
ATOM      8  C   UNL     1      34.677 -16.788 -21.971  0.00  0.00    +0.114 C 
ATOM      9  C   UNL     1      34.005 -16.194 -24.288  0.00  0.00    +0.154 C 
ATOM     10  C   UNL     1      33.430 -14.985 -23.878  0.00  0.00    +0.041 C 
ATOM     11  C   UNL     1      33.125 -14.022 -24.824  0.00  0.00    +0.062 C 
ATOM     12  C   UNL     1      33.403 -14.304 -26.145  0.00  0.00    +0.244 C 
ENDROOT
BRANCH   1  13
ATOM     13  C   UNL     1      35.262 -20.133 -20.418  0.00  0.00    +0.048 C 
ATOM     14  C   UNL     1      34.261 -20.957 -19.852  0.00  0.00    +0.010 C 
ATOM     15  C   UNL     1      36.591 -20.332 -19.977  0.00  0.00    +0.014 C 
ATOM     16  C   UNL     1      34.573 -21.928 -18.900  0.00  0.00    -0.021 C 
ATOM     17  C   UNL     1      36.903 -21.302 -19.025  0.00  0.00    +0.001 C 
ATOM     18  C   UNL     1      35.893 -22.100 -18.486  0.00  0.00    -0.004 C 
ATOM     19  C   UNL     1      33.494 -22.780 -18.323  0.00  0.00    +0.031 C 
ENDBRANCH   1  13
BRANCH  12  20
ATOM     20  O   UNL     1      33.116 -13.379 -27.112  0.00  0.00    -0.455 OA
ATOM     21  C   UNL     1      33.775 -12.121 -27.014  0.00  0.00    +0.254 C 
ENDBRANCH  12  20
TORSDOF 2
ENDMDL
MODEL 8
REMARK VINA RESULT:      -9.4      2.842      8.643
REMARK  Name = 127504
REMARK  2 active torsions:
REMARK  status: ('A' for Active; 'I' for Inactive)
REMARK    1  A    between atoms: N_1  and  C_13
REMARK    2  A    between atoms: C_12  and  O_20
REMARK                            x       y       z     vdW  Elec       q    Type
REMARK                         _______ _______ _______ _____ _____    ______ ____
ROOT
ATOM      1  N   UNL     1      33.861 -15.098 -23.539  0.00  0.00    -0.304 N 
ATOM      2  N   UNL     1      33.130 -12.325 -23.293  0.00  0.00    -0.288 N 
ATOM      3  N   UNL     1      33.507 -10.008 -23.802  0.00  0.00    -0.130 NA
ATOM      4  N   UNL     1      33.161  -8.698 -23.684  0.00  0.00    -0.109 NA
ATOM      5  C   UNL     1      33.484 -14.311 -24.713  0.00  0.00    +0.112 C 
ATOM      6  C   UNL     1      33.855 -14.433 -22.237  0.00  0.00    +0.112 C 
ATOM      7  C   UNL     1      33.790 -12.825 -24.498  0.00  0.00    +0.114 C 
ATOM      8  C   UNL     1      32.852 -13.276 -22.216  0.00  0.00    +0.114 C 
ATOM      9  C   UNL     1      32.776 -10.983 -23.173  0.00  0.00    +0.154 C 
ATOM     10  C   UNL     1      31.662 -10.632 -22.401  0.00  0.00    +0.041 C 
ATOM     11  C   UNL     1      31.312  -9.298 -22.281  0.00  0.00    +0.062 C 
ATOM     12  C   UNL     1      32.087  -8.365 -22.939  0.00  0.00    +0.244 C 
ENDROOT
BRANCH   1  13
ATOM     13  C   UNL     1      34.215 -16.439 -23.659  0.00  0.00    +0.048 C 
ATOM     14  C   UNL     1      34.568 -17.212 -22.527  0.00  0.00    +0.010 C 
ATOM     15  C   UNL     1      34.240 -17.085 -24.917  0.00  0.00    +0.014 C 
ATOM     16  C   UNL     1      34.923 -18.555 -22.647  0.00  0.00    -0.021 C 
ATOM     17  C   UNL     1      34.595 -18.428 -25.037  0.00  0.00    +0.001 C 
ATOM     18  C   UNL     1      34.936 -19.163 -23.902  0.00  0.00    -0.004 C 
ATOM     19  C   UNL     1      35.289 -19.341 -21.434  0.00  0.00    +0.031 C 
ENDBRANCH   1  13
BRANCH  12  20
ATOM     20  O   UNL     1      31.775  -7.036 -22.847  0.00  0.00    -0.455 OA
ATOM     21  C   UNL     1      32.116  -6.379 -21.632  0.00  0.00    +0.254 C 
ENDBRANCH  12  20
TORSDOF 2
ENDMDL
MODEL 9
REMARK VINA RESULT:      -9.2      3.073      8.515
REMARK  Name = 127504
REMARK  2 active torsions:
REMARK  status: ('A' for Active; 'I' for Inactive)
REMARK    1  A    between atoms: N_1  and  C_13
REMARK    2  A    between atoms: C_12  and  O_20
REMARK                            x       y       z     vdW  Elec       q    Type
REMARK                         _______ _______ _______ _____ _____    ______ ____
ROOT
ATOM      1  N   UNL     1      33.781 -13.927 -23.859  0.00  0.00    -0.304 N 
ATOM      2  N   UNL     1      33.112 -11.144 -23.559  0.00  0.00    -0.288 N 
ATOM      3  N   UNL     1      33.705  -8.821 -23.705  0.00  0.00    -0.130 NA
ATOM      4  N   UNL     1      33.388  -7.507 -23.562  0.00  0.00    -0.109 NA
ATOM      5  C   UNL     1      33.793 -13.021 -25.007  0.00  0.00    +0.112 C 
ATOM      6  C   UNL     1      33.419 -13.376 -22.554  0.00  0.00    +0.112 C 
ATOM      7  C   UNL     1      34.076 -11.582 -24.566  0.00  0.00    +0.114 C 
ATOM      8  C   UNL     1      32.497 -12.163 -22.708  0.00  0.00    +0.114 C 
ATOM      9  C   UNL     1      32.787  -9.797 -23.413  0.00  0.00    +0.154 C 
ATOM     10  C   UNL     1      31.510  -9.442 -22.963  0.00  0.00    +0.041 C 
ATOM     11  C   UNL     1      31.189  -8.104 -22.818  0.00  0.00    +0.062 C 
ATOM     12  C   UNL     1      32.155  -7.170 -23.128  0.00  0.00    +0.244 C 
ENDROOT
BRANCH   1  13
ATOM     13  C   UNL     1      34.106 -15.273 -24.004  0.00  0.00    +0.048 C 
ATOM     14  C   UNL     1      34.698 -16.006 -22.949  0.00  0.00    +0.010 C 
ATOM     15  C   UNL     1      33.858 -15.964 -25.213  0.00  0.00    +0.014 C 
ATOM     16  C   UNL     1      35.023 -17.355 -23.095  0.00  0.00    -0.021 C 
ATOM     17  C   UNL     1      34.183 -17.313 -25.359  0.00  0.00    +0.001 C 
ATOM     18  C   UNL     1      34.766 -18.008 -24.300  0.00  0.00    -0.004 C 
ATOM     19  C   UNL     1      35.647 -18.098 -21.962  0.00  0.00    +0.031 C 
ENDBRANCH   1  13
BRANCH  12  20
ATOM     20  O   UNL     1      31.879  -5.836 -22.998  0.00  0.00    -0.455 OA
ATOM     21  C   UNL     1      30.723  -5.490 -22.243  0.00  0.00    +0.254 C 
ENDBRANCH  12  20
TORSDOF 2
ENDMDL
