MODEL 1
REMARK VINA RESULT:      -9.7      0.000      0.000
REMARK  Name = 83435
REMARK  5 active torsions:
REMARK  status: ('A' for Active; 'I' for Inactive)
REMARK    1  A    between atoms: N_3  and  C_14
REMARK    2  A    between atoms: C_14  and  C_15
REMARK    3  A    between atoms: C_15  and  O_16
REMARK    4  A    between atoms: O_16  and  C_18
REMARK    5  A    between atoms: C_18  and  C_20
REMARK                            x       y       z     vdW  Elec       q    Type
REMARK                         _______ _______ _______ _____ _____    ______ ____
ROOT
ATOM      1  O   UNL     1      37.480 -22.430 -15.601  0.00  0.00    -0.272 OA
ATOM      2  O   UNL     1      34.596 -24.389 -12.461  0.00  0.00    -0.252 OA
ATOM      3  N   UNL     1      35.156 -22.546 -17.482  0.00  0.00    -0.236 NA
ATOM      4  N   UNL     1      33.764 -23.947 -14.589  0.00  0.00    -0.228 N 
ATOM      5  N   UNL     1      36.055 -23.410 -14.011  0.00  0.00    -0.211 N 
ATOM      6  N   UNL     1      33.167 -23.369 -16.905  0.00  0.00    -0.240 NA
ATOM      7  C   UNL     1      35.269 -22.941 -16.180  0.00  0.00    +0.192 C 
ATOM      8  C   UNL     1      34.038 -23.441 -15.853  0.00  0.00    +0.136 C 
ATOM      9  C   UNL     1      36.382 -22.882 -15.289  0.00  0.00    +0.254 C 
ATOM     10  C   UNL     1      33.873 -22.824 -17.875  0.00  0.00    +0.203 C 
ATOM     11  C   UNL     1      34.782 -23.950 -13.603  0.00  0.00    +0.318 C 
ATOM     12  C   UNL     1      32.438 -24.470 -14.288  0.00  0.00    +0.123 C 
ATOM     13  C   UNL     1      37.115 -23.406 -13.010  0.00  0.00    +0.124 C 
ENDROOT
BRANCH   3  14
ATOM     14  C   UNL     1      36.176 -21.948 -18.310  0.00  0.00    +0.122 C 
BRANCH  14  15
ATOM     15  C   UNL     1      35.694 -21.689 -19.732  0.00  0.00    +0.226 C 
BRANCH  15  16
ATOM     16  O   UNL     1      35.505 -20.293 -19.926  0.00  0.00    -0.444 OA
BRANCH  16  18
ATOM     17  O   UNL     1      33.245 -20.380 -20.360  0.00  0.00    -0.245 OA
ATOM     18  C   UNL     1      34.361 -19.929 -20.569  0.00  0.00    +0.343 C 
BRANCH  18  20
ATOM     19  N   UNL     1      34.980 -16.577 -22.097  0.00  0.00    -0.242 NA
ATOM     20  C   UNL     1      34.640 -18.888 -21.590  0.00  0.00    +0.095 C 
ATOM     21  C   UNL     1      34.809 -19.248 -22.906  0.00  0.00    +0.010 C 
ATOM     22  C   UNL     1      34.729 -17.573 -21.218  0.00  0.00    +0.105 C 
ATOM     23  C   UNL     1      35.071 -18.251 -23.839  0.00  0.00    +0.021 C 
ATOM     24  C   UNL     1      35.145 -16.943 -23.388  0.00  0.00    +0.099 C 
ENDBRANCH  18  20
ENDBRANCH  16  18
ENDBRANCH  15  16
ENDBRANCH  14  15
ENDBRANCH   3  14
TORSDOF 5
ENDMDL
MODEL 2
REMARK VINA RESULT:      -9.5      2.178      3.271
REMARK  Name = 83435
REMARK  5 active torsions:
REMARK  status: ('A' for Active; 'I' for Inactive)
REMARK    1  A    between atoms: N_3  and  C_14
REMARK    2  A    between atoms: C_14  and  C_15
REMARK    3  A    between atoms: C_15  and  O_16
REMARK    4  A    between atoms: O_16  and  C_18
REMARK    5  A    between atoms: C_18  and  C_20
REMARK                            x       y       z     vdW  Elec       q    Type
REMARK                         _______ _______ _______ _____ _____    ______ ____
ROOT
ATOM      1  O   UNL     1      37.240 -23.957 -15.834  0.00  0.00    -0.272 OA
ATOM      2  O   UNL     1      37.983 -25.040 -11.331  0.00  0.00    -0.252 OA
ATOM      3  N   UNL     1      34.380 -23.581 -15.045  0.00  0.00    -0.236 NA
ATOM      4  N   UNL     1      35.818 -24.493 -11.984  0.00  0.00    -0.228 N 
ATOM      5  N   UNL     1      37.637 -24.502 -13.584  0.00  0.00    -0.211 N 
ATOM      6  N   UNL     1      33.645 -23.877 -12.961  0.00  0.00    -0.240 NA
ATOM      7  C   UNL     1      35.468 -23.941 -14.304  0.00  0.00    +0.192 C 
ATOM      8  C   UNL     1      34.991 -24.117 -13.034  0.00  0.00    +0.136 C 
ATOM      9  C   UNL     1      36.830 -24.118 -14.688  0.00  0.00    +0.254 C 
ATOM     10  C   UNL     1      33.306 -23.555 -14.193  0.00  0.00    +0.203 C 
ATOM     11  C   UNL     1      37.199 -24.704 -12.226  0.00  0.00    +0.318 C 
ATOM     12  C   UNL     1      35.263 -24.668 -10.648  0.00  0.00    +0.123 C 
ATOM     13  C   UNL     1      39.055 -24.716 -13.852  0.00  0.00    +0.124 C 
ENDROOT
BRANCH   3  14
ATOM     14  C   UNL     1      34.338 -23.278 -16.456  0.00  0.00    +0.122 C 
BRANCH  14  15
ATOM     15  C   UNL     1      32.921 -23.302 -17.015  0.00  0.00    +0.226 C 
BRANCH  15  16
ATOM     16  O   UNL     1      32.819 -22.387 -18.098  0.00  0.00    -0.444 OA
BRANCH  16  18
ATOM     17  O   UNL     1      33.930 -23.746 -19.589  0.00  0.00    -0.245 OA
ATOM     18  C   UNL     1      33.617 -22.641 -19.173  0.00  0.00    +0.343 C 
BRANCH  18  20
ATOM     19  N   UNL     1      35.900 -19.925 -20.341  0.00  0.00    -0.242 NA
ATOM     20  C   UNL     1      34.080 -21.376 -19.795  0.00  0.00    +0.095 C 
ATOM     21  C   UNL     1      33.169 -20.524 -20.373  0.00  0.00    +0.010 C 
ATOM     22  C   UNL     1      35.413 -21.061 -19.792  0.00  0.00    +0.105 C 
ATOM     23  C   UNL     1      33.632 -19.346 -20.949  0.00  0.00    +0.021 C 
ATOM     24  C   UNL     1      34.995 -19.095 -20.907  0.00  0.00    +0.099 C 
ENDBRANCH  18  20
ENDBRANCH  16  18
ENDBRANCH  15  16
ENDBRANCH  14  15
ENDBRANCH   3  14
TORSDOF 5
ENDMDL
MODEL 3
REMARK VINA RESULT:      -9.5      3.651      9.570
REMARK  Name = 83435
REMARK  5 active torsions:
REMARK  status: ('A' for Active; 'I' for Inactive)
REMARK    1  A    between atoms: N_3  and  C_14
REMARK    2  A    between atoms: C_14  and  C_15
REMARK    3  A    between atoms: C_15  and  O_16
REMARK    4  A    between atoms: O_16  and  C_18
REMARK    5  A    between atoms: C_18  and  C_20
REMARK                            x       y       z     vdW  Elec       q    Type
REMARK                         _______ _______ _______ _____ _____    ______ ____
ROOT
ATOM      1  O   UNL     1      34.585 -16.332 -21.242  0.00  0.00    -0.272 OA
ATOM      2  O   UNL     1      32.167 -12.837 -23.229  0.00  0.00    -0.252 OA
ATOM      3  N   UNL     1      35.011 -17.330 -24.029  0.00  0.00    -0.236 NA
ATOM      4  N   UNL     1      33.104 -14.452 -24.618  0.00  0.00    -0.228 N 
ATOM      5  N   UNL     1      33.370 -14.572 -22.213  0.00  0.00    -0.211 N 
ATOM      6  N   UNL     1      34.201 -16.293 -25.828  0.00  0.00    -0.240 NA
ATOM      7  C   UNL     1      34.340 -16.234 -23.568  0.00  0.00    +0.192 C 
ATOM      8  C   UNL     1      33.853 -15.619 -24.689  0.00  0.00    +0.136 C 
ATOM      9  C   UNL     1      34.141 -15.765 -22.235  0.00  0.00    +0.254 C 
ATOM     10  C   UNL     1      34.900 -17.322 -25.395  0.00  0.00    +0.203 C 
ATOM     11  C   UNL     1      32.830 -13.874 -23.353  0.00  0.00    +0.318 C 
ATOM     12  C   UNL     1      32.607 -13.832 -25.840  0.00  0.00    +0.123 C 
ATOM     13  C   UNL     1      33.097 -13.992 -20.903  0.00  0.00    +0.124 C 
ENDROOT
BRANCH   3  14
ATOM     14  C   UNL     1      35.713 -18.322 -23.250  0.00  0.00    +0.122 C 
BRANCH  14  15
ATOM     15  C   UNL     1      34.851 -19.539 -22.943  0.00  0.00    +0.226 C 
BRANCH  15  16
ATOM     16  O   UNL     1      34.378 -19.466 -21.604  0.00  0.00    -0.444 OA
BRANCH  16  18
ATOM     17  O   UNL     1      36.388 -19.395 -20.482  0.00  0.00    -0.245 OA
ATOM     18  C   UNL     1      35.261 -19.840 -20.637  0.00  0.00    +0.343 C 
BRANCH  18  20
ATOM     19  N   UNL     1      32.724 -22.042 -19.003  0.00  0.00    -0.242 NA
ATOM     20  C   UNL     1      34.675 -20.891 -19.768  0.00  0.00    +0.095 C 
ATOM     21  C   UNL     1      35.492 -21.649 -18.963  0.00  0.00    +0.010 C 
ATOM     22  C   UNL     1      33.322 -21.103 -19.771  0.00  0.00    +0.105 C 
ATOM     23  C   UNL     1      34.914 -22.626 -18.160  0.00  0.00    +0.021 C 
ATOM     24  C   UNL     1      33.538 -22.781 -18.216  0.00  0.00    +0.099 C 
ENDBRANCH  18  20
ENDBRANCH  16  18
ENDBRANCH  15  16
ENDBRANCH  14  15
ENDBRANCH   3  14
TORSDOF 5
ENDMDL
MODEL 4
REMARK VINA RESULT:      -9.5      1.166      2.314
REMARK  Name = 83435
REMARK  5 active torsions:
REMARK  status: ('A' for Active; 'I' for Inactive)
REMARK    1  A    between atoms: N_3  and  C_14
REMARK    2  A    between atoms: C_14  and  C_15
REMARK    3  A    between atoms: C_15  and  O_16
REMARK    4  A    between atoms: O_16  and  C_18
REMARK    5  A    between atoms: C_18  and  C_20
REMARK                            x       y       z     vdW  Elec       q    Type
REMARK                         _______ _______ _______ _____ _____    ______ ____
ROOT
ATOM      1  O   UNL     1      32.706 -23.553 -16.699  0.00  0.00    -0.272 OA
ATOM      2  O   UNL     1      34.536 -24.326 -12.449  0.00  0.00    -0.252 OA
ATOM      3  N   UNL     1      35.402 -22.482 -17.425  0.00  0.00    -0.236 NA
ATOM      4  N   UNL     1      35.905 -23.385 -14.078  0.00  0.00    -0.228 N 
ATOM      5  N   UNL     1      33.600 -23.950 -14.563  0.00  0.00    -0.211 N 
ATOM      6  N   UNL     1      37.106 -22.405 -15.989  0.00  0.00    -0.240 NA
ATOM      7  C   UNL     1      34.937 -22.999 -16.251  0.00  0.00    +0.192 C 
ATOM      8  C   UNL     1      35.998 -22.940 -15.390  0.00  0.00    +0.136 C 
ATOM      9  C   UNL     1      33.647 -23.509 -15.913  0.00  0.00    +0.254 C 
ATOM     10  C   UNL     1      36.714 -22.138 -17.218  0.00  0.00    +0.203 C 
ATOM     11  C   UNL     1      34.678 -23.916 -13.607  0.00  0.00    +0.318 C 
ATOM     12  C   UNL     1      37.064 -23.300 -13.198  0.00  0.00    +0.123 C 
ATOM     13  C   UNL     1      32.329 -24.493 -14.096  0.00  0.00    +0.124 C 
ENDROOT
BRANCH   3  14
ATOM     14  C   UNL     1      34.677 -22.316 -18.662  0.00  0.00    +0.122 C 
BRANCH  14  15
ATOM     15  C   UNL     1      35.492 -21.588 -19.723  0.00  0.00    +0.226 C 
BRANCH  15  16
ATOM     16  O   UNL     1      35.068 -20.234 -19.807  0.00  0.00    -0.444 OA
BRANCH  16  18
ATOM     17  O   UNL     1      32.974 -20.514 -20.725  0.00  0.00    -0.245 OA
ATOM     18  C   UNL     1      34.070 -19.975 -20.698  0.00  0.00    +0.343 C 
BRANCH  18  20
ATOM     19  N   UNL     1      34.950 -16.622 -22.091  0.00  0.00    -0.242 NA
ATOM     20  C   UNL     1      34.486 -18.929 -21.665  0.00  0.00    +0.095 C 
ATOM     21  C   UNL     1      34.779 -19.273 -22.963  0.00  0.00    +0.010 C 
ATOM     22  C   UNL     1      34.577 -17.623 -21.261  0.00  0.00    +0.105 C 
ATOM     23  C   UNL     1      35.167 -18.272 -23.846  0.00  0.00    +0.021 C 
ATOM     24  C   UNL     1      35.235 -16.974 -23.365  0.00  0.00    +0.099 C 
ENDBRANCH  18  20
ENDBRANCH  16  18
ENDBRANCH  15  16
ENDBRANCH  14  15
ENDBRANCH   3  14
TORSDOF 5
ENDMDL
MODEL 5
REMARK VINA RESULT:      -9.4      7.277     10.577
REMARK  Name = 83435
REMARK  5 active torsions:
REMARK  status: ('A' for Active; 'I' for Inactive)
REMARK    1  A    between atoms: N_3  and  C_14
REMARK    2  A    between atoms: C_14  and  C_15
REMARK    3  A    between atoms: C_15  and  O_16
REMARK    4  A    between atoms: O_16  and  C_18
REMARK    5  A    between atoms: C_18  and  C_20
REMARK                            x       y       z     vdW  Elec       q    Type
REMARK                         _______ _______ _______ _____ _____    ______ ____
ROOT
ATOM      1  O   UNL     1      33.358 -13.782 -22.326  0.00  0.00    -0.272 OA
ATOM      2  O   UNL     1      35.519 -17.698 -20.911  0.00  0.00    -0.252 OA
ATOM      3  N   UNL     1      33.378 -15.016 -25.050  0.00  0.00    -0.236 NA
ATOM      4  N   UNL     1      34.958 -17.506 -23.161  0.00  0.00    -0.228 N 
ATOM      5  N   UNL     1      34.440 -15.734 -21.593  0.00  0.00    -0.211 N 
ATOM      6  N   UNL     1      34.248 -17.025 -25.468  0.00  0.00    -0.240 NA
ATOM      7  C   UNL     1      33.849 -15.484 -23.858  0.00  0.00    +0.192 C 
ATOM      8  C   UNL     1      34.376 -16.714 -24.141  0.00  0.00    +0.136 C 
ATOM      9  C   UNL     1      33.835 -14.888 -22.561  0.00  0.00    +0.254 C 
ATOM     10  C   UNL     1      33.641 -15.979 -25.990  0.00  0.00    +0.203 C 
ATOM     11  C   UNL     1      35.012 -17.037 -21.825  0.00  0.00    +0.318 C 
ATOM     12  C   UNL     1      35.507 -18.810 -23.512  0.00  0.00    +0.123 C 
ATOM     13  C   UNL     1      34.488 -15.233 -20.224  0.00  0.00    +0.124 C 
ENDROOT
BRANCH   3  14
ATOM     14  C   UNL     1      32.725 -13.754 -25.304  0.00  0.00    +0.122 C 
BRANCH  14  15
ATOM     15  C   UNL     1      33.686 -12.695 -25.829  0.00  0.00    +0.226 C 
BRANCH  15  16
ATOM     16  O   UNL     1      34.179 -11.916 -24.747  0.00  0.00    -0.444 OA
BRANCH  16  18
ATOM     17  O   UNL     1      35.437 -10.454 -26.005  0.00  0.00    -0.245 OA
ATOM     18  C   UNL     1      34.686 -10.695 -25.072  0.00  0.00    +0.343 C 
BRANCH  18  20
ATOM     19  N   UNL     1      32.596  -8.983 -22.493  0.00  0.00    -0.242 NA
ATOM     20  C   UNL     1      34.206  -9.657 -24.125  0.00  0.00    +0.095 C 
ATOM     21  C   UNL     1      34.889  -8.469 -24.008  0.00  0.00    +0.010 C 
ATOM     22  C   UNL     1      33.086  -9.885 -23.372  0.00  0.00    +0.105 C 
ATOM     23  C   UNL     1      34.416  -7.516 -23.112  0.00  0.00    +0.021 C 
ATOM     24  C   UNL     1      33.275  -7.819 -22.385  0.00  0.00    +0.099 C 
ENDBRANCH  18  20
ENDBRANCH  16  18
ENDBRANCH  15  16
ENDBRANCH  14  15
ENDBRANCH   3  14
TORSDOF 5
ENDMDL
MODEL 6
REMARK VINA RESULT:      -9.3      2.628      9.276
REMARK  Name = 83435
REMARK  5 active torsions:
REMARK  status: ('A' for Active; 'I' for Inactive)
REMARK    1  A    between atoms: N_3  and  C_14
REMARK    2  A    between atoms: C_14  and  C_15
REMARK    3  A    between atoms: C_15  and  O_16
REMARK    4  A    between atoms: O_16  and  C_18
REMARK    5  A    between atoms: C_18  and  C_20
REMARK                            x       y       z     vdW  Elec       q    Type
REMARK                         _______ _______ _______ _____ _____    ______ ____
ROOT
ATOM      1  O   UNL     1      34.489 -16.219 -20.482  0.00  0.00    -0.272 OA
ATOM      2  O   UNL     1      32.777 -13.528 -23.923  0.00  0.00    -0.252 OA
ATOM      3  N   UNL     1      35.197 -18.157 -22.647  0.00  0.00    -0.236 NA
ATOM      4  N   UNL     1      33.720 -15.576 -24.498  0.00  0.00    -0.228 N 
ATOM      5  N   UNL     1      33.625 -14.854 -22.188  0.00  0.00    -0.211 N 
ATOM      6  N   UNL     1      34.770 -17.781 -24.803  0.00  0.00    -0.240 NA
ATOM      7  C   UNL     1      34.591 -16.936 -22.709  0.00  0.00    +0.192 C 
ATOM      8  C   UNL     1      34.339 -16.731 -24.038  0.00  0.00    +0.136 C 
ATOM      9  C   UNL     1      34.256 -16.017 -21.670  0.00  0.00    +0.254 C 
ATOM     10  C   UNL     1      35.283 -18.627 -23.933  0.00  0.00    +0.203 C 
ATOM     11  C   UNL     1      33.333 -14.576 -23.572  0.00  0.00    +0.318 C 
ATOM     12  C   UNL     1      33.473 -15.403 -25.924  0.00  0.00    +0.123 C 
ATOM     13  C   UNL     1      33.233 -13.836 -21.219  0.00  0.00    +0.124 C 
ENDROOT
BRANCH   3  14
ATOM     14  C   UNL     1      35.668 -18.846 -21.470  0.00  0.00    +0.122 C 
BRANCH  14  15
ATOM     15  C   UNL     1      34.583 -19.692 -20.816  0.00  0.00    +0.226 C 
BRANCH  15  16
ATOM     16  O   UNL     1      35.136 -20.925 -20.376  0.00  0.00    -0.444 OA
BRANCH  16  18
ATOM     17  O   UNL     1      33.185 -22.004 -19.800  0.00  0.00    -0.245 OA
ATOM     18  C   UNL     1      34.342 -21.684 -19.571  0.00  0.00    +0.343 C 
BRANCH  18  20
ATOM     19  N   UNL     1      35.056 -23.279 -16.270  0.00  0.00    -0.242 NA
ATOM     20  C   UNL     1      35.070 -22.087 -18.342  0.00  0.00    +0.095 C 
ATOM     21  C   UNL     1      36.363 -21.667 -18.143  0.00  0.00    +0.010 C 
ATOM     22  C   UNL     1      34.451 -22.877 -17.410  0.00  0.00    +0.105 C 
ATOM     23  C   UNL     1      37.020 -22.061 -16.983  0.00  0.00    +0.021 C 
ATOM     24  C   UNL     1      36.328 -22.859 -16.085  0.00  0.00    +0.099 C 
ENDBRANCH  18  20
ENDBRANCH  16  18
ENDBRANCH  15  16
ENDBRANCH  14  15
ENDBRANCH   3  14
TORSDOF 5
ENDMDL
MODEL 7
REMARK VINA RESULT:      -9.3      1.538      1.943
REMARK  Name = 83435
REMARK  5 active torsions:
REMARK  status: ('A' for Active; 'I' for Inactive)
REMARK    1  A    between atoms: N_3  and  C_14
REMARK    2  A    between atoms: C_14  and  C_15
REMARK    3  A    between atoms: C_15  and  O_16
REMARK    4  A    between atoms: O_16  and  C_18
REMARK    5  A    between atoms: C_18  and  C_20
REMARK                            x       y       z     vdW  Elec       q    Type
REMARK                         _______ _______ _______ _____ _____    ______ ____
ROOT
ATOM      1  O   UNL     1      37.222 -22.246 -16.979  0.00  0.00    -0.272 OA
ATOM      2  O   UNL     1      33.738 -23.747 -14.219  0.00  0.00    -0.252 OA
ATOM      3  N   UNL     1      35.131 -21.974 -19.101  0.00  0.00    -0.236 NA
ATOM      4  N   UNL     1      33.226 -23.160 -16.411  0.00  0.00    -0.228 N 
ATOM      5  N   UNL     1      35.494 -23.000 -15.578  0.00  0.00    -0.211 N 
ATOM      6  N   UNL     1      32.985 -22.475 -18.763  0.00  0.00    -0.240 NA
ATOM      7  C   UNL     1      35.036 -22.393 -17.805  0.00  0.00    +0.192 C 
ATOM      8  C   UNL     1      33.713 -22.694 -17.625  0.00  0.00    +0.136 C 
ATOM      9  C   UNL     1      36.039 -22.520 -16.798  0.00  0.00    +0.254 C 
ATOM     10  C   UNL     1      33.871 -22.041 -19.636  0.00  0.00    +0.203 C 
ATOM     11  C   UNL     1      34.115 -23.334 -15.322  0.00  0.00    +0.318 C 
ATOM     12  C   UNL     1      31.808 -23.467 -16.268  0.00  0.00    +0.123 C 
ATOM     13  C   UNL     1      36.425 -23.173 -14.468  0.00  0.00    +0.124 C 
ENDROOT
BRANCH   3  14
ATOM     14  C   UNL     1      36.317 -21.540 -19.799  0.00  0.00    +0.122 C 
BRANCH  14  15
ATOM     15  C   UNL     1      36.388 -20.024 -19.940  0.00  0.00    +0.226 C 
BRANCH  15  16
ATOM     16  O   UNL     1      35.835 -19.634 -21.190  0.00  0.00    -0.444 OA
BRANCH  16  18
ATOM     17  O   UNL     1      35.616 -17.464 -20.450  0.00  0.00    -0.245 OA
ATOM     18  C   UNL     1      35.546 -18.310 -21.328  0.00  0.00    +0.343 C 
BRANCH  18  20
ATOM     19  N   UNL     1      34.627 -16.362 -24.381  0.00  0.00    -0.242 NA
ATOM     20  C   UNL     1      35.117 -18.007 -22.717  0.00  0.00    +0.095 C 
ATOM     21  C   UNL     1      34.829 -19.034 -23.584  0.00  0.00    +0.010 C 
ATOM     22  C   UNL     1      35.011 -16.706 -23.131  0.00  0.00    +0.105 C 
ATOM     23  C   UNL     1      34.431 -18.720 -24.879  0.00  0.00    +0.021 C 
ATOM     24  C   UNL     1      34.346 -17.381 -25.224  0.00  0.00    +0.099 C 
ENDBRANCH  18  20
ENDBRANCH  16  18
ENDBRANCH  15  16
ENDBRANCH  14  15
ENDBRANCH   3  14
TORSDOF 5
ENDMDL
MODEL 8
REMARK VINA RESULT:      -9.2      2.260      3.672
REMARK  Name = 83435
REMARK  5 active torsions:
REMARK  status: ('A' for Active; 'I' for Inactive)
REMARK    1  A    between atoms: N_3  and  C_14
REMARK    2  A    between atoms: C_14  and  C_15
REMARK    3  A    between atoms: C_15  and  O_16
REMARK    4  A    between atoms: O_16  and  C_18
REMARK    5  A    between atoms: C_18  and  C_20
REMARK                            x       y       z     vdW  Elec       q    Type
REMARK                         _______ _______ _______ _____ _____    ______ ____
ROOT
ATOM      1  O   UNL     1      33.716 -23.835 -12.595  0.00  0.00    -0.272 OA
ATOM      2  O   UNL     1      38.064 -24.969 -11.244  0.00  0.00    -0.252 OA
ATOM      3  N   UNL     1      34.902 -23.426 -15.310  0.00  0.00    -0.236 NA
ATOM      4  N   UNL     1      37.723 -24.387 -13.471  0.00  0.00    -0.228 N 
ATOM      5  N   UNL     1      35.885 -24.407 -11.894  0.00  0.00    -0.211 N 
ATOM      6  N   UNL     1      37.065 -23.732 -15.750  0.00  0.00    -0.240 NA
ATOM      7  C   UNL     1      35.480 -23.809 -14.135  0.00  0.00    +0.192 C 
ATOM      8  C   UNL     1      36.803 -23.989 -14.432  0.00  0.00    +0.136 C 
ATOM      9  C   UNL     1      34.907 -24.003 -12.842  0.00  0.00    +0.254 C 
ATOM     10  C   UNL     1      35.896 -23.394 -16.253  0.00  0.00    +0.203 C 
ATOM     11  C   UNL     1      37.290 -24.615 -12.141  0.00  0.00    +0.318 C 
ATOM     12  C   UNL     1      39.123 -24.565 -13.836  0.00  0.00    +0.123 C 
ATOM     13  C   UNL     1      35.420 -24.636 -10.531  0.00  0.00    +0.124 C 
ENDROOT
BRANCH   3  14
ATOM     14  C   UNL     1      33.513 -23.108 -15.544  0.00  0.00    +0.122 C 
BRANCH  14  15
ATOM     15  C   UNL     1      33.051 -23.508 -16.939  0.00  0.00    +0.226 C 
BRANCH  15  16
ATOM     16  O   UNL     1      33.155 -22.393 -17.815  0.00  0.00    -0.444 OA
BRANCH  16  18
ATOM     17  O   UNL     1      33.963 -23.737 -19.502  0.00  0.00    -0.245 OA
ATOM     18  C   UNL     1      33.729 -22.637 -19.026  0.00  0.00    +0.343 C 
BRANCH  18  20
ATOM     19  N   UNL     1      35.712 -19.811 -20.454  0.00  0.00    -0.242 NA
ATOM     20  C   UNL     1      34.050 -21.365 -19.722  0.00  0.00    +0.095 C 
ATOM     21  C   UNL     1      33.038 -20.600 -20.251  0.00  0.00    +0.010 C 
ATOM     22  C   UNL     1      35.353 -20.958 -19.834  0.00  0.00    +0.105 C 
ATOM     23  C   UNL     1      33.369 -19.414 -20.898  0.00  0.00    +0.021 C 
ATOM     24  C   UNL     1      34.709 -19.067 -20.971  0.00  0.00    +0.099 C 
ENDBRANCH  18  20
ENDBRANCH  16  18
ENDBRANCH  15  16
ENDBRANCH  14  15
ENDBRANCH   3  14
TORSDOF 5
ENDMDL
MODEL 9
REMARK VINA RESULT:      -9.1      7.960     12.366
REMARK  Name = 83435
REMARK  5 active torsions:
REMARK  status: ('A' for Active; 'I' for Inactive)
REMARK    1  A    between atoms: N_3  and  C_14
REMARK    2  A    between atoms: C_14  and  C_15
REMARK    3  A    between atoms: C_15  and  O_16
REMARK    4  A    between atoms: O_16  and  C_18
REMARK    5  A    between atoms: C_18  and  C_20
REMARK                            x       y       z     vdW  Elec       q    Type
REMARK                         _______ _______ _______ _____ _____    ______ ____
ROOT
ATOM      1  O   UNL     1      34.138 -12.331 -24.496  0.00  0.00    -0.272 OA
ATOM      2  O   UNL     1      34.649  -7.671 -24.306  0.00  0.00    -0.252 OA
ATOM      3  N   UNL     1      32.090 -11.975 -22.345  0.00  0.00    -0.236 NA
ATOM      4  N   UNL     1      33.103  -8.665 -22.878  0.00  0.00    -0.228 N 
ATOM      5  N   UNL     1      34.411  -9.999 -24.420  0.00  0.00    -0.211 N 
ATOM      6  N   UNL     1      31.555  -9.986 -21.495  0.00  0.00    -0.240 NA
ATOM      7  C   UNL     1      32.864 -11.060 -22.998  0.00  0.00    +0.192 C 
ATOM      8  C   UNL     1      32.517  -9.851 -22.458  0.00  0.00    +0.136 C 
ATOM      9  C   UNL     1      33.839 -11.238 -24.024  0.00  0.00    +0.254 C 
ATOM     10  C   UNL     1      31.318 -11.281 -21.450  0.00  0.00    +0.203 C 
ATOM     11  C   UNL     1      34.092  -8.696 -23.893  0.00  0.00    +0.318 C 
ATOM     12  C   UNL     1      32.701  -7.402 -22.272  0.00  0.00    +0.123 C 
ATOM     13  C   UNL     1      35.427 -10.050 -25.466  0.00  0.00    +0.124 C 
ENDROOT
BRANCH   3  14
ATOM     14  C   UNL     1      32.068 -13.405 -22.540  0.00  0.00    +0.122 C 
BRANCH  14  15
ATOM     15  C   UNL     1      32.902 -14.148 -21.503  0.00  0.00    +0.226 C 
BRANCH  15  16
ATOM     16  O   UNL     1      34.154 -14.513 -22.068  0.00  0.00    -0.444 OA
BRANCH  16  18
ATOM     17  O   UNL     1      35.013 -16.098 -20.636  0.00  0.00    -0.245 OA
ATOM     18  C   UNL     1      34.620 -15.749 -21.739  0.00  0.00    +0.343 C 
BRANCH  18  20
ATOM     19  N   UNL     1      34.318 -16.906 -25.278  0.00  0.00    -0.242 NA
ATOM     20  C   UNL     1      34.598 -16.651 -22.918  0.00  0.00    +0.095 C 
ATOM     21  C   UNL     1      34.823 -17.997 -22.754  0.00  0.00    +0.010 C 
ATOM     22  C   UNL     1      34.353 -16.140 -24.164  0.00  0.00    +0.105 C 
ATOM     23  C   UNL     1      34.796 -18.818 -23.877  0.00  0.00    +0.021 C 
ATOM     24  C   UNL     1      34.541 -18.228 -25.105  0.00  0.00    +0.099 C 
ENDBRANCH  18  20
ENDBRANCH  16  18
ENDBRANCH  15  16
ENDBRANCH  14  15
ENDBRANCH   3  14
TORSDOF 5
ENDMDL
