MODEL 1
REMARK VINA RESULT:      -8.3      0.000      0.000
REMARK  Name = 25271554
REMARK  2 active torsions:
REMARK  status: ('A' for Active; 'I' for Inactive)
REMARK    1  A    between atoms: C_2  and  C_6
REMARK    2  A    between atoms: C_2  and  C_12
REMARK                            x       y       z     vdW  Elec       q    Type
REMARK                         _______ _______ _______ _____ _____    ______ ____
ROOT
ATOM      1  O   UNL     1      36.572 -18.987 -20.761  0.00  0.00    -0.283 OA
ATOM      2  C   UNL     1      35.437 -19.068 -21.254  0.00  0.00    +0.231 C 
ENDROOT
BRANCH   2   6
ATOM      3  O   UNL     1      34.931 -20.989 -19.801  0.00  0.00    -0.421 OA
ATOM      4  N   UNL     1      32.672 -21.086 -19.791  0.00  0.00    -0.193 NA
ATOM      5  N   UNL     1      33.989 -22.668 -18.545  0.00  0.00    -0.313 N 
ATOM      6  C   UNL     1      34.461 -19.980 -20.584  0.00  0.00    +0.206 C 
ATOM      7  C   UNL     1      33.089 -20.042 -20.576  0.00  0.00    +0.144 C 
ATOM      8  C   UNL     1      33.800 -21.606 -19.362  0.00  0.00    +0.286 C 
ATOM      9  H   UNL     1      34.902 -22.947 -18.306  0.00  0.00    +0.147 HD
ATOM     10  H   UNL     1      33.215 -23.159 -18.190  0.00  0.00    +0.147 HD
ENDBRANCH   2   6
BRANCH   2  12
ATOM     11 BR   UNL     1      34.146 -14.342 -23.322  0.00  0.00    -0.049 Br
ATOM     12  C   UNL     1      35.096 -18.296 -22.438  0.00  0.00    +0.043 C 
ATOM     13  C   UNL     1      34.832 -16.931 -22.330  0.00  0.00    +0.010 C 
ATOM     14  C   UNL     1      35.033 -18.922 -23.684  0.00  0.00    +0.003 C 
ATOM     15  C   UNL     1      34.504 -16.192 -23.467  0.00  0.00    +0.035 C 
ATOM     16  C   UNL     1      34.706 -18.182 -24.821  0.00  0.00    +0.001 C 
ATOM     17  C   UNL     1      34.441 -16.817 -24.712  0.00  0.00    +0.007 C 
ENDBRANCH   2  12
TORSDOF 2
ENDMDL
MODEL 2
REMARK VINA RESULT:      -8.2      4.093      5.800
REMARK  Name = 25271554
REMARK  2 active torsions:
REMARK  status: ('A' for Active; 'I' for Inactive)
REMARK    1  A    between atoms: C_2  and  C_6
REMARK    2  A    between atoms: C_2  and  C_12
REMARK                            x       y       z     vdW  Elec       q    Type
REMARK                         _______ _______ _______ _____ _____    ______ ____
ROOT
ATOM      1  O   UNL     1      35.961 -18.319 -23.203  0.00  0.00    -0.283 OA
ATOM      2  C   UNL     1      35.259 -18.068 -22.211  0.00  0.00    +0.231 C 
ENDROOT
BRANCH   2   6
ATOM      3  O   UNL     1      34.770 -15.797 -23.027  0.00  0.00    -0.421 OA
ATOM      4  N   UNL     1      34.389 -14.610 -21.141  0.00  0.00    -0.193 NA
ATOM      5  N   UNL     1      34.264 -13.574 -23.309  0.00  0.00    -0.313 N 
ATOM      6  C   UNL     1      34.908 -16.636 -21.964  0.00  0.00    +0.206 C 
ATOM      7  C   UNL     1      34.676 -15.912 -20.821  0.00  0.00    +0.144 C 
ATOM      8  C   UNL     1      34.459 -14.603 -22.453  0.00  0.00    +0.286 C 
ATOM      9  H   UNL     1      34.351 -13.717 -24.279  0.00  0.00    +0.147 HD
ATOM     10  H   UNL     1      34.035 -12.682 -22.962  0.00  0.00    +0.147 HD
ENDBRANCH   2   6
BRANCH   2  12
ATOM     11 BR   UNL     1      36.528 -21.756 -18.597  0.00  0.00    -0.049 Br
ATOM     12  C   UNL     1      34.809 -19.142 -21.341  0.00  0.00    +0.043 C 
ATOM     13  C   UNL     1      35.723 -19.814 -20.530  0.00  0.00    +0.010 C 
ATOM     14  C   UNL     1      33.460 -19.500 -21.317  0.00  0.00    +0.003 C 
ATOM     15  C   UNL     1      35.290 -20.844 -19.695  0.00  0.00    +0.035 C 
ATOM     16  C   UNL     1      33.027 -20.531 -20.481  0.00  0.00    +0.001 C 
ATOM     17  C   UNL     1      33.942 -21.203 -19.671  0.00  0.00    +0.007 C 
ENDBRANCH   2  12
TORSDOF 2
ENDMDL
MODEL 3
REMARK VINA RESULT:      -8.1      4.127      5.851
REMARK  Name = 25271554
REMARK  2 active torsions:
REMARK  status: ('A' for Active; 'I' for Inactive)
REMARK    1  A    between atoms: C_2  and  C_6
REMARK    2  A    between atoms: C_2  and  C_12
REMARK                            x       y       z     vdW  Elec       q    Type
REMARK                         _______ _______ _______ _____ _____    ______ ____
ROOT
ATOM      1  O   UNL     1      34.830 -15.887 -21.449  0.00  0.00    -0.283 OA
ATOM      2  C   UNL     1      34.875 -16.935 -22.112  0.00  0.00    +0.231 C 
ENDROOT
BRANCH   2   6
ATOM      3  O   UNL     1      33.910 -15.757 -24.046  0.00  0.00    -0.421 OA
ATOM      4  N   UNL     1      34.413 -17.088 -25.803  0.00  0.00    -0.193 NA
ATOM      5  N   UNL     1      33.190 -15.038 -26.106  0.00  0.00    -0.313 N 
ATOM      6  C   UNL     1      34.599 -16.833 -23.577  0.00  0.00    +0.206 C 
ATOM      7  C   UNL     1      34.903 -17.640 -24.646  0.00  0.00    +0.144 C 
ATOM      8  C   UNL     1      33.839 -15.982 -25.386  0.00  0.00    +0.286 C 
ATOM      9  H   UNL     1      32.806 -14.253 -25.654  0.00  0.00    +0.147 HD
ATOM     10  H   UNL     1      33.103 -15.137 -27.081  0.00  0.00    +0.147 HD
ENDBRANCH   2   6
BRANCH   2  12
ATOM     11 BR   UNL     1      33.064 -21.320 -19.711  0.00  0.00    -0.049 Br
ATOM     12  C   UNL     1      35.186 -18.199 -21.464  0.00  0.00    +0.043 C 
ATOM     13  C   UNL     1      34.157 -19.010 -20.984  0.00  0.00    +0.010 C 
ATOM     14  C   UNL     1      36.515 -18.601 -21.322  0.00  0.00    +0.003 C 
ATOM     15  C   UNL     1      34.457 -20.222 -20.362  0.00  0.00    +0.035 C 
ATOM     16  C   UNL     1      36.814 -19.814 -20.700  0.00  0.00    +0.001 C 
ATOM     17  C   UNL     1      35.784 -20.624 -20.220  0.00  0.00    +0.007 C 
ENDBRANCH   2  12
TORSDOF 2
ENDMDL
MODEL 4
REMARK VINA RESULT:      -8.0      4.717      6.141
REMARK  Name = 25271554
REMARK  2 active torsions:
REMARK  status: ('A' for Active; 'I' for Inactive)
REMARK    1  A    between atoms: C_2  and  C_6
REMARK    2  A    between atoms: C_2  and  C_12
REMARK                            x       y       z     vdW  Elec       q    Type
REMARK                         _______ _______ _______ _____ _____    ______ ____
ROOT
ATOM      1  O   UNL     1      34.998 -15.012 -20.181  0.00  0.00    -0.283 OA
ATOM      2  C   UNL     1      34.477 -15.361 -21.252  0.00  0.00    +0.231 C 
ENDROOT
BRANCH   2   6
ATOM      3  O   UNL     1      32.690 -13.683 -21.479  0.00  0.00    -0.421 OA
ATOM      4  N   UNL     1      32.996 -12.836 -23.553  0.00  0.00    -0.193 NA
ATOM      5  N   UNL     1      31.217 -12.047 -22.138  0.00  0.00    -0.313 N 
ATOM      6  C   UNL     1      33.759 -14.312 -22.039  0.00  0.00    +0.206 C 
ATOM      7  C   UNL     1      33.942 -13.796 -23.298  0.00  0.00    +0.144 C 
ATOM      8  C   UNL     1      32.288 -12.814 -22.446  0.00  0.00    +0.286 C 
ATOM      9  H   UNL     1      30.782 -12.139 -21.260  0.00  0.00    +0.147 HD
ATOM     10  H   UNL     1      30.875 -11.396 -22.791  0.00  0.00    +0.147 HD
ENDBRANCH   2   6
BRANCH   2  12
ATOM     11 BR   UNL     1      33.198 -20.456 -20.431  0.00  0.00    -0.049 Br
ATOM     12  C   UNL     1      34.575 -16.740 -21.700  0.00  0.00    +0.043 C 
ATOM     13  C   UNL     1      33.950 -17.756 -20.978  0.00  0.00    +0.010 C 
ATOM     14  C   UNL     1      35.296 -17.047 -22.855  0.00  0.00    +0.003 C 
ATOM     15  C   UNL     1      34.046 -19.079 -21.409  0.00  0.00    +0.035 C 
ATOM     16  C   UNL     1      35.391 -18.371 -23.286  0.00  0.00    +0.001 C 
ATOM     17  C   UNL     1      34.766 -19.387 -22.563  0.00  0.00    +0.007 C 
ENDBRANCH   2  12
TORSDOF 2
ENDMDL
MODEL 5
REMARK VINA RESULT:      -8.0      1.391      1.707
REMARK  Name = 25271554
REMARK  2 active torsions:
REMARK  status: ('A' for Active; 'I' for Inactive)
REMARK    1  A    between atoms: C_2  and  C_6
REMARK    2  A    between atoms: C_2  and  C_12
REMARK                            x       y       z     vdW  Elec       q    Type
REMARK                         _______ _______ _______ _____ _____    ______ ____
ROOT
ATOM      1  O   UNL     1      35.291 -16.731 -20.498  0.00  0.00    -0.283 OA
ATOM      2  C   UNL     1      34.951 -17.587 -21.330  0.00  0.00    +0.231 C 
ENDROOT
BRANCH   2   6
ATOM      3  O   UNL     1      33.616 -19.530 -20.622  0.00  0.00    -0.421 OA
ATOM      4  N   UNL     1      35.161 -21.117 -20.168  0.00  0.00    -0.193 NA
ATOM      5  N   UNL     1      32.810 -21.561 -19.910  0.00  0.00    -0.313 N 
ATOM      6  C   UNL     1      34.848 -19.001 -20.857  0.00  0.00    +0.206 C 
ATOM      7  C   UNL     1      35.783 -19.967 -20.580  0.00  0.00    +0.144 C 
ATOM      8  C   UNL     1      33.887 -20.800 -20.213  0.00  0.00    +0.286 C 
ATOM      9  H   UNL     1      31.904 -21.186 -19.992  0.00  0.00    +0.147 HD
ATOM     10  H   UNL     1      32.933 -22.489 -19.609  0.00  0.00    +0.147 HD
ENDBRANCH   2   6
BRANCH   2  12
ATOM     11 BR   UNL     1      33.223 -13.842 -24.687  0.00  0.00    -0.049 Br
ATOM     12  C   UNL     1      34.671 -17.202 -22.704  0.00  0.00    +0.043 C 
ATOM     13  C   UNL     1      34.171 -15.931 -22.985  0.00  0.00    +0.010 C 
ATOM     14  C   UNL     1      34.903 -18.106 -23.741  0.00  0.00    +0.003 C 
ATOM     15  C   UNL     1      33.902 -15.564 -24.304  0.00  0.00    +0.035 C 
ATOM     16  C   UNL     1      34.635 -17.738 -25.060  0.00  0.00    +0.001 C 
ATOM     17  C   UNL     1      34.134 -16.467 -25.341  0.00  0.00    +0.007 C 
ENDBRANCH   2  12
TORSDOF 2
ENDMDL
MODEL 6
REMARK VINA RESULT:      -8.0      3.447      4.635
REMARK  Name = 25271554
REMARK  2 active torsions:
REMARK  status: ('A' for Active; 'I' for Inactive)
REMARK    1  A    between atoms: C_2  and  C_6
REMARK    2  A    between atoms: C_2  and  C_12
REMARK                            x       y       z     vdW  Elec       q    Type
REMARK                         _______ _______ _______ _____ _____    ______ ____
ROOT
ATOM      1  O   UNL     1      33.980 -23.489 -18.998  0.00  0.00    -0.283 OA
ATOM      2  C   UNL     1      34.576 -22.415 -18.820  0.00  0.00    +0.231 C 
ENDROOT
BRANCH   2   6
ATOM      3  O   UNL     1      35.389 -23.096 -16.599  0.00  0.00    -0.421 OA
ATOM      4  N   UNL     1      37.360 -22.010 -16.382  0.00  0.00    -0.193 NA
ATOM      5  N   UNL     1      36.531 -23.440 -14.634  0.00  0.00    -0.313 N 
ATOM      6  C   UNL     1      35.598 -22.370 -17.731  0.00  0.00    +0.206 C 
ATOM      7  C   UNL     1      36.796 -21.712 -17.596  0.00  0.00    +0.144 C 
ATOM      8  C   UNL     1      36.487 -22.828 -15.840  0.00  0.00    +0.286 C 
ATOM      9  H   UNL     1      35.796 -24.034 -14.357  0.00  0.00    +0.147 HD
ATOM     10  H   UNL     1      37.297 -23.292 -14.035  0.00  0.00    +0.147 HD
ENDBRANCH   2   6
BRANCH   2  12
ATOM     11 BR   UNL     1      36.402 -18.527 -21.954  0.00  0.00    -0.049 Br
ATOM     12  C   UNL     1      34.272 -21.262 -19.652  0.00  0.00    +0.043 C 
ATOM     13  C   UNL     1      35.302 -20.571 -20.291  0.00  0.00    +0.010 C 
ATOM     14  C   UNL     1      32.949 -20.848 -19.811  0.00  0.00    +0.003 C 
ATOM     15  C   UNL     1      35.008 -19.464 -21.088  0.00  0.00    +0.035 C 
ATOM     16  C   UNL     1      32.657 -19.741 -20.610  0.00  0.00    +0.001 C 
ATOM     17  C   UNL     1      33.687 -19.050 -21.248  0.00  0.00    +0.007 C 
ENDBRANCH   2  12
TORSDOF 2
ENDMDL
MODEL 7
REMARK VINA RESULT:      -7.8      3.656      4.985
REMARK  Name = 25271554
REMARK  2 active torsions:
REMARK  status: ('A' for Active; 'I' for Inactive)
REMARK    1  A    between atoms: C_2  and  C_6
REMARK    2  A    between atoms: C_2  and  C_12
REMARK                            x       y       z     vdW  Elec       q    Type
REMARK                         _______ _______ _______ _____ _____    ______ ____
ROOT
ATOM      1  O   UNL     1      33.938 -24.079 -19.455  0.00  0.00    -0.283 OA
ATOM      2  C   UNL     1      33.844 -23.008 -18.836  0.00  0.00    +0.231 C 
ENDROOT
BRANCH   2   6
ATOM      3  O   UNL     1      32.356 -23.102 -16.877  0.00  0.00    -0.421 OA
ATOM      4  N   UNL     1      33.775 -23.205 -15.119  0.00  0.00    -0.193 NA
ATOM      5  N   UNL     1      31.391 -23.205 -14.794  0.00  0.00    -0.313 N 
ATOM      6  C   UNL     1      33.629 -23.086 -17.359  0.00  0.00    +0.206 C 
ATOM      7  C   UNL     1      34.488 -23.149 -16.289  0.00  0.00    +0.144 C 
ATOM      8  C   UNL     1      32.526 -23.174 -15.528  0.00  0.00    +0.286 C 
ATOM      9  H   UNL     1      30.515 -23.175 -15.242  0.00  0.00    +0.147 HD
ATOM     10  H   UNL     1      31.441 -23.259 -13.813  0.00  0.00    +0.147 HD
ENDBRANCH   2   6
BRANCH   2  12
ATOM     11 BR   UNL     1      36.977 -19.277 -20.967  0.00  0.00    -0.049 Br
ATOM     12  C   UNL     1      33.941 -21.742 -19.543  0.00  0.00    +0.043 C 
ATOM     13  C   UNL     1      35.191 -21.212 -19.860  0.00  0.00    +0.010 C 
ATOM     14  C   UNL     1      32.780 -21.056 -19.906  0.00  0.00    +0.003 C 
ATOM     15  C   UNL     1      35.282 -19.996 -20.538  0.00  0.00    +0.035 C 
ATOM     16  C   UNL     1      32.872 -19.841 -20.585  0.00  0.00    +0.001 C 
ATOM     17  C   UNL     1      34.123 -19.311 -20.901  0.00  0.00    +0.007 C 
ENDBRANCH   2  12
TORSDOF 2
ENDMDL
MODEL 8
REMARK VINA RESULT:      -7.8      1.638      2.490
REMARK  Name = 25271554
REMARK  2 active torsions:
REMARK  status: ('A' for Active; 'I' for Inactive)
REMARK    1  A    between atoms: C_2  and  C_6
REMARK    2  A    between atoms: C_2  and  C_12
REMARK                            x       y       z     vdW  Elec       q    Type
REMARK                         _______ _______ _______ _____ _____    ______ ____
ROOT
ATOM      1  O   UNL     1      35.065 -19.045 -23.533  0.00  0.00    -0.283 OA
ATOM      2  C   UNL     1      34.819 -18.638 -22.387  0.00  0.00    +0.231 C 
ENDROOT
BRANCH   2   6
ATOM      3  O   UNL     1      33.535 -20.127 -20.906  0.00  0.00    -0.421 OA
ATOM      4  N   UNL     1      35.117 -21.148 -19.654  0.00  0.00    -0.193 NA
ATOM      5  N   UNL     1      32.781 -21.639 -19.348  0.00  0.00    -0.313 N 
ATOM      6  C   UNL     1      34.751 -19.658 -21.296  0.00  0.00    +0.206 C 
ATOM      7  C   UNL     1      35.709 -20.279 -20.534  0.00  0.00    +0.144 C 
ATOM      8  C   UNL     1      33.837 -21.015 -19.919  0.00  0.00    +0.286 C 
ATOM      9  H   UNL     1      31.867 -21.438 -19.653  0.00  0.00    +0.147 HD
ATOM     10  H   UNL     1      32.928 -22.295 -18.630  0.00  0.00    +0.147 HD
ENDBRANCH   2   6
BRANCH   2  12
ATOM     11 BR   UNL     1      33.484 -13.885 -24.364  0.00  0.00    -0.049 Br
ATOM     12  C   UNL     1      34.608 -17.220 -22.143  0.00  0.00    +0.043 C 
ATOM     13  C   UNL     1      34.216 -16.382 -23.186  0.00  0.00    +0.010 C 
ATOM     14  C   UNL     1      34.797 -16.699 -20.862  0.00  0.00    +0.003 C 
ATOM     15  C   UNL     1      34.014 -15.022 -22.950  0.00  0.00    +0.035 C 
ATOM     16  C   UNL     1      34.595 -15.338 -20.627  0.00  0.00    +0.001 C 
ATOM     17  C   UNL     1      34.203 -14.500 -21.671  0.00  0.00    +0.007 C 
ENDBRANCH   2  12
TORSDOF 2
ENDMDL
MODEL 9
REMARK VINA RESULT:      -7.8      9.469     10.996
REMARK  Name = 25271554
REMARK  2 active torsions:
REMARK  status: ('A' for Active; 'I' for Inactive)
REMARK    1  A    between atoms: C_2  and  C_6
REMARK    2  A    between atoms: C_2  and  C_12
REMARK                            x       y       z     vdW  Elec       q    Type
REMARK                         _______ _______ _______ _____ _____    ______ ____
ROOT
ATOM      1  O   UNL     1      32.860  -7.114 -19.733  0.00  0.00    -0.283 OA
ATOM      2  C   UNL     1      32.677  -7.826 -20.733  0.00  0.00    +0.231 C 
ENDROOT
BRANCH   2   6
ATOM      3  O   UNL     1      31.896 -10.001 -21.580  0.00  0.00    -0.421 OA
ATOM      4  N   UNL     1      31.381 -11.162 -19.709  0.00  0.00    -0.193 NA
ATOM      5  N   UNL     1      31.107 -12.137 -21.892  0.00  0.00    -0.313 N 
ATOM      6  C   UNL     1      32.150  -9.206 -20.505  0.00  0.00    +0.206 C 
ATOM      7  C   UNL     1      31.836  -9.914 -19.371  0.00  0.00    +0.144 C 
ATOM      8  C   UNL     1      31.438 -11.155 -21.022  0.00  0.00    +0.286 C 
ATOM      9  H   UNL     1      31.203 -11.989 -22.860  0.00  0.00    +0.147 HD
ATOM     10  H   UNL     1      30.770 -12.998 -21.556  0.00  0.00    +0.147 HD
ENDBRANCH   2   6
BRANCH   2  12
ATOM     11 BR   UNL     1      31.175  -4.747 -24.799  0.00  0.00    -0.049 Br
ATOM     12  C   UNL     1      32.972  -7.314 -22.061  0.00  0.00    +0.043 C 
ATOM     13  C   UNL     1      32.088  -6.432 -22.682  0.00  0.00    +0.010 C 
ATOM     14  C   UNL     1      34.141  -7.706 -22.715  0.00  0.00    +0.003 C 
ATOM     15  C   UNL     1      32.372  -5.942 -23.957  0.00  0.00    +0.035 C 
ATOM     16  C   UNL     1      34.425  -7.215 -23.990  0.00  0.00    +0.001 C 
ATOM     17  C   UNL     1      33.540  -6.333 -24.611  0.00  0.00    +0.007 C 
ENDBRANCH   2  12
TORSDOF 2
ENDMDL
