MODEL 1
REMARK VINA RESULT:     -10.3      0.000      0.000
REMARK  Name = 2059510
REMARK  7 active torsions:
REMARK  status: ('A' for Active; 'I' for Inactive)
REMARK    1  A    between atoms: C_4  and  C_10
REMARK    2  A    between atoms: C_6  and  C_18
REMARK    3  A    between atoms: C_15  and  O_16
REMARK    4  A    between atoms: C_23  and  O_24
REMARK    5  A    between atoms: N_26  and  C_28
REMARK    6  A    between atoms: C_28  and  C_29
REMARK    7  A    between atoms: C_29  and  O_30
REMARK                            x       y       z     vdW  Elec       q    Type
REMARK                         _______ _______ _______ _____ _____    ______ ____
ROOT
ATOM      1  O   UNL     1      33.376 -24.459 -12.934  0.00  0.00    -0.440 OA
ATOM      2  N   UNL     1      35.262 -25.065 -11.599  0.00  0.00    -0.214 NA
ATOM      3  N   UNL     1      37.400 -24.758 -12.724  0.00  0.00    -0.233 NA
ATOM      4  C   UNL     1      34.421 -23.807 -14.818  0.00  0.00    +0.028 C 
ATOM      5  C   UNL     1      35.406 -24.212 -13.885  0.00  0.00    +0.155 C 
ATOM      6  C   UNL     1      33.207 -23.976 -14.192  0.00  0.00    +0.144 C 
ATOM      7  C   UNL     1      34.718 -24.605 -12.740  0.00  0.00    +0.214 C 
ATOM      8  C   UNL     1      36.795 -24.302 -13.845  0.00  0.00    +0.115 C 
ATOM      9  C   UNL     1      36.606 -25.107 -11.685  0.00  0.00    +0.254 C 
ATOM     10  N   UNL     1      37.579 -23.928 -14.951  0.00  0.00    -0.319 N 
ATOM     11  H   UNL     1      37.124 -23.598 -15.759  0.00  0.00    +0.148 HD
ENDROOT
BRANCH   4  12
ATOM     12  C   UNL     1      34.557 -23.308 -16.157  0.00  0.00    +0.000 C 
ATOM     13  C   UNL     1      35.668 -22.540 -16.506  0.00  0.00    +0.003 C 
ATOM     14  C   UNL     1      33.579 -23.593 -17.111  0.00  0.00    +0.003 C 
ATOM     15  C   UNL     1      35.800 -22.056 -17.808  0.00  0.00    +0.037 C 
ATOM     16  C   UNL     1      33.711 -23.109 -18.413  0.00  0.00    +0.037 C 
ATOM     17  C   UNL     1      34.822 -22.340 -18.761  0.00  0.00    +0.139 C 
BRANCH  17  18
ATOM     18  O   UNL     1      34.952 -21.870 -20.031  0.00  0.00    -0.471 OA
ATOM     19  C   UNL     1      35.759 -20.707 -20.213  0.00  0.00    +0.252 C 
ENDBRANCH  17  18
ENDBRANCH   4  12
BRANCH   6  20
ATOM     20  C   UNL     1      31.837 -23.757 -14.571  0.00  0.00    +0.035 C 
ATOM     21  C   UNL     1      31.342 -22.456 -14.693  0.00  0.00    +0.006 C 
ATOM     22  C   UNL     1      30.995 -24.844 -14.817  0.00  0.00    +0.006 C 
ATOM     23  C   UNL     1      30.014 -22.244 -15.060  0.00  0.00    +0.037 C 
ATOM     24  C   UNL     1      29.666 -24.631 -15.184  0.00  0.00    +0.037 C 
ATOM     25  C   UNL     1      29.176 -23.332 -15.306  0.00  0.00    +0.139 C 
BRANCH  25  26
ATOM     26  O   UNL     1      27.879 -23.124 -15.664  0.00  0.00    -0.471 OA
ATOM     27  C   UNL     1      27.646 -22.459 -16.904  0.00  0.00    +0.252 C 
ENDBRANCH  25  26
ENDBRANCH   6  20
BRANCH  10  28
ATOM     28  C   UNL     1      39.009 -24.005 -14.955  0.00  0.00    +0.120 C 
BRANCH  28  29
ATOM     29  C   UNL     1      39.452 -25.458 -14.947  0.00  0.00    +0.158 C 
BRANCH  29  30
ATOM     30  O   UNL     1      40.284 -25.705 -16.074  0.00  0.00    -0.380 OA
ATOM     31  H   UNL     1      39.820 -25.434 -16.882  0.00  0.00    +0.211 HD
ENDBRANCH  29  30
ENDBRANCH  28  29
ENDBRANCH  10  28
TORSDOF 7
ENDMDL
MODEL 2
REMARK VINA RESULT:      -9.1      1.729      5.658
REMARK  Name = 2059510
REMARK  7 active torsions:
REMARK  status: ('A' for Active; 'I' for Inactive)
REMARK    1  A    between atoms: C_4  and  C_10
REMARK    2  A    between atoms: C_6  and  C_18
REMARK    3  A    between atoms: C_15  and  O_16
REMARK    4  A    between atoms: C_23  and  O_24
REMARK    5  A    between atoms: N_26  and  C_28
REMARK    6  A    between atoms: C_28  and  C_29
REMARK    7  A    between atoms: C_29  and  O_30
REMARK                            x       y       z     vdW  Elec       q    Type
REMARK                         _______ _______ _______ _____ _____    ______ ____
ROOT
ATOM      1  O   UNL     1      37.170 -22.566 -17.204  0.00  0.00    -0.440 OA
ATOM      2  N   UNL     1      38.765 -23.497 -15.689  0.00  0.00    -0.214 NA
ATOM      3  N   UNL     1      37.767 -24.510 -13.712  0.00  0.00    -0.233 NA
ATOM      4  C   UNL     1      35.263 -23.039 -16.106  0.00  0.00    +0.028 C 
ATOM      5  C   UNL     1      36.347 -23.529 -15.338  0.00  0.00    +0.155 C 
ATOM      6  C   UNL     1      35.816 -22.464 -17.227  0.00  0.00    +0.144 C 
ATOM      7  C   UNL     1      37.501 -23.217 -16.051  0.00  0.00    +0.214 C 
ATOM      8  C   UNL     1      36.518 -24.201 -14.130  0.00  0.00    +0.115 C 
ATOM      9  C   UNL     1      38.799 -24.144 -14.507  0.00  0.00    +0.254 C 
ATOM     10  N   UNL     1      35.414 -24.561 -13.337  0.00  0.00    -0.319 N 
ATOM     11  H   UNL     1      34.512 -24.329 -13.655  0.00  0.00    +0.148 HD
ENDROOT
BRANCH   4  12
ATOM     12  C   UNL     1      33.850 -23.084 -15.856  0.00  0.00    +0.000 C 
ATOM     13  C   UNL     1      32.986 -23.587 -16.829  0.00  0.00    +0.003 C 
ATOM     14  C   UNL     1      33.341 -22.626 -14.640  0.00  0.00    +0.003 C 
ATOM     15  C   UNL     1      31.612 -23.631 -16.586  0.00  0.00    +0.037 C 
ATOM     16  C   UNL     1      31.968 -22.670 -14.397  0.00  0.00    +0.037 C 
ATOM     17  C   UNL     1      31.103 -23.172 -15.371  0.00  0.00    +0.139 C 
BRANCH  17  18
ATOM     18  O   UNL     1      29.764 -23.217 -15.133  0.00  0.00    -0.471 OA
ATOM     19  C   UNL     1      28.947 -23.822 -16.135  0.00  0.00    +0.252 C 
ENDBRANCH  17  18
ENDBRANCH   4  12
BRANCH   6  20
ATOM     20  C   UNL     1      35.285 -21.798 -18.386  0.00  0.00    +0.035 C 
ATOM     21  C   UNL     1      33.917 -21.855 -18.662  0.00  0.00    +0.006 C 
ATOM     22  C   UNL     1      36.135 -21.093 -19.241  0.00  0.00    +0.006 C 
ATOM     23  C   UNL     1      33.402 -21.209 -19.787  0.00  0.00    +0.037 C 
ATOM     24  C   UNL     1      35.620 -20.448 -20.365  0.00  0.00    +0.037 C 
ATOM     25  C   UNL     1      34.254 -20.506 -20.638  0.00  0.00    +0.139 C 
BRANCH  25  26
ATOM     26  O   UNL     1      33.751 -19.876 -21.735  0.00  0.00    -0.471 OA
ATOM     27  C   UNL     1      34.690 -19.287 -22.633  0.00  0.00    +0.252 C 
ENDBRANCH  25  26
ENDBRANCH   6  20
BRANCH  10  28
ATOM     28  C   UNL     1      35.542 -25.251 -12.089  0.00  0.00    +0.120 C 
BRANCH  28  29
ATOM     29  C   UNL     1      35.652 -24.250 -10.950  0.00  0.00    +0.158 C 
BRANCH  29  30
ATOM     30  O   UNL     1      35.261 -24.874  -9.733  0.00  0.00    -0.380 OA
ATOM     31  H   UNL     1      35.773 -24.498  -8.999  0.00  0.00    +0.211 HD
ENDBRANCH  29  30
ENDBRANCH  28  29
ENDBRANCH  10  28
TORSDOF 7
ENDMDL
MODEL 3
REMARK VINA RESULT:      -8.3     10.186     13.928
REMARK  Name = 2059510
REMARK  7 active torsions:
REMARK  status: ('A' for Active; 'I' for Inactive)
REMARK    1  A    between atoms: C_4  and  C_10
REMARK    2  A    between atoms: C_6  and  C_18
REMARK    3  A    between atoms: C_15  and  O_16
REMARK    4  A    between atoms: C_23  and  O_24
REMARK    5  A    between atoms: N_26  and  C_28
REMARK    6  A    between atoms: C_28  and  C_29
REMARK    7  A    between atoms: C_29  and  O_30
REMARK                            x       y       z     vdW  Elec       q    Type
REMARK                         _______ _______ _______ _____ _____    ______ ____
ROOT
ATOM      1  O   UNL     1      32.332 -13.250 -19.830  0.00  0.00    -0.440 OA
ATOM      2  N   UNL     1      31.501 -11.176 -18.984  0.00  0.00    -0.214 NA
ATOM      3  N   UNL     1      31.258  -9.449 -20.683  0.00  0.00    -0.233 NA
ATOM      4  C   UNL     1      32.566 -12.720 -22.006  0.00  0.00    +0.028 C 
ATOM      5  C   UNL     1      32.070 -11.582 -21.326  0.00  0.00    +0.155 C 
ATOM      6  C   UNL     1      32.707 -13.704 -21.054  0.00  0.00    +0.144 C 
ATOM      7  C   UNL     1      31.940 -11.953 -19.991  0.00  0.00    +0.214 C 
ATOM      8  C   UNL     1      31.707 -10.278 -21.654  0.00  0.00    +0.115 C 
ATOM      9  C   UNL     1      31.185  -9.943 -19.426  0.00  0.00    +0.254 C 
ATOM     10  N   UNL     1      31.801  -9.808 -22.976  0.00  0.00    -0.319 N 
ATOM     11  H   UNL     1      32.129 -10.424 -23.670  0.00  0.00    +0.148 HD
ENDROOT
BRANCH   4  12
ATOM     12  C   UNL     1      32.885 -12.911 -23.393  0.00  0.00    +0.000 C 
ATOM     13  C   UNL     1      32.434 -14.049 -24.062  0.00  0.00    +0.003 C 
ATOM     14  C   UNL     1      33.645 -11.958 -24.071  0.00  0.00    +0.003 C 
ATOM     15  C   UNL     1      32.743 -14.234 -25.410  0.00  0.00    +0.037 C 
ATOM     16  C   UNL     1      33.954 -12.143 -25.419  0.00  0.00    +0.037 C 
ATOM     17  C   UNL     1      33.504 -13.281 -26.089  0.00  0.00    +0.139 C 
BRANCH  17  18
ATOM     18  O   UNL     1      33.804 -13.461 -27.403  0.00  0.00    -0.471 OA
ATOM     19  C   UNL     1      34.983 -12.823 -27.893  0.00  0.00    +0.252 C 
ENDBRANCH  17  18
ENDBRANCH   4  12
BRANCH   6  20
ATOM     20  C   UNL     1      33.153 -15.071 -21.074  0.00  0.00    +0.035 C 
ATOM     21  C   UNL     1      34.502 -15.366 -21.289  0.00  0.00    +0.006 C 
ATOM     22  C   UNL     1      32.240 -16.110 -20.881  0.00  0.00    +0.006 C 
ATOM     23  C   UNL     1      34.934 -16.692 -21.309  0.00  0.00    +0.037 C 
ATOM     24  C   UNL     1      32.673 -17.436 -20.901  0.00  0.00    +0.037 C 
ATOM     25  C   UNL     1      34.020 -17.727 -21.115  0.00  0.00    +0.139 C 
BRANCH  25  26
ATOM     26  O   UNL     1      34.442 -19.021 -21.134  0.00  0.00    -0.471 OA
ATOM     27  C   UNL     1      33.537 -20.007 -20.642  0.00  0.00    +0.252 C 
ENDBRANCH  25  26
ENDBRANCH   6  20
BRANCH  10  28
ATOM     28  C   UNL     1      31.441  -8.476 -23.358  0.00  0.00    +0.120 C 
BRANCH  28  29
ATOM     29  C   UNL     1      32.670  -7.583 -23.355  0.00  0.00    +0.158 C 
BRANCH  29  30
ATOM     30  O   UNL     1      32.798  -6.959 -22.084  0.00  0.00    -0.380 OA
ATOM     31  H   UNL     1      33.730  -6.969 -21.812  0.00  0.00    +0.211 HD
ENDBRANCH  29  30
ENDBRANCH  28  29
ENDBRANCH  10  28
TORSDOF 7
ENDMDL
MODEL 4
REMARK VINA RESULT:      -7.4      2.735      6.900
REMARK  Name = 2059510
REMARK  7 active torsions:
REMARK  status: ('A' for Active; 'I' for Inactive)
REMARK    1  A    between atoms: C_4  and  C_10
REMARK    2  A    between atoms: C_6  and  C_18
REMARK    3  A    between atoms: C_15  and  O_16
REMARK    4  A    between atoms: C_23  and  O_24
REMARK    5  A    between atoms: N_26  and  C_28
REMARK    6  A    between atoms: C_28  and  C_29
REMARK    7  A    between atoms: C_29  and  O_30
REMARK                            x       y       z     vdW  Elec       q    Type
REMARK                         _______ _______ _______ _____ _____    ______ ____
ROOT
ATOM      1  O   UNL     1      31.929 -22.167 -18.155  0.00  0.00    -0.440 OA
ATOM      2  N   UNL     1      29.822 -22.841 -17.253  0.00  0.00    -0.214 NA
ATOM      3  N   UNL     1      30.003 -24.134 -15.197  0.00  0.00    -0.233 NA
ATOM      4  C   UNL     1      33.316 -23.066 -16.628  0.00  0.00    +0.028 C 
ATOM      5  C   UNL     1      31.986 -23.371 -16.249  0.00  0.00    +0.155 C 
ATOM      6  C   UNL     1      33.226 -22.335 -17.790  0.00  0.00    +0.144 C 
ATOM      7  C   UNL     1      31.166 -22.798 -17.217  0.00  0.00    +0.214 C 
ATOM      8  C   UNL     1      31.354 -24.057 -15.215  0.00  0.00    +0.115 C 
ATOM      9  C   UNL     1      29.331 -23.531 -16.204  0.00  0.00    +0.254 C 
ATOM     10  N   UNL     1      32.096 -24.670 -14.189  0.00  0.00    -0.319 N 
ATOM     11  H   UNL     1      33.077 -24.604 -14.216  0.00  0.00    +0.148 HD
ENDROOT
BRANCH   4  12
ATOM     12  C   UNL     1      34.563 -23.402 -16.000  0.00  0.00    +0.000 C 
ATOM     13  C   UNL     1      35.352 -22.398 -15.436  0.00  0.00    +0.003 C 
ATOM     14  C   UNL     1      34.985 -24.731 -15.952  0.00  0.00    +0.003 C 
ATOM     15  C   UNL     1      36.563 -22.724 -14.825  0.00  0.00    +0.037 C 
ATOM     16  C   UNL     1      36.197 -25.056 -15.341  0.00  0.00    +0.037 C 
ATOM     17  C   UNL     1      36.986 -24.053 -14.778  0.00  0.00    +0.139 C 
BRANCH  17  18
ATOM     18  O   UNL     1      38.167 -24.370 -14.181  0.00  0.00    -0.471 OA
ATOM     19  C   UNL     1      38.299 -25.695 -13.668  0.00  0.00    +0.252 C 
ENDBRANCH  17  18
ENDBRANCH   4  12
BRANCH   6  20
ATOM     20  C   UNL     1      34.181 -21.726 -18.676  0.00  0.00    +0.035 C 
ATOM     21  C   UNL     1      35.547 -21.964 -18.505  0.00  0.00    +0.006 C 
ATOM     22  C   UNL     1      33.748 -20.892 -19.709  0.00  0.00    +0.006 C 
ATOM     23  C   UNL     1      36.474 -21.372 -19.363  0.00  0.00    +0.037 C 
ATOM     24  C   UNL     1      34.675 -20.301 -20.568  0.00  0.00    +0.037 C 
ATOM     25  C   UNL     1      36.038 -20.542 -20.395  0.00  0.00    +0.139 C 
BRANCH  25  26
ATOM     26  O   UNL     1      36.942 -19.965 -21.233  0.00  0.00    -0.471 OA
ATOM     27  C   UNL     1      36.635 -18.660 -21.722  0.00  0.00    +0.252 C 
ENDBRANCH  25  26
ENDBRANCH   6  20
BRANCH  10  28
ATOM     28  C   UNL     1      31.488 -25.385 -13.108  0.00  0.00    +0.120 C 
BRANCH  28  29
ATOM     29  C   UNL     1      30.420 -24.526 -12.451  0.00  0.00    +0.158 C 
BRANCH  29  30
ATOM     30  O   UNL     1      30.901 -23.195 -12.316  0.00  0.00    -0.380 OA
ATOM     31  H   UNL     1      31.061 -22.818 -13.196  0.00  0.00    +0.211 HD
ENDBRANCH  29  30
ENDBRANCH  28  29
ENDBRANCH  10  28
TORSDOF 7
ENDMDL
MODEL 5
REMARK VINA RESULT:      -7.3      2.904      7.020
REMARK  Name = 2059510
REMARK  7 active torsions:
REMARK  status: ('A' for Active; 'I' for Inactive)
REMARK    1  A    between atoms: C_4  and  C_10
REMARK    2  A    between atoms: C_6  and  C_18
REMARK    3  A    between atoms: C_15  and  O_16
REMARK    4  A    between atoms: C_23  and  O_24
REMARK    5  A    between atoms: N_26  and  C_28
REMARK    6  A    between atoms: C_28  and  C_29
REMARK    7  A    between atoms: C_29  and  O_30
REMARK                            x       y       z     vdW  Elec       q    Type
REMARK                         _______ _______ _______ _____ _____    ______ ____
ROOT
ATOM      1  O   UNL     1      36.821 -22.661 -16.854  0.00  0.00    -0.440 OA
ATOM      2  N   UNL     1      37.321 -21.643 -18.956  0.00  0.00    -0.214 NA
ATOM      3  N   UNL     1      35.347 -21.015 -20.238  0.00  0.00    -0.233 NA
ATOM      4  C   UNL     1      34.571 -22.622 -16.924  0.00  0.00    +0.028 C 
ATOM      5  C   UNL     1      35.060 -22.043 -18.120  0.00  0.00    +0.155 C 
ATOM      6  C   UNL     1      35.679 -22.980 -16.191  0.00  0.00    +0.144 C 
ATOM      7  C   UNL     1      36.448 -22.087 -18.034  0.00  0.00    +0.214 C 
ATOM      8  C   UNL     1      34.519 -21.480 -19.274  0.00  0.00    +0.115 C 
ATOM      9  C   UNL     1      36.678 -21.125 -20.022  0.00  0.00    +0.254 C 
ATOM     10  N   UNL     1      33.127 -21.389 -19.454  0.00  0.00    -0.319 N 
ATOM     11  H   UNL     1      32.539 -21.732 -18.744  0.00  0.00    +0.148 HD
ENDROOT
BRANCH   4  12
ATOM     12  C   UNL     1      33.224 -22.835 -16.475  0.00  0.00    +0.000 C 
ATOM     13  C   UNL     1      32.220 -23.129 -17.398  0.00  0.00    +0.003 C 
ATOM     14  C   UNL     1      32.919 -22.749 -15.116  0.00  0.00    +0.003 C 
ATOM     15  C   UNL     1      30.911 -23.337 -16.962  0.00  0.00    +0.037 C 
ATOM     16  C   UNL     1      31.610 -22.957 -14.680  0.00  0.00    +0.037 C 
ATOM     17  C   UNL     1      30.606 -23.251 -15.603  0.00  0.00    +0.139 C 
BRANCH  17  18
ATOM     18  O   UNL     1      29.330 -23.455 -15.178  0.00  0.00    -0.471 OA
ATOM     19  C   UNL     1      28.289 -22.816 -15.917  0.00  0.00    +0.252 C 
ENDBRANCH  17  18
ENDBRANCH   4  12
BRANCH   6  20
ATOM     20  C   UNL     1      35.885 -23.601 -14.910  0.00  0.00    +0.035 C 
ATOM     21  C   UNL     1      35.799 -24.990 -14.782  0.00  0.00    +0.006 C 
ATOM     22  C   UNL     1      36.170 -22.819 -13.789  0.00  0.00    +0.006 C 
ATOM     23  C   UNL     1      35.997 -25.592 -13.539  0.00  0.00    +0.037 C 
ATOM     24  C   UNL     1      36.368 -23.422 -12.546  0.00  0.00    +0.037 C 
ATOM     25  C   UNL     1      36.282 -24.808 -12.422  0.00  0.00    +0.139 C 
BRANCH  25  26
ATOM     26  O   UNL     1      36.476 -25.396 -11.209  0.00  0.00    -0.471 OA
ATOM     27  C   UNL     1      35.776 -24.839 -10.098  0.00  0.00    +0.252 C 
ENDBRANCH  25  26
ENDBRANCH   6  20
BRANCH  10  28
ATOM     28  C   UNL     1      32.528 -20.820 -20.623  0.00  0.00    +0.120 C 
BRANCH  28  29
ATOM     29  C   UNL     1      32.684 -19.309 -20.606  0.00  0.00    +0.158 C 
BRANCH  29  30
ATOM     30  O   UNL     1      33.770 -18.936 -21.446  0.00  0.00    -0.380 OA
ATOM     31  H   UNL     1      33.740 -19.460 -22.263  0.00  0.00    +0.211 HD
ENDBRANCH  29  30
ENDBRANCH  28  29
ENDBRANCH  10  28
TORSDOF 7
ENDMDL
MODEL 6
REMARK VINA RESULT:      -7.3     12.734     16.457
REMARK  Name = 2059510
REMARK  7 active torsions:
REMARK  status: ('A' for Active; 'I' for Inactive)
REMARK    1  A    between atoms: C_4  and  C_10
REMARK    2  A    between atoms: C_6  and  C_18
REMARK    3  A    between atoms: C_15  and  O_16
REMARK    4  A    between atoms: C_23  and  O_24
REMARK    5  A    between atoms: N_26  and  C_28
REMARK    6  A    between atoms: C_28  and  C_29
REMARK    7  A    between atoms: C_29  and  O_30
REMARK                            x       y       z     vdW  Elec       q    Type
REMARK                         _______ _______ _______ _____ _____    ______ ____
ROOT
ATOM      1  O   UNL     1      31.929  -8.301 -21.274  0.00  0.00    -0.440 OA
ATOM      2  N   UNL     1      31.410  -9.447 -19.243  0.00  0.00    -0.214 NA
ATOM      3  N   UNL     1      31.787 -11.851 -19.348  0.00  0.00    -0.233 NA
ATOM      4  C   UNL     1      32.602 -10.035 -22.542  0.00  0.00    +0.028 C 
ATOM      5  C   UNL     1      32.244 -10.534 -21.266  0.00  0.00    +0.155 C 
ATOM      6  C   UNL     1      32.392  -8.676 -22.494  0.00  0.00    +0.144 C 
ATOM      7  C   UNL     1      31.837  -9.434 -20.518  0.00  0.00    +0.214 C 
ATOM      8  C   UNL     1      32.208 -11.773 -20.631  0.00  0.00    +0.115 C 
ATOM      9  C   UNL     1      31.419 -10.698 -18.742  0.00  0.00    +0.254 C 
ATOM     10  N   UNL     1      32.600 -12.946 -21.303  0.00  0.00    -0.319 N 
ATOM     11  H   UNL     1      32.904 -12.873 -22.236  0.00  0.00    +0.148 HD
ENDROOT
BRANCH   4  12
ATOM     12  C   UNL     1      33.091 -10.719 -23.706  0.00  0.00    +0.000 C 
ATOM     13  C   UNL     1      32.431 -11.856 -24.175  0.00  0.00    +0.003 C 
ATOM     14  C   UNL     1      34.224 -10.246 -24.369  0.00  0.00    +0.003 C 
ATOM     15  C   UNL     1      32.906 -12.520 -25.307  0.00  0.00    +0.037 C 
ATOM     16  C   UNL     1      34.699 -10.911 -25.500  0.00  0.00    +0.037 C 
ATOM     17  C   UNL     1      34.040 -12.048 -25.969  0.00  0.00    +0.139 C 
BRANCH  17  18
ATOM     18  O   UNL     1      34.501 -12.695 -27.073  0.00  0.00    -0.471 OA
ATOM     19  C   UNL     1      33.691 -13.746 -27.596  0.00  0.00    +0.252 C 
ENDBRANCH  17  18
ENDBRANCH   4  12
BRANCH   6  20
ATOM     20  C   UNL     1      32.555  -7.596 -23.431  0.00  0.00    +0.035 C 
ATOM     21  C   UNL     1      31.438  -6.895 -23.893  0.00  0.00    +0.006 C 
ATOM     22  C   UNL     1      33.828  -7.245 -23.883  0.00  0.00    +0.006 C 
ATOM     23  C   UNL     1      31.595  -5.848 -24.801  0.00  0.00    +0.037 C 
ATOM     24  C   UNL     1      33.985  -6.198 -24.791  0.00  0.00    +0.037 C 
ATOM     25  C   UNL     1      32.869  -5.500 -25.250  0.00  0.00    +0.139 C 
BRANCH  25  26
ATOM     26  O   UNL     1      33.022  -4.478 -26.137  0.00  0.00    -0.471 OA
ATOM     27  C   UNL     1      34.082  -4.594 -27.084  0.00  0.00    +0.252 C 
ENDBRANCH  25  26
ENDBRANCH   6  20
BRANCH  10  28
ATOM     28  C   UNL     1      32.578 -14.240 -20.690  0.00  0.00    +0.120 C 
BRANCH  28  29
ATOM     29  C   UNL     1      33.730 -15.082 -21.211  0.00  0.00    +0.158 C 
BRANCH  29  30
ATOM     30  O   UNL     1      34.812 -15.025 -20.290  0.00  0.00    -0.380 OA
ATOM     31  H   UNL     1      35.547 -15.565 -20.621  0.00  0.00    +0.211 HD
ENDBRANCH  29  30
ENDBRANCH  28  29
ENDBRANCH  10  28
TORSDOF 7
ENDMDL
