MODEL 1
REMARK VINA RESULT:      -2.8      0.000      0.000
REMARK  Name = 5289210
REMARK  2 active torsions:
REMARK  status: ('A' for Active; 'I' for Inactive)
REMARK    1  A    between atoms: S_1  and  S_2
REMARK    2  A    between atoms: S_1  and  S_4
REMARK                            x       y       z     vdW  Elec       q    Type
REMARK                         _______ _______ _______ _____ _____    ______ ____
ROOT
ATOM      1  S   UNL     1      33.013 -19.994 -20.649  0.00  0.00    +0.000 S 
ENDROOT
BRANCH   1   2
ATOM      2  S   UNL     1      33.646 -21.579 -19.512  0.00  0.00    +0.000 S 
ATOM      3  S   UNL     1      35.696 -21.467 -19.525  0.00  0.00    +0.000 S 
ENDBRANCH   1   2
BRANCH   1   4
ATOM      4  S   UNL     1      34.645 -19.425 -21.756  0.00  0.00    +0.000 S 
ATOM      5  S   UNL     1      34.975 -17.461 -21.259  0.00  0.00    +0.000 S 
ENDBRANCH   1   4
TORSDOF 2
ENDMDL
MODEL 2
REMARK VINA RESULT:      -2.8      0.196      3.480
REMARK  Name = 5289210
REMARK  2 active torsions:
REMARK  status: ('A' for Active; 'I' for Inactive)
REMARK    1  A    between atoms: S_1  and  S_2
REMARK    2  A    between atoms: S_1  and  S_4
REMARK                            x       y       z     vdW  Elec       q    Type
REMARK                         _______ _______ _______ _____ _____    ______ ____
ROOT
ATOM      1  S   UNL     1      33.173 -20.102 -20.594  0.00  0.00    +0.000 S 
ENDROOT
BRANCH   1   2
ATOM      2  S   UNL     1      34.767 -19.463 -21.714  0.00  0.00    +0.000 S 
ATOM      3  S   UNL     1      35.004 -17.481 -21.234  0.00  0.00    +0.000 S 
ENDBRANCH   1   2
BRANCH   1   4
ATOM      4  S   UNL     1      33.886 -21.655 -19.458  0.00  0.00    +0.000 S 
ATOM      5  S   UNL     1      35.924 -21.407 -19.426  0.00  0.00    +0.000 S 
ENDBRANCH   1   4
TORSDOF 2
ENDMDL
MODEL 3
REMARK VINA RESULT:      -2.8      1.731      3.312
REMARK  Name = 5289210
REMARK  2 active torsions:
REMARK  status: ('A' for Active; 'I' for Inactive)
REMARK    1  A    between atoms: S_1  and  S_2
REMARK    2  A    between atoms: S_1  and  S_4
REMARK                            x       y       z     vdW  Elec       q    Type
REMARK                         _______ _______ _______ _____ _____    ______ ____
ROOT
ATOM      1  S   UNL     1      34.857 -17.324 -21.282  0.00  0.00    +0.000 S 
ENDROOT
BRANCH   1   2
ATOM      2  S   UNL     1      34.691 -19.308 -21.773  0.00  0.00    +0.000 S 
ATOM      3  S   UNL     1      33.081 -19.996 -20.701  0.00  0.00    +0.000 S 
ENDBRANCH   1   2
BRANCH   1   4
ATOM      4  S   UNL     1      34.969 -16.323 -23.069  0.00  0.00    +0.000 S 
ATOM      5  S   UNL     1      34.739 -17.766 -24.510  0.00  0.00    +0.000 S 
ENDBRANCH   1   4
TORSDOF 2
ENDMDL
MODEL 4
REMARK VINA RESULT:      -2.7      4.153      5.989
REMARK  Name = 5289210
REMARK  2 active torsions:
REMARK  status: ('A' for Active; 'I' for Inactive)
REMARK    1  A    between atoms: S_1  and  S_2
REMARK    2  A    between atoms: S_1  and  S_4
REMARK                            x       y       z     vdW  Elec       q    Type
REMARK                         _______ _______ _______ _____ _____    ______ ____
ROOT
ATOM      1  S   UNL     1      34.518 -15.622 -23.483  0.00  0.00    +0.000 S 
ENDROOT
BRANCH   1   2
ATOM      2  S   UNL     1      34.662 -17.058 -24.940  0.00  0.00    +0.000 S 
ATOM      3  S   UNL     1      34.830 -18.837 -23.930  0.00  0.00    +0.000 S 
ENDBRANCH   1   2
BRANCH   1   4
ATOM      4  S   UNL     1      33.334 -14.148 -24.279  0.00  0.00    +0.000 S 
ATOM      5  S   UNL     1      32.976 -14.731 -26.214  0.00  0.00    +0.000 S 
ENDBRANCH   1   4
TORSDOF 2
ENDMDL
MODEL 5
REMARK VINA RESULT:      -2.7      4.168      6.800
REMARK  Name = 5289210
REMARK  2 active torsions:
REMARK  status: ('A' for Active; 'I' for Inactive)
REMARK    1  A    between atoms: S_1  and  S_2
REMARK    2  A    between atoms: S_1  and  S_4
REMARK                            x       y       z     vdW  Elec       q    Type
REMARK                         _______ _______ _______ _____ _____    ______ ____
ROOT
ATOM      1  S   UNL     1      34.576 -15.547 -23.522  0.00  0.00    +0.000 S 
ENDROOT
BRANCH   1   2
ATOM      2  S   UNL     1      33.341 -14.113 -24.311  0.00  0.00    +0.000 S 
ATOM      3  S   UNL     1      32.959 -14.728 -26.233  0.00  0.00    +0.000 S 
ENDBRANCH   1   2
BRANCH   1   4
ATOM      4  S   UNL     1      34.634 -17.051 -24.916  0.00  0.00    +0.000 S 
ATOM      5  S   UNL     1      34.889 -18.777 -23.835  0.00  0.00    +0.000 S 
ENDBRANCH   1   4
TORSDOF 2
ENDMDL
MODEL 6
REMARK VINA RESULT:      -2.7      1.645      4.240
REMARK  Name = 5289210
REMARK  2 active torsions:
REMARK  status: ('A' for Active; 'I' for Inactive)
REMARK    1  A    between atoms: S_1  and  S_2
REMARK    2  A    between atoms: S_1  and  S_4
REMARK                            x       y       z     vdW  Elec       q    Type
REMARK                         _______ _______ _______ _____ _____    ______ ____
ROOT
ATOM      1  S   UNL     1      34.881 -18.797 -23.074  0.00  0.00    +0.000 S 
ENDROOT
BRANCH   1   2
ATOM      2  S   UNL     1      35.070 -16.757 -22.992  0.00  0.00    +0.000 S 
ATOM      3  S   UNL     1      34.671 -16.256 -21.041  0.00  0.00    +0.000 S 
ENDBRANCH   1   2
BRANCH   1   4
ATOM      4  S   UNL     1      34.941 -19.434 -21.125  0.00  0.00    +0.000 S 
ATOM      5  S   UNL     1      33.024 -20.027 -20.693  0.00  0.00    +0.000 S 
ENDBRANCH   1   4
TORSDOF 2
ENDMDL
MODEL 7
REMARK VINA RESULT:      -2.7      1.576      2.762
REMARK  Name = 5289210
REMARK  2 active torsions:
REMARK  status: ('A' for Active; 'I' for Inactive)
REMARK    1  A    between atoms: S_1  and  S_2
REMARK    2  A    between atoms: S_1  and  S_4
REMARK                            x       y       z     vdW  Elec       q    Type
REMARK                         _______ _______ _______ _____ _____    ______ ____
ROOT
ATOM      1  S   UNL     1      34.933 -19.019 -23.044  0.00  0.00    +0.000 S 
ENDROOT
BRANCH   1   2
ATOM      2  S   UNL     1      34.946 -19.514 -21.054  0.00  0.00    +0.000 S 
ATOM      3  S   UNL     1      33.023 -20.094 -20.630  0.00  0.00    +0.000 S 
ENDBRANCH   1   2
BRANCH   1   4
ATOM      4  S   UNL     1      34.924 -16.968 -23.101  0.00  0.00    +0.000 S 
ATOM      5  S   UNL     1      34.706 -16.377 -21.147  0.00  0.00    +0.000 S 
ENDBRANCH   1   4
TORSDOF 2
ENDMDL
MODEL 8
REMARK VINA RESULT:      -2.7      1.906      4.666
REMARK  Name = 5289210
REMARK  2 active torsions:
REMARK  status: ('A' for Active; 'I' for Inactive)
REMARK    1  A    between atoms: S_1  and  S_2
REMARK    2  A    between atoms: S_1  and  S_4
REMARK                            x       y       z     vdW  Elec       q    Type
REMARK                         _______ _______ _______ _____ _____    ______ ____
ROOT
ATOM      1  S   UNL     1      34.545 -17.180 -21.500  0.00  0.00    +0.000 S 
ENDROOT
BRANCH   1   2
ATOM      2  S   UNL     1      34.921 -16.204 -23.263  0.00  0.00    +0.000 S 
ATOM      3  S   UNL     1      34.665 -17.619 -24.729  0.00  0.00    +0.000 S 
ENDBRANCH   1   2
BRANCH   1   4
ATOM      4  S   UNL     1      34.504 -19.176 -21.974  0.00  0.00    +0.000 S 
ATOM      5  S   UNL     1      33.113 -20.001 -20.710  0.00  0.00    +0.000 S 
ENDBRANCH   1   4
TORSDOF 2
ENDMDL
MODEL 9
REMARK VINA RESULT:      -2.7      1.791      3.325
REMARK  Name = 5289210
REMARK  2 active torsions:
REMARK  status: ('A' for Active; 'I' for Inactive)
REMARK    1  A    between atoms: S_1  and  S_2
REMARK    2  A    between atoms: S_1  and  S_4
REMARK                            x       y       z     vdW  Elec       q    Type
REMARK                         _______ _______ _______ _____ _____    ______ ____
ROOT
ATOM      1  S   UNL     1      34.898 -17.376 -21.319  0.00  0.00    +0.000 S 
ENDROOT
BRANCH   1   2
ATOM      2  S   UNL     1      34.651 -19.349 -21.822  0.00  0.00    +0.000 S 
ATOM      3  S   UNL     1      33.069 -20.001 -20.687  0.00  0.00    +0.000 S 
ENDBRANCH   1   2
BRANCH   1   4
ATOM      4  S   UNL     1      34.953 -16.358 -23.099  0.00  0.00    +0.000 S 
ATOM      5  S   UNL     1      34.265 -14.474 -22.663  0.00  0.00    +0.000 S 
ENDBRANCH   1   4
TORSDOF 2
ENDMDL
