MODEL 1
REMARK VINA RESULT:      -7.2      0.000      0.000
REMARK  Name = 23270857
REMARK  1 active torsions:
REMARK  status: ('A' for Active; 'I' for Inactive)
REMARK    1  A    between atoms: C_4  and  O_13
REMARK                            x       y       z     vdW  Elec       q    Type
REMARK                         _______ _______ _______ _____ _____    ______ ____
ROOT
ATOM      1  O   UNL     1      35.309 -18.319 -20.716  0.00  0.00    -0.283 OA
ATOM      2  O   UNL     1      35.020 -15.795 -19.833  0.00  0.00    -0.283 OA
ATOM      3  N   UNL     1      33.680 -14.593 -24.301  0.00  0.00    -0.303 N 
ATOM      4  C   UNL     1      34.157 -16.721 -25.206  0.00  0.00    +0.154 C 
ATOM      5  C   UNL     1      33.424 -15.399 -25.494  0.00  0.00    +0.125 C 
ATOM      6  C   UNL     1      34.405 -16.696 -23.722  0.00  0.00    +0.023 C 
ATOM      7  C   UNL     1      34.142 -15.350 -23.243  0.00  0.00    +0.050 C 
ATOM      8  C   UNL     1      34.777 -17.716 -22.946  0.00  0.00    +0.045 C 
ATOM      9  C   UNL     1      34.331 -15.008 -21.962  0.00  0.00    +0.060 C 
ATOM     10  C   UNL     1      33.186 -13.235 -24.241  0.00  0.00    +0.112 C 
ATOM     11  C   UNL     1      34.985 -17.449 -21.509  0.00  0.00    +0.234 C 
ATOM     12  C   UNL     1      34.794 -16.039 -21.008  0.00  0.00    +0.235 C 
ENDROOT
BRANCH   4  13
ATOM     13  O   UNL     1      35.400 -16.714 -25.901  0.00  0.00    -0.378 OA
ATOM     14  H   UNL     1      36.056 -17.217 -25.394  0.00  0.00    +0.211 HD
ENDBRANCH   4  13
TORSDOF 1
ENDMDL
MODEL 2
REMARK VINA RESULT:      -7.0      2.066      4.059
REMARK  Name = 23270857
REMARK  1 active torsions:
REMARK  status: ('A' for Active; 'I' for Inactive)
REMARK    1  A    between atoms: C_4  and  O_13
REMARK                            x       y       z     vdW  Elec       q    Type
REMARK                         _______ _______ _______ _____ _____    ______ ____
ROOT
ATOM      1  O   UNL     1      33.595 -15.395 -26.792  0.00  0.00    -0.283 OA
ATOM      2  O   UNL     1      32.678 -13.701 -24.915  0.00  0.00    -0.283 OA
ATOM      3  N   UNL     1      34.771 -16.526 -21.621  0.00  0.00    -0.303 N 
ATOM      4  C   UNL     1      35.385 -18.189 -23.181  0.00  0.00    +0.154 C 
ATOM      5  C   UNL     1      35.644 -17.692 -21.749  0.00  0.00    +0.125 C 
ATOM      6  C   UNL     1      34.712 -17.028 -23.864  0.00  0.00    +0.023 C 
ATOM      7  C   UNL     1      34.318 -16.072 -22.844  0.00  0.00    +0.050 C 
ATOM      8  C   UNL     1      34.517 -16.862 -25.174  0.00  0.00    +0.045 C 
ATOM      9  C   UNL     1      33.643 -14.955 -23.148  0.00  0.00    +0.060 C 
ATOM     10  C   UNL     1      34.702 -15.823 -20.359  0.00  0.00    +0.112 C 
ATOM     11  C   UNL     1      33.806 -15.646 -25.615  0.00  0.00    +0.234 C 
ATOM     12  C   UNL     1      33.319 -14.681 -24.565  0.00  0.00    +0.235 C 
ENDROOT
BRANCH   4  13
ATOM     13  O   UNL     1      34.493 -19.297 -23.126  0.00  0.00    -0.378 OA
ATOM     14  H   UNL     1      34.973 -20.111 -23.342  0.00  0.00    +0.211 HD
ENDBRANCH   4  13
TORSDOF 1
ENDMDL
MODEL 3
REMARK VINA RESULT:      -6.9      1.547      2.920
REMARK  Name = 23270857
REMARK  1 active torsions:
REMARK  status: ('A' for Active; 'I' for Inactive)
REMARK    1  A    between atoms: C_4  and  O_13
REMARK                            x       y       z     vdW  Elec       q    Type
REMARK                         _______ _______ _______ _____ _____    ______ ____
ROOT
ATOM      1  O   UNL     1      35.688 -17.881 -20.897  0.00  0.00    -0.283 OA
ATOM      2  O   UNL     1      35.554 -18.917 -23.376  0.00  0.00    -0.283 OA
ATOM      3  N   UNL     1      33.415 -14.828 -24.759  0.00  0.00    -0.303 N 
ATOM      4  C   UNL     1      33.263 -13.960 -22.569  0.00  0.00    +0.154 C 
ATOM      5  C   UNL     1      33.160 -13.573 -24.054  0.00  0.00    +0.125 C 
ATOM      6  C   UNL     1      33.969 -15.289 -22.576  0.00  0.00    +0.023 C 
ATOM      7  C   UNL     1      33.981 -15.786 -23.941  0.00  0.00    +0.050 C 
ATOM      8  C   UNL     1      34.521 -15.919 -21.536  0.00  0.00    +0.045 C 
ATOM      9  C   UNL     1      34.497 -16.982 -24.251  0.00  0.00    +0.060 C 
ATOM     10  C   UNL     1      33.336 -14.862 -26.202  0.00  0.00    +0.112 C 
ATOM     11  C   UNL     1      35.143 -17.235 -21.779  0.00  0.00    +0.234 C 
ATOM     12  C   UNL     1      35.094 -17.803 -23.175  0.00  0.00    +0.235 C 
ENDROOT
BRANCH   4  13
ATOM     13  O   UNL     1      31.948 -14.117 -22.046  0.00  0.00    -0.378 OA
ATOM     14  H   UNL     1      31.799 -13.466 -21.344  0.00  0.00    +0.211 HD
ENDBRANCH   4  13
TORSDOF 1
ENDMDL
MODEL 4
REMARK VINA RESULT:      -6.8      7.691      9.986
REMARK  Name = 23270857
REMARK  1 active torsions:
REMARK  status: ('A' for Active; 'I' for Inactive)
REMARK    1  A    between atoms: C_4  and  O_13
REMARK                            x       y       z     vdW  Elec       q    Type
REMARK                         _______ _______ _______ _____ _____    ______ ____
ROOT
ATOM      1  O   UNL     1      35.476 -21.194 -20.094  0.00  0.00    -0.283 OA
ATOM      2  O   UNL     1      33.191 -22.502 -19.544  0.00  0.00    -0.283 OA
ATOM      3  N   UNL     1      35.012 -23.449 -15.185  0.00  0.00    -0.303 N 
ATOM      4  C   UNL     1      37.137 -22.547 -15.682  0.00  0.00    +0.154 C 
ATOM      5  C   UNL     1      36.238 -23.006 -14.522  0.00  0.00    +0.125 C 
ATOM      6  C   UNL     1      36.194 -22.384 -16.845  0.00  0.00    +0.023 C 
ATOM      7  C   UNL     1      34.929 -23.004 -16.489  0.00  0.00    +0.050 C 
ATOM      8  C   UNL     1      36.435 -21.765 -18.002  0.00  0.00    +0.045 C 
ATOM      9  C   UNL     1      33.907 -23.064 -17.353  0.00  0.00    +0.060 C 
ATOM     10  C   UNL     1      33.941 -24.016 -14.396  0.00  0.00    +0.112 C 
ATOM     11  C   UNL     1      35.359 -21.750 -19.012  0.00  0.00    +0.234 C 
ATOM     12  C   UNL     1      34.066 -22.458 -18.692  0.00  0.00    +0.235 C 
ENDROOT
BRANCH   4  13
ATOM     13  O   UNL     1      38.076 -23.578 -15.968  0.00  0.00    -0.378 OA
ATOM     14  H   UNL     1      38.666 -23.699 -15.208  0.00  0.00    +0.211 HD
ENDBRANCH   4  13
TORSDOF 1
ENDMDL
MODEL 5
REMARK VINA RESULT:      -6.7      9.322     11.164
REMARK  Name = 23270857
REMARK  1 active torsions:
REMARK  status: ('A' for Active; 'I' for Inactive)
REMARK    1  A    between atoms: C_4  and  O_13
REMARK                            x       y       z     vdW  Elec       q    Type
REMARK                         _______ _______ _______ _____ _____    ______ ____
ROOT
ATOM      1  O   UNL     1      36.066 -23.067 -16.496  0.00  0.00    -0.283 OA
ATOM      2  O   UNL     1      34.400 -22.925 -18.603  0.00  0.00    -0.283 OA
ATOM      3  N   UNL     1      30.746 -23.374 -15.495  0.00  0.00    -0.303 N 
ATOM      4  C   UNL     1      32.145 -23.765 -13.634  0.00  0.00    +0.154 C 
ATOM      5  C   UNL     1      30.705 -23.401 -14.034  0.00  0.00    +0.125 C 
ATOM      6  C   UNL     1      32.956 -23.503 -14.875  0.00  0.00    +0.023 C 
ATOM      7  C   UNL     1      32.036 -23.323 -15.985  0.00  0.00    +0.050 C 
ATOM      8  C   UNL     1      34.284 -23.420 -14.972  0.00  0.00    +0.045 C 
ATOM      9  C   UNL     1      32.471 -23.128 -17.236  0.00  0.00    +0.060 C 
ATOM     10  C   UNL     1      29.530 -23.122 -16.236  0.00  0.00    +0.112 C 
ATOM     11  C   UNL     1      34.864 -23.177 -16.308  0.00  0.00    +0.234 C 
ATOM     12  C   UNL     1      33.928 -23.067 -17.485  0.00  0.00    +0.235 C 
ENDROOT
BRANCH   4  13
ATOM     13  O   UNL     1      32.194 -25.151 -13.312  0.00  0.00    -0.378 OA
ATOM     14  H   UNL     1      32.162 -25.261 -12.350  0.00  0.00    +0.211 HD
ENDBRANCH   4  13
TORSDOF 1
ENDMDL
MODEL 6
REMARK VINA RESULT:      -6.6      2.161      3.169
REMARK  Name = 23270857
REMARK  1 active torsions:
REMARK  status: ('A' for Active; 'I' for Inactive)
REMARK    1  A    between atoms: C_4  and  O_13
REMARK                            x       y       z     vdW  Elec       q    Type
REMARK                         _______ _______ _______ _____ _____    ______ ____
ROOT
ATOM      1  O   UNL     1      32.466 -13.893 -20.036  0.00  0.00    -0.283 OA
ATOM      2  O   UNL     1      31.710 -12.097 -21.891  0.00  0.00    -0.283 OA
ATOM      3  N   UNL     1      33.546 -15.057 -25.221  0.00  0.00    -0.303 N 
ATOM      4  C   UNL     1      34.466 -16.550 -23.640  0.00  0.00    +0.154 C 
ATOM      5  C   UNL     1      34.101 -16.406 -25.127  0.00  0.00    +0.125 C 
ATOM      6  C   UNL     1      33.709 -15.441 -22.960  0.00  0.00    +0.023 C 
ATOM      7  C   UNL     1      33.217 -14.537 -23.984  0.00  0.00    +0.050 C 
ATOM      8  C   UNL     1      33.488 -15.295 -21.652  0.00  0.00    +0.045 C 
ATOM      9  C   UNL     1      32.549 -13.418 -23.675  0.00  0.00    +0.060 C 
ATOM     10  C   UNL     1      33.144 -14.540 -26.510  0.00  0.00    +0.112 C 
ATOM     11  C   UNL     1      32.734 -14.106 -21.209  0.00  0.00    +0.234 C 
ATOM     12  C   UNL     1      32.284 -13.114 -22.252  0.00  0.00    +0.235 C 
ENDROOT
BRANCH   4  13
ATOM     13  O   UNL     1      35.866 -16.339 -23.490  0.00  0.00    -0.378 OA
ATOM     14  H   UNL     1      36.143 -16.625 -22.606  0.00  0.00    +0.211 HD
ENDBRANCH   4  13
TORSDOF 1
ENDMDL
MODEL 7
REMARK VINA RESULT:      -6.6      2.070      2.769
REMARK  Name = 23270857
REMARK  1 active torsions:
REMARK  status: ('A' for Active; 'I' for Inactive)
REMARK    1  A    between atoms: C_4  and  O_13
REMARK                            x       y       z     vdW  Elec       q    Type
REMARK                         _______ _______ _______ _____ _____    ______ ____
ROOT
ATOM      1  O   UNL     1      35.660 -17.798 -23.274  0.00  0.00    -0.283 OA
ATOM      2  O   UNL     1      35.335 -17.500 -20.620  0.00  0.00    -0.283 OA
ATOM      3  N   UNL     1      32.768 -13.537 -21.576  0.00  0.00    -0.303 N 
ATOM      4  C   UNL     1      33.225 -13.586 -23.892  0.00  0.00    +0.154 C 
ATOM      5  C   UNL     1      32.304 -12.955 -22.835  0.00  0.00    +0.125 C 
ATOM      6  C   UNL     1      33.842 -14.768 -23.194  0.00  0.00    +0.023 C 
ATOM      7  C   UNL     1      33.566 -14.647 -21.773  0.00  0.00    +0.050 C 
ATOM      8  C   UNL     1      34.510 -15.780 -23.751  0.00  0.00    +0.045 C 
ATOM      9  C   UNL     1      34.040 -15.530 -20.885  0.00  0.00    +0.060 C 
ATOM     10  C   UNL     1      32.162 -13.118 -20.332  0.00  0.00    +0.112 C 
ATOM     11  C   UNL     1      35.050 -16.824 -22.858  0.00  0.00    +0.234 C 
ATOM     12  C   UNL     1      34.842 -16.672 -21.372  0.00  0.00    +0.235 C 
ENDROOT
BRANCH   4  13
ATOM     13  O   UNL     1      34.239 -12.647 -24.234  0.00  0.00    -0.378 OA
ATOM     14  H   UNL     1      33.860 -11.755 -24.257  0.00  0.00    +0.211 HD
ENDBRANCH   4  13
TORSDOF 1
ENDMDL
MODEL 8
REMARK VINA RESULT:      -6.6      2.299      4.024
REMARK  Name = 23270857
REMARK  1 active torsions:
REMARK  status: ('A' for Active; 'I' for Inactive)
REMARK    1  A    between atoms: C_4  and  O_13
REMARK                            x       y       z     vdW  Elec       q    Type
REMARK                         _______ _______ _______ _____ _____    ______ ____
ROOT
ATOM      1  O   UNL     1      32.069 -12.873 -20.629  0.00  0.00    -0.283 OA
ATOM      2  O   UNL     1      32.687 -12.313 -23.187  0.00  0.00    -0.283 OA
ATOM      3  N   UNL     1      34.527 -16.754 -23.510  0.00  0.00    -0.303 N 
ATOM      4  C   UNL     1      34.253 -17.225 -21.213  0.00  0.00    +0.154 C 
ATOM      5  C   UNL     1      34.529 -17.880 -22.577  0.00  0.00    +0.125 C 
ATOM      6  C   UNL     1      33.711 -15.863 -21.554  0.00  0.00    +0.023 C 
ATOM      7  C   UNL     1      33.959 -15.619 -22.964  0.00  0.00    +0.050 C 
ATOM      8  C   UNL     1      33.088 -15.011 -20.737  0.00  0.00    +0.045 C 
ATOM      9  C   UNL     1      33.634 -14.458 -23.547  0.00  0.00    +0.060 C 
ATOM     10  C   UNL     1      34.822 -16.987 -24.906  0.00  0.00    +0.112 C 
ATOM     11  C   UNL     1      32.662 -13.711 -21.292  0.00  0.00    +0.234 C 
ATOM     12  C   UNL     1      32.982 -13.409 -22.734  0.00  0.00    +0.235 C 
ENDROOT
BRANCH   4  13
ATOM     13  O   UNL     1      35.485 -17.091 -20.512  0.00  0.00    -0.378 OA
ATOM     14  H   UNL     1      36.068 -16.486 -20.995  0.00  0.00    +0.211 HD
ENDBRANCH   4  13
TORSDOF 1
ENDMDL
MODEL 9
REMARK VINA RESULT:      -6.6     12.494     13.863
REMARK  Name = 23270857
REMARK  1 active torsions:
REMARK  status: ('A' for Active; 'I' for Inactive)
REMARK    1  A    between atoms: C_4  and  O_13
REMARK                            x       y       z     vdW  Elec       q    Type
REMARK                         _______ _______ _______ _____ _____    ______ ____
ROOT
ATOM      1  O   UNL     1      38.907 -27.191 -14.672  0.00  0.00    -0.283 OA
ATOM      2  O   UNL     1      36.822 -27.298 -16.368  0.00  0.00    -0.283 OA
ATOM      3  N   UNL     1      34.516 -24.269 -13.414  0.00  0.00    -0.303 N 
ATOM      4  C   UNL     1      36.196 -24.328 -11.756  0.00  0.00    +0.154 C 
ATOM      5  C   UNL     1      34.954 -23.549 -12.219  0.00  0.00    +0.125 C 
ATOM      6  C   UNL     1      36.586 -25.156 -12.951  0.00  0.00    +0.023 C 
ATOM      7  C   UNL     1      35.491 -25.116 -13.904  0.00  0.00    +0.050 C 
ATOM      8  C   UNL     1      37.736 -25.805 -13.146  0.00  0.00    +0.045 C 
ATOM      9  C   UNL     1      35.527 -25.809 -15.049  0.00  0.00    +0.060 C 
ATOM     10  C   UNL     1      33.313 -23.849 -14.097  0.00  0.00    +0.112 C 
ATOM     11  C   UNL     1      37.887 -26.578 -14.394  0.00  0.00    +0.234 C 
ATOM     12  C   UNL     1      36.729 -26.614 -15.359  0.00  0.00    +0.235 C 
ENDROOT
BRANCH   4  13
ATOM     13  O   UNL     1      35.824 -25.184 -10.680  0.00  0.00    -0.378 OA
ATOM     14  H   UNL     1      36.529 -25.831 -10.522  0.00  0.00    +0.211 HD
ENDBRANCH   4  13
TORSDOF 1
ENDMDL
