MODEL 1
REMARK VINA RESULT:      -8.9      0.000      0.000
REMARK  Name = 8982
REMARK  6 active torsions:
REMARK  status: ('A' for Active; 'I' for Inactive)
REMARK    1  A    between atoms: N_2  and  CA_11
REMARK    2  A    between atoms: C_3  and  C_19
REMARK    3  A    between atoms: CA_10  and  C_16
REMARK    4  A    between atoms: C_16  and  O_17
REMARK    5  A    between atoms: C_21  and  O_29
REMARK    6  A    between atoms: O_29  and  C_30
REMARK                            x       y       z     vdW  Elec       q    Type
REMARK                         _______ _______ _______ _____ _____    ______ ____
ROOT
ATOM      1  O   UNL     1      33.071 -12.905 -24.752  0.00  0.00    -0.270 OA
ATOM      2  N   UNL     1      33.259 -11.085 -23.328  0.00  0.00    -0.293 N 
ATOM      3  C   UNL     1      33.126 -12.445 -23.614  0.00  0.00    +0.249 C 
ATOM      4  H   UNL     1      33.294 -10.802 -22.386  0.00  0.00    +0.150 HD
ENDROOT
BRANCH   2  11
ATOM      5  S   UNL     1      31.245  -8.836 -22.872  0.00  0.00    -0.118 S 
ATOM      6  O   UNL     1      35.536  -8.892 -23.769  0.00  0.00    -0.273 OA
ATOM      7  N   UNL     1      33.384  -7.999 -24.140  0.00  0.00    -0.260 N 
ATOM      8  C   UNL     1      32.291  -8.945 -24.372  0.00  0.00    +0.151 C 
ATOM      9  C   UNL     1      32.248  -7.472 -22.100  0.00  0.00    +0.068 C 
ATOM     10  CA  UNL     1      33.172  -6.917 -23.206  0.00  0.00    +0.184 C 
ATOM     11  CA  UNL     1      33.350 -10.061 -24.376  0.00  0.00    +0.178 C 
ATOM     12  C   UNL     1      34.366  -8.943 -24.075  0.00  0.00    +0.247 C 
ATOM     13  C   UNL     1      31.298  -6.428 -21.504  0.00  0.00    +0.013 C 
ATOM     14  C   UNL     1      33.075  -8.098 -20.964  0.00  0.00    +0.013 C 
BRANCH  10  16
ATOM     15  OXT UNL     1      31.644  -5.118 -23.725  0.00  0.00    -0.248 OA
ATOM     16  C   UNL     1      32.587  -5.824 -24.049  0.00  0.00    +0.333 C 
BRANCH  16  17
ATOM     17  O   UNL     1      33.246  -5.724 -25.229  0.00  0.00    -0.479 OA
ATOM     18  H   UNL     1      32.839  -5.299 -25.958  0.00  0.00    +0.295 HD
ENDBRANCH  16  17
ENDBRANCH  10  16
ENDBRANCH   2  11
BRANCH   3  19
ATOM     19  C   UNL     1      33.069 -13.366 -22.451  0.00  0.00    +0.087 C 
ATOM     20  C   UNL     1      33.733 -14.589 -22.478  0.00  0.00    +0.007 C 
ATOM     21  C   UNL     1      32.333 -12.948 -21.354  0.00  0.00    +0.143 C 
ATOM     22  C   UNL     1      33.648 -15.430 -21.343  0.00  0.00    +0.000 C 
ATOM     23  C   UNL     1      32.250 -13.774 -20.237  0.00  0.00    +0.037 C 
ATOM     24  C   UNL     1      34.479 -15.013 -23.591  0.00  0.00    +0.000 C 
ATOM     25  C   UNL     1      32.903 -15.007 -20.230  0.00  0.00    +0.003 C 
ATOM     26  C   UNL     1      34.311 -16.668 -21.353  0.00  0.00    +0.000 C 
ATOM     27  C   UNL     1      35.131 -16.245 -23.584  0.00  0.00    +0.000 C 
ATOM     28  C   UNL     1      35.047 -17.072 -22.467  0.00  0.00    +0.000 C 
BRANCH  21  29
ATOM     29  O   UNL     1      31.685 -11.749 -21.335  0.00  0.00    -0.475 OA
BRANCH  29  30
ATOM     30  C   UNL     1      30.836 -11.490 -20.219  0.00  0.00    +0.206 C 
ATOM     31  C   UNL     1      31.571 -10.668 -19.216  0.00  0.00    +0.051 C 
ENDBRANCH  29  30
ENDBRANCH  21  29
ENDBRANCH   3  19
TORSDOF 6
ENDMDL
MODEL 2
REMARK VINA RESULT:      -7.7     11.212     15.354
REMARK  Name = 8982
REMARK  6 active torsions:
REMARK  status: ('A' for Active; 'I' for Inactive)
REMARK    1  A    between atoms: N_2  and  CA_11
REMARK    2  A    between atoms: C_3  and  C_19
REMARK    3  A    between atoms: CA_10  and  C_16
REMARK    4  A    between atoms: C_16  and  O_17
REMARK    5  A    between atoms: C_21  and  O_29
REMARK    6  A    between atoms: O_29  and  C_30
REMARK                            x       y       z     vdW  Elec       q    Type
REMARK                         _______ _______ _______ _____ _____    ______ ____
ROOT
ATOM      1  O   UNL     1      37.322 -20.956 -16.894  0.00  0.00    -0.270 OA
ATOM      2  N   UNL     1      36.827 -23.210 -16.683  0.00  0.00    -0.293 N 
ATOM      3  C   UNL     1      36.634 -21.927 -17.197  0.00  0.00    +0.249 C 
ATOM      4  H   UNL     1      36.228 -23.933 -16.980  0.00  0.00    +0.150 HD
ENDROOT
BRANCH   2  11
ATOM      5  S   UNL     1      35.877 -22.811 -13.808  0.00  0.00    -0.118 S 
ATOM      6  O   UNL     1      37.973 -26.073 -15.856  0.00  0.00    -0.273 OA
ATOM      7  N   UNL     1      37.733 -24.658 -13.984  0.00  0.00    -0.260 N 
ATOM      8  C   UNL     1      37.611 -23.221 -14.235  0.00  0.00    +0.151 C 
ATOM      9  C   UNL     1      35.469 -24.528 -13.218  0.00  0.00    +0.068 C 
ATOM     10  CA  UNL     1      36.811 -25.277 -13.059  0.00  0.00    +0.184 C 
ATOM     11  CA  UNL     1      37.887 -23.526 -15.717  0.00  0.00    +0.178 C 
ATOM     12  C   UNL     1      37.926 -25.005 -15.288  0.00  0.00    +0.247 C 
ATOM     13  C   UNL     1      34.657 -24.433 -11.922  0.00  0.00    +0.013 C 
ATOM     14  C   UNL     1      34.601 -25.192 -14.301  0.00  0.00    +0.013 C 
BRANCH  10  16
ATOM     15  OXT UNL     1      37.204 -24.274 -10.896  0.00  0.00    -0.248 OA
ATOM     16  C   UNL     1      37.482 -25.125 -11.728  0.00  0.00    +0.333 C 
BRANCH  16  17
ATOM     17  O   UNL     1      38.447 -26.062 -11.568  0.00  0.00    -0.479 OA
ATOM     18  H   UNL     1      38.904 -26.131 -10.752  0.00  0.00    +0.295 HD
ENDBRANCH  16  17
ENDBRANCH  10  16
ENDBRANCH   2  11
BRANCH   3  19
ATOM     19  C   UNL     1      35.535 -21.764 -18.183  0.00  0.00    +0.087 C 
ATOM     20  C   UNL     1      35.699 -20.955 -19.304  0.00  0.00    +0.007 C 
ATOM     21  C   UNL     1      34.359 -22.452 -17.932  0.00  0.00    +0.143 C 
ATOM     22  C   UNL     1      34.621 -20.835 -20.213  0.00  0.00    +0.000 C 
ATOM     23  C   UNL     1      33.300 -22.334 -18.826  0.00  0.00    +0.037 C 
ATOM     24  C   UNL     1      36.892 -20.258 -19.558  0.00  0.00    +0.000 C 
ATOM     25  C   UNL     1      33.428 -21.532 -19.960  0.00  0.00    +0.003 C 
ATOM     26  C   UNL     1      34.768 -20.023 -21.349  0.00  0.00    +0.000 C 
ATOM     27  C   UNL     1      37.020 -19.457 -20.691  0.00  0.00    +0.000 C 
ATOM     28  C   UNL     1      35.960 -19.338 -21.585  0.00  0.00    +0.000 C 
BRANCH  21  29
ATOM     29  O   UNL     1      34.206 -23.242 -16.830  0.00  0.00    -0.475 OA
BRANCH  29  30
ATOM     30  C   UNL     1      32.879 -23.650 -16.507  0.00  0.00    +0.206 C 
ATOM     31  C   UNL     1      32.380 -22.850 -15.353  0.00  0.00    +0.051 C 
ENDBRANCH  29  30
ENDBRANCH  21  29
ENDBRANCH   3  19
TORSDOF 6
ENDMDL
MODEL 3
REMARK VINA RESULT:      -7.5      2.003      4.004
REMARK  Name = 8982
REMARK  6 active torsions:
REMARK  status: ('A' for Active; 'I' for Inactive)
REMARK    1  A    between atoms: N_2  and  CA_11
REMARK    2  A    between atoms: C_3  and  C_19
REMARK    3  A    between atoms: CA_10  and  C_16
REMARK    4  A    between atoms: C_16  and  O_17
REMARK    5  A    between atoms: C_21  and  O_29
REMARK    6  A    between atoms: O_29  and  C_30
REMARK                            x       y       z     vdW  Elec       q    Type
REMARK                         _______ _______ _______ _____ _____    ______ ____
ROOT
ATOM      1  O   UNL     1      34.148 -10.309 -24.512  0.00  0.00    -0.270 OA
ATOM      2  N   UNL     1      32.283  -9.139 -23.786  0.00  0.00    -0.293 N 
ATOM      3  C   UNL     1      33.147 -10.235 -23.804  0.00  0.00    +0.249 C 
ATOM      4  H   UNL     1      31.502  -9.164 -23.188  0.00  0.00    +0.150 HD
ENDROOT
BRANCH   2  11
ATOM      5  S   UNL     1      30.208  -6.977 -23.203  0.00  0.00    -0.118 S 
ATOM      6  O   UNL     1      34.577  -6.932 -23.564  0.00  0.00    -0.273 OA
ATOM      7  N   UNL     1      32.480  -5.961 -24.037  0.00  0.00    -0.260 N 
ATOM      8  C   UNL     1      31.432  -6.841 -24.560  0.00  0.00    +0.151 C 
ATOM      9  C   UNL     1      31.096  -5.777 -22.092  0.00  0.00    +0.068 C 
ATOM     10  CA  UNL     1      32.145  -5.052 -22.965  0.00  0.00    +0.184 C 
ATOM     11  CA  UNL     1      32.492  -7.952 -24.625  0.00  0.00    +0.178 C 
ATOM     12  C   UNL     1      33.454  -6.915 -24.015  0.00  0.00    +0.247 C 
ATOM     13  C   UNL     1      30.072  -4.837 -21.448  0.00  0.00    +0.013 C 
ATOM     14  C   UNL     1      31.783  -6.597 -20.987  0.00  0.00    +0.013 C 
BRANCH  10  16
ATOM     15  OXT UNL     1      31.078  -3.821 -24.750  0.00  0.00    -0.248 OA
ATOM     16  C   UNL     1      31.658  -3.825 -23.675  0.00  0.00    +0.333 C 
BRANCH  16  17
ATOM     17  O   UNL     1      31.951  -2.711 -22.961  0.00  0.00    -0.479 OA
ATOM     18  H   UNL     1      32.648  -2.726 -22.334  0.00  0.00    +0.295 HD
ENDBRANCH  16  17
ENDBRANCH  10  16
ENDBRANCH   2  11
BRANCH   3  19
ATOM     19  C   UNL     1      32.819 -11.355 -22.885  0.00  0.00    +0.087 C 
ATOM     20  C   UNL     1      32.344 -11.106 -21.601  0.00  0.00    +0.007 C 
ATOM     21  C   UNL     1      33.006 -12.640 -23.368  0.00  0.00    +0.143 C 
ATOM     22  C   UNL     1      32.045 -12.209 -20.765  0.00  0.00    +0.000 C 
ATOM     23  C   UNL     1      32.712 -13.724 -22.547  0.00  0.00    +0.037 C 
ATOM     24  C   UNL     1      32.154  -9.802 -21.111  0.00  0.00    +0.000 C 
ATOM     25  C   UNL     1      32.235 -13.511 -21.254  0.00  0.00    +0.003 C 
ATOM     26  C   UNL     1      31.566 -11.976 -19.466  0.00  0.00    +0.000 C 
ATOM     27  C   UNL     1      31.677  -9.591 -19.818  0.00  0.00    +0.000 C 
ATOM     28  C   UNL     1      31.383 -10.675 -18.996  0.00  0.00    +0.000 C 
BRANCH  21  29
ATOM     29  O   UNL     1      33.473 -12.876 -24.628  0.00  0.00    -0.475 OA
BRANCH  29  30
ATOM     30  C   UNL     1      33.023 -14.065 -25.272  0.00  0.00    +0.206 C 
ATOM     31  C   UNL     1      33.085 -13.885 -26.750  0.00  0.00    +0.051 C 
ENDBRANCH  29  30
ENDBRANCH  21  29
ENDBRANCH   3  19
TORSDOF 6
ENDMDL
MODEL 4
REMARK VINA RESULT:      -7.3      2.014      7.394
REMARK  Name = 8982
REMARK  6 active torsions:
REMARK  status: ('A' for Active; 'I' for Inactive)
REMARK    1  A    between atoms: N_2  and  CA_11
REMARK    2  A    between atoms: C_3  and  C_19
REMARK    3  A    between atoms: CA_10  and  C_16
REMARK    4  A    between atoms: C_16  and  O_17
REMARK    5  A    between atoms: C_21  and  O_29
REMARK    6  A    between atoms: O_29  and  C_30
REMARK                            x       y       z     vdW  Elec       q    Type
REMARK                         _______ _______ _______ _____ _____    ______ ____
ROOT
ATOM      1  O   UNL     1      35.206  -8.463 -23.606  0.00  0.00    -0.270 OA
ATOM      2  N   UNL     1      33.473  -9.829 -24.316  0.00  0.00    -0.293 N 
ATOM      3  C   UNL     1      34.003  -8.675 -23.738  0.00  0.00    +0.249 C 
ATOM      4  H   UNL     1      32.495  -9.917 -24.383  0.00  0.00    +0.150 HD
ENDROOT
BRANCH   2  11
ATOM      5  S   UNL     1      33.752 -12.085 -22.277  0.00  0.00    -0.118 S 
ATOM      6  O   UNL     1      32.773 -11.999 -26.550  0.00  0.00    -0.273 OA
ATOM      7  N   UNL     1      33.949 -12.958 -24.744  0.00  0.00    -0.260 N 
ATOM      8  C   UNL     1      34.680 -12.051 -23.857  0.00  0.00    +0.151 C 
ATOM      9  C   UNL     1      32.542 -13.376 -22.853  0.00  0.00    +0.068 C 
ATOM     10  CA  UNL     1      33.119 -13.982 -24.151  0.00  0.00    +0.184 C 
ATOM     11  CA  UNL     1      34.316 -10.917 -24.829  0.00  0.00    +0.178 C 
ATOM     12  C   UNL     1      33.543 -11.992 -25.616  0.00  0.00    +0.247 C 
ATOM     13  C   UNL     1      32.330 -14.399 -21.733  0.00  0.00    +0.013 C 
ATOM     14  C   UNL     1      31.208 -12.662 -23.133  0.00  0.00    +0.013 C 
BRANCH  10  16
ATOM     15  OXT UNL     1      34.979 -15.169 -23.165  0.00  0.00    -0.248 OA
ATOM     16  C   UNL     1      34.055 -15.138 -23.964  0.00  0.00    +0.333 C 
BRANCH  16  17
ATOM     17  O   UNL     1      33.739 -16.151 -24.806  0.00  0.00    -0.479 OA
ATOM     18  H   UNL     1      34.226 -16.271 -25.599  0.00  0.00    +0.295 HD
ENDBRANCH  16  17
ENDBRANCH  10  16
ENDBRANCH   2  11
BRANCH   3  19
ATOM     19  C   UNL     1      33.028  -7.650 -23.285  0.00  0.00    +0.087 C 
ATOM     20  C   UNL     1      32.783  -6.513 -24.049  0.00  0.00    +0.007 C 
ATOM     21  C   UNL     1      32.383  -7.885 -22.081  0.00  0.00    +0.143 C 
ATOM     22  C   UNL     1      31.843  -5.568 -23.573  0.00  0.00    +0.000 C 
ATOM     23  C   UNL     1      31.459  -6.957 -21.613  0.00  0.00    +0.037 C 
ATOM     24  C   UNL     1      33.436  -6.275 -25.270  0.00  0.00    +0.000 C 
ATOM     25  C   UNL     1      31.189  -5.806 -22.353  0.00  0.00    +0.003 C 
ATOM     26  C   UNL     1      31.583  -4.415 -24.330  0.00  0.00    +0.000 C 
ATOM     27  C   UNL     1      33.166  -5.124 -26.010  0.00  0.00    +0.000 C 
ATOM     28  C   UNL     1      32.241  -4.195 -25.540  0.00  0.00    +0.000 C 
BRANCH  21  29
ATOM     29  O   UNL     1      32.630  -9.002 -21.337  0.00  0.00    -0.475 OA
BRANCH  29  30
ATOM     30  C   UNL     1      32.096  -9.029 -20.016  0.00  0.00    +0.206 C 
ATOM     31  C   UNL     1      31.444 -10.347 -19.770  0.00  0.00    +0.051 C 
ENDBRANCH  29  30
ENDBRANCH  21  29
ENDBRANCH   3  19
TORSDOF 6
ENDMDL
MODEL 5
REMARK VINA RESULT:      -6.9      3.179      8.315
REMARK  Name = 8982
REMARK  6 active torsions:
REMARK  status: ('A' for Active; 'I' for Inactive)
REMARK    1  A    between atoms: N_2  and  CA_11
REMARK    2  A    between atoms: C_3  and  C_19
REMARK    3  A    between atoms: CA_10  and  C_16
REMARK    4  A    between atoms: C_16  and  O_17
REMARK    5  A    between atoms: C_21  and  O_29
REMARK    6  A    between atoms: O_29  and  C_30
REMARK                            x       y       z     vdW  Elec       q    Type
REMARK                         _______ _______ _______ _____ _____    ______ ____
ROOT
ATOM      1  O   UNL     1      31.633 -12.216 -22.492  0.00  0.00    -0.270 OA
ATOM      2  N   UNL     1      33.580 -13.458 -22.292  0.00  0.00    -0.293 N 
ATOM      3  C   UNL     1      32.807 -12.412 -22.798  0.00  0.00    +0.249 C 
ATOM      4  H   UNL     1      34.514 -13.542 -22.591  0.00  0.00    +0.150 HD
ENDROOT
BRANCH   2  11
ATOM      5  S   UNL     1      33.251 -16.212 -23.568  0.00  0.00    -0.118 S 
ATOM      6  O   UNL     1      35.087 -14.830 -19.835  0.00  0.00    -0.273 OA
ATOM      7  N   UNL     1      33.729 -16.372 -20.993  0.00  0.00    -0.260 N 
ATOM      8  C   UNL     1      32.687 -15.830 -21.867  0.00  0.00    +0.151 C 
ATOM      9  C   UNL     1      34.751 -17.160 -23.009  0.00  0.00    +0.068 C 
ATOM     10  CA  UNL     1      34.571 -17.432 -21.499  0.00  0.00    +0.184 C 
ATOM     11  CA  UNL     1      33.057 -14.437 -21.331  0.00  0.00    +0.178 C 
ATOM     12  C   UNL     1      34.146 -15.164 -20.518  0.00  0.00    +0.247 C 
ATOM     13  C   UNL     1      34.886 -18.430 -23.855  0.00  0.00    +0.013 C 
ATOM     14  C   UNL     1      35.978 -16.264 -23.257  0.00  0.00    +0.013 C 
BRANCH  10  16
ATOM     15  OXT UNL     1      32.632 -18.732 -20.872  0.00  0.00    -0.248 OA
ATOM     16  C   UNL     1      33.821 -18.682 -21.153  0.00  0.00    +0.333 C 
BRANCH  16  17
ATOM     17  O   UNL     1      34.642 -19.760 -21.192  0.00  0.00    -0.479 OA
ATOM     18  H   UNL     1      34.358 -20.550 -21.608  0.00  0.00    +0.295 HD
ENDBRANCH  16  17
ENDBRANCH  10  16
ENDBRANCH   2  11
BRANCH   3  19
ATOM     19  C   UNL     1      33.479 -11.487 -23.745  0.00  0.00    +0.087 C 
ATOM     20  C   UNL     1      33.606 -10.133 -23.447  0.00  0.00    +0.007 C 
ATOM     21  C   UNL     1      33.966 -12.035 -24.920  0.00  0.00    +0.143 C 
ATOM     22  C   UNL     1      34.256  -9.294 -24.384  0.00  0.00    +0.000 C 
ATOM     23  C   UNL     1      34.606 -11.210 -25.841  0.00  0.00    +0.037 C 
ATOM     24  C   UNL     1      33.112  -9.577 -22.255  0.00  0.00    +0.000 C 
ATOM     25  C   UNL     1      34.751  -9.849 -25.576  0.00  0.00    +0.003 C 
ATOM     26  C   UNL     1      34.394  -7.925 -24.101  0.00  0.00    +0.000 C 
ATOM     27  C   UNL     1      33.258  -8.216 -21.991  0.00  0.00    +0.000 C 
ATOM     28  C   UNL     1      33.897  -7.391 -22.912  0.00  0.00    +0.000 C 
BRANCH  21  29
ATOM     29  O   UNL     1      33.836 -13.363 -25.205  0.00  0.00    -0.475 OA
BRANCH  29  30
ATOM     30  C   UNL     1      33.447 -13.704 -26.533  0.00  0.00    +0.206 C 
ATOM     31  C   UNL     1      32.707 -14.998 -26.517  0.00  0.00    +0.051 C 
ENDBRANCH  29  30
ENDBRANCH  21  29
ENDBRANCH   3  19
TORSDOF 6
ENDMDL
MODEL 6
REMARK VINA RESULT:      -6.9     13.789     16.414
REMARK  Name = 8982
REMARK  6 active torsions:
REMARK  status: ('A' for Active; 'I' for Inactive)
REMARK    1  A    between atoms: N_2  and  CA_11
REMARK    2  A    between atoms: C_3  and  C_19
REMARK    3  A    between atoms: CA_10  and  C_16
REMARK    4  A    between atoms: C_16  and  O_17
REMARK    5  A    between atoms: C_21  and  O_29
REMARK    6  A    between atoms: O_29  and  C_30
REMARK                            x       y       z     vdW  Elec       q    Type
REMARK                         _______ _______ _______ _____ _____    ______ ____
ROOT
ATOM      1  O   UNL     1      32.804 -25.646 -13.928  0.00  0.00    -0.270 OA
ATOM      2  N   UNL     1      34.248 -23.846 -13.708  0.00  0.00    -0.293 N 
ATOM      3  C   UNL     1      33.127 -24.498 -14.224  0.00  0.00    +0.249 C 
ATOM      4  H   UNL     1      34.434 -22.925 -14.001  0.00  0.00    +0.150 HD
ENDROOT
BRANCH   2  11
ATOM      5  S   UNL     1      36.509 -25.331 -15.124  0.00  0.00    -0.118 S 
ATOM      6  O   UNL     1      36.410 -22.459 -11.813  0.00  0.00    -0.273 OA
ATOM      7  N   UNL     1      37.236 -24.456 -12.760  0.00  0.00    -0.260 N 
ATOM      8  C   UNL     1      36.259 -25.396 -13.311  0.00  0.00    +0.151 C 
ATOM      9  C   UNL     1      37.956 -24.166 -15.025  0.00  0.00    +0.068 C 
ATOM     10  CA  UNL     1      38.406 -24.138 -13.547  0.00  0.00    +0.184 C 
ATOM     11  CA  UNL     1      35.161 -24.479 -12.748  0.00  0.00    +0.178 C 
ATOM     12  C   UNL     1      36.315 -23.570 -12.285  0.00  0.00    +0.247 C 
ATOM     13  C   UNL     1      39.046 -24.636 -15.994  0.00  0.00    +0.013 C 
ATOM     14  C   UNL     1      37.460 -22.779 -15.468  0.00  0.00    +0.013 C 
BRANCH  10  16
ATOM     15  OXT UNL     1      39.120 -26.255 -12.625  0.00  0.00    -0.248 OA
ATOM     16  C   UNL     1      39.399 -25.189 -13.153  0.00  0.00    +0.333 C 
BRANCH  16  17
ATOM     17  O   UNL     1      40.659 -24.797 -13.462  0.00  0.00    -0.479 OA
ATOM     18  H   UNL     1      40.992 -23.987 -13.129  0.00  0.00    +0.295 HD
ENDBRANCH  16  17
ENDBRANCH  10  16
ENDBRANCH   2  11
BRANCH   3  19
ATOM     19  C   UNL     1      32.284 -23.724 -15.170  0.00  0.00    +0.087 C 
ATOM     20  C   UNL     1      32.817 -23.226 -16.355  0.00  0.00    +0.007 C 
ATOM     21  C   UNL     1      30.958 -23.530 -14.816  0.00  0.00    +0.143 C 
ATOM     22  C   UNL     1      31.969 -22.495 -17.222  0.00  0.00    +0.000 C 
ATOM     23  C   UNL     1      30.125 -22.812 -15.668  0.00  0.00    +0.037 C 
ATOM     24  C   UNL     1      34.161 -23.423 -16.714  0.00  0.00    +0.000 C 
ATOM     25  C   UNL     1      30.626 -22.298 -16.864  0.00  0.00    +0.003 C 
ATOM     26  C   UNL     1      32.490 -21.985 -18.423  0.00  0.00    +0.000 C 
ATOM     27  C   UNL     1      34.661 -22.909 -17.910  0.00  0.00    +0.000 C 
ATOM     28  C   UNL     1      33.827 -22.190 -18.763  0.00  0.00    +0.000 C 
BRANCH  21  29
ATOM     29  O   UNL     1      30.444 -24.020 -13.651  0.00  0.00    -0.475 OA
BRANCH  29  30
ATOM     30  C   UNL     1      29.360 -24.939 -13.761  0.00  0.00    +0.206 C 
ATOM     31  C   UNL     1      29.562 -25.807 -14.956  0.00  0.00    +0.051 C 
ENDBRANCH  29  30
ENDBRANCH  21  29
ENDBRANCH   3  19
TORSDOF 6
ENDMDL
MODEL 7
REMARK VINA RESULT:      -6.8     12.057     16.240
REMARK  Name = 8982
REMARK  6 active torsions:
REMARK  status: ('A' for Active; 'I' for Inactive)
REMARK    1  A    between atoms: N_2  and  CA_11
REMARK    2  A    between atoms: C_3  and  C_19
REMARK    3  A    between atoms: CA_10  and  C_16
REMARK    4  A    between atoms: C_16  and  O_17
REMARK    5  A    between atoms: C_21  and  O_29
REMARK    6  A    between atoms: O_29  and  C_30
REMARK                            x       y       z     vdW  Elec       q    Type
REMARK                         _______ _______ _______ _____ _____    ______ ____
ROOT
ATOM      1  O   UNL     1      34.964 -22.803 -17.299  0.00  0.00    -0.270 OA
ATOM      2  N   UNL     1      34.764 -24.649 -15.912  0.00  0.00    -0.293 N 
ATOM      3  C   UNL     1      34.269 -23.548 -16.612  0.00  0.00    +0.249 C 
ATOM      4  H   UNL     1      34.136 -25.194 -15.385  0.00  0.00    +0.150 HD
ENDROOT
BRANCH   2  11
ATOM      5  S   UNL     1      36.399 -22.945 -13.976  0.00  0.00    -0.118 S 
ATOM      6  O   UNL     1      36.137 -27.262 -14.698  0.00  0.00    -0.273 OA
ATOM      7  N   UNL     1      37.437 -25.333 -14.303  0.00  0.00    -0.260 N 
ATOM      8  C   UNL     1      37.159 -24.153 -15.125  0.00  0.00    +0.151 C 
ATOM      9  C   UNL     1      36.608 -24.028 -12.476  0.00  0.00    +0.068 C 
ATOM     10  CA  UNL     1      37.578 -25.162 -12.876  0.00  0.00    +0.184 C 
ATOM     11  CA  UNL     1      36.183 -25.027 -15.929  0.00  0.00    +0.178 C 
ATOM     12  C   UNL     1      36.546 -26.148 -14.937  0.00  0.00    +0.247 C 
ATOM     13  C   UNL     1      37.103 -23.172 -11.306  0.00  0.00    +0.013 C 
ATOM     14  C   UNL     1      35.222 -24.597 -12.125  0.00  0.00    +0.013 C 
BRANCH  10  16
ATOM     15  OXT UNL     1      39.480 -23.869 -12.131  0.00  0.00    -0.248 OA
ATOM     16  C   UNL     1      39.035 -24.860 -12.692  0.00  0.00    +0.333 C 
BRANCH  16  17
ATOM     17  O   UNL     1      39.799 -25.837 -13.238  0.00  0.00    -0.479 OA
ATOM     18  H   UNL     1      39.403 -26.500 -13.769  0.00  0.00    +0.295 HD
ENDBRANCH  16  17
ENDBRANCH  10  16
ENDBRANCH   2  11
BRANCH   3  19
ATOM     19  C   UNL     1      32.808 -23.302 -16.519  0.00  0.00    +0.087 C 
ATOM     20  C   UNL     1      32.087 -23.713 -15.401  0.00  0.00    +0.007 C 
ATOM     21  C   UNL     1      32.211 -22.650 -17.585  0.00  0.00    +0.143 C 
ATOM     22  C   UNL     1      30.696 -23.453 -15.362  0.00  0.00    +0.000 C 
ATOM     23  C   UNL     1      30.844 -22.393 -17.546  0.00  0.00    +0.037 C 
ATOM     24  C   UNL     1      32.692 -24.375 -14.319  0.00  0.00    +0.000 C 
ATOM     25  C   UNL     1      30.090 -22.792 -16.442  0.00  0.00    +0.003 C 
ATOM     26  C   UNL     1      29.952 -23.861 -14.242  0.00  0.00    +0.000 C 
ATOM     27  C   UNL     1      31.938 -24.772 -13.216  0.00  0.00    +0.000 C 
ATOM     28  C   UNL     1      30.571 -24.516 -13.177  0.00  0.00    +0.000 C 
BRANCH  21  29
ATOM     29  O   UNL     1      32.924 -22.251 -18.677  0.00  0.00    -0.475 OA
BRANCH  29  30
ATOM     30  C   UNL     1      32.542 -21.020 -19.285  0.00  0.00    +0.206 C 
ATOM     31  C   UNL     1      33.633 -20.549 -20.185  0.00  0.00    +0.051 C 
ENDBRANCH  29  30
ENDBRANCH  21  29
ENDBRANCH   3  19
TORSDOF 6
ENDMDL
MODEL 8
REMARK VINA RESULT:      -6.7      3.018      4.640
REMARK  Name = 8982
REMARK  6 active torsions:
REMARK  status: ('A' for Active; 'I' for Inactive)
REMARK    1  A    between atoms: N_2  and  CA_11
REMARK    2  A    between atoms: C_3  and  C_19
REMARK    3  A    between atoms: CA_10  and  C_16
REMARK    4  A    between atoms: C_16  and  O_17
REMARK    5  A    between atoms: C_21  and  O_29
REMARK    6  A    between atoms: O_29  and  C_30
REMARK                            x       y       z     vdW  Elec       q    Type
REMARK                         _______ _______ _______ _____ _____    ______ ____
ROOT
ATOM      1  O   UNL     1      33.887  -7.912 -21.316  0.00  0.00    -0.270 OA
ATOM      2  N   UNL     1      31.692  -7.481 -21.922  0.00  0.00    -0.293 N 
ATOM      3  C   UNL     1      32.821  -8.292 -21.792  0.00  0.00    +0.249 C 
ATOM      4  H   UNL     1      30.876  -7.867 -22.316  0.00  0.00    +0.150 HD
ENDROOT
BRANCH   2  11
ATOM      5  S   UNL     1      32.955  -5.655 -24.018  0.00  0.00    -0.118 S 
ATOM      6  O   UNL     1      29.202  -5.491 -21.757  0.00  0.00    -0.273 OA
ATOM      7  N   UNL     1      31.120  -4.415 -22.609  0.00  0.00    -0.260 N 
ATOM      8  C   UNL     1      32.415  -5.056 -22.372  0.00  0.00    +0.151 C 
ATOM      9  C   UNL     1      31.503  -4.917 -24.918  0.00  0.00    +0.068 C 
ATOM     10  CA  UNL     1      30.822  -3.935 -23.939  0.00  0.00    +0.184 C 
ATOM     11  CA  UNL     1      31.672  -6.076 -21.494  0.00  0.00    +0.178 C 
ATOM     12  C   UNL     1      30.392  -5.317 -21.892  0.00  0.00    +0.247 C 
ATOM     13  C   UNL     1      31.996  -4.260 -26.211  0.00  0.00    +0.013 C 
ATOM     14  C   UNL     1      30.552  -6.072 -25.278  0.00  0.00    +0.013 C 
BRANCH  10  16
ATOM     15  OXT UNL     1      32.247  -2.124 -23.210  0.00  0.00    -0.248 OA
ATOM     16  C   UNL     1      31.363  -2.537 -23.946  0.00  0.00    +0.333 C 
BRANCH  16  17
ATOM     17  O   UNL     1      30.735  -1.786 -24.882  0.00  0.00    -0.479 OA
ATOM     18  H   UNL     1      30.002  -1.252 -24.641  0.00  0.00    +0.295 HD
ENDBRANCH  16  17
ENDBRANCH  10  16
ENDBRANCH   2  11
BRANCH   3  19
ATOM     19  C   UNL     1      32.685  -9.698 -22.248  0.00  0.00    +0.087 C 
ATOM     20  C   UNL     1      33.393 -10.160 -23.354  0.00  0.00    +0.007 C 
ATOM     21  C   UNL     1      31.831 -10.514 -21.523  0.00  0.00    +0.143 C 
ATOM     22  C   UNL     1      33.228 -11.510 -23.746  0.00  0.00    +0.000 C 
ATOM     23  C   UNL     1      31.670 -11.842 -21.908  0.00  0.00    +0.037 C 
ATOM     24  C   UNL     1      34.258  -9.332 -24.090  0.00  0.00    +0.000 C 
ATOM     25  C   UNL     1      32.363 -12.338 -23.012  0.00  0.00    +0.003 C 
ATOM     26  C   UNL     1      33.934 -11.993 -24.860  0.00  0.00    +0.000 C 
ATOM     27  C   UNL     1      34.951  -9.829 -25.193  0.00  0.00    +0.000 C 
ATOM     28  C   UNL     1      34.789 -11.157 -25.578  0.00  0.00    +0.000 C 
BRANCH  21  29
ATOM     29  O   UNL     1      31.140 -10.054 -20.441  0.00  0.00    -0.475 OA
BRANCH  29  30
ATOM     30  C   UNL     1      31.836 -10.018 -19.197  0.00  0.00    +0.206 C 
ATOM     31  C   UNL     1      31.312 -11.090 -18.303  0.00  0.00    +0.051 C 
ENDBRANCH  29  30
ENDBRANCH  21  29
ENDBRANCH   3  19
TORSDOF 6
ENDMDL
MODEL 9
REMARK VINA RESULT:      -6.7     11.747     16.020
REMARK  Name = 8982
REMARK  6 active torsions:
REMARK  status: ('A' for Active; 'I' for Inactive)
REMARK    1  A    between atoms: N_2  and  CA_11
REMARK    2  A    between atoms: C_3  and  C_19
REMARK    3  A    between atoms: CA_10  and  C_16
REMARK    4  A    between atoms: C_16  and  O_17
REMARK    5  A    between atoms: C_21  and  O_29
REMARK    6  A    between atoms: O_29  and  C_30
REMARK                            x       y       z     vdW  Elec       q    Type
REMARK                         _______ _______ _______ _____ _____    ______ ____
ROOT
ATOM      1  O   UNL     1      35.265 -23.508 -16.978  0.00  0.00    -0.270 OA
ATOM      2  N   UNL     1      35.049 -22.397 -14.955  0.00  0.00    -0.293 N 
ATOM      3  C   UNL     1      34.555 -23.018 -16.103  0.00  0.00    +0.249 C 
ATOM      4  H   UNL     1      34.408 -22.030 -14.304  0.00  0.00    +0.150 HD
ENDROOT
BRANCH   2  11
ATOM      5  S   UNL     1      36.066 -24.691 -13.216  0.00  0.00    -0.118 S 
ATOM      6  O   UNL     1      37.501 -22.878 -16.940  0.00  0.00    -0.273 OA
ATOM      7  N   UNL     1      37.939 -23.746 -14.791  0.00  0.00    -0.260 N 
ATOM      8  C   UNL     1      37.110 -23.261 -13.686  0.00  0.00    +0.151 C 
ATOM      9  C   UNL     1      36.874 -25.857 -14.421  0.00  0.00    +0.068 C 
ATOM     10  CA  UNL     1      38.167 -25.168 -14.910  0.00  0.00    +0.184 C 
ATOM     11  CA  UNL     1      36.486 -22.268 -14.680  0.00  0.00    +0.178 C 
ATOM     12  C   UNL     1      37.389 -22.932 -15.737  0.00  0.00    +0.247 C 
ATOM     13  C   UNL     1      37.113 -27.204 -13.731  0.00  0.00    +0.013 C 
ATOM     14  C   UNL     1      35.892 -26.063 -15.588  0.00  0.00    +0.013 C 
BRANCH  10  16
ATOM     15  OXT UNL     1      39.708 -24.743 -13.098  0.00  0.00    -0.248 OA
ATOM     16  C   UNL     1      39.385 -25.408 -14.071  0.00  0.00    +0.333 C 
BRANCH  16  17
ATOM     17  O   UNL     1      40.087 -26.469 -14.538  0.00  0.00    -0.479 OA
ATOM     18  H   UNL     1      40.700 -26.907 -13.980  0.00  0.00    +0.295 HD
ENDBRANCH  16  17
ENDBRANCH  10  16
ENDBRANCH   2  11
BRANCH   3  19
ATOM     19  C   UNL     1      33.078 -23.094 -16.235  0.00  0.00    +0.087 C 
ATOM     20  C   UNL     1      32.306 -23.704 -15.251  0.00  0.00    +0.007 C 
ATOM     21  C   UNL     1      32.519 -22.530 -17.370  0.00  0.00    +0.143 C 
ATOM     22  C   UNL     1      30.902 -23.748 -15.424  0.00  0.00    +0.000 C 
ATOM     23  C   UNL     1      31.139 -22.572 -17.540  0.00  0.00    +0.037 C 
ATOM     24  C   UNL     1      32.873 -24.276 -14.099  0.00  0.00    +0.000 C 
ATOM     25  C   UNL     1      30.334 -23.177 -16.575  0.00  0.00    +0.003 C 
ATOM     26  C   UNL     1      30.106 -24.361 -14.442  0.00  0.00    +0.000 C 
ATOM     27  C   UNL     1      32.068 -24.880 -13.134  0.00  0.00    +0.000 C 
ATOM     28  C   UNL     1      30.687 -24.923 -13.305  0.00  0.00    +0.000 C 
BRANCH  21  29
ATOM     29  O   UNL     1      33.283 -21.934 -18.330  0.00  0.00    -0.475 OA
BRANCH  29  30
ATOM     30  C   UNL     1      32.595 -21.202 -19.341  0.00  0.00    +0.206 C 
ATOM     31  C   UNL     1      33.585 -20.511 -20.215  0.00  0.00    +0.051 C 
ENDBRANCH  29  30
ENDBRANCH  21  29
ENDBRANCH   3  19
TORSDOF 6
ENDMDL
