MODEL 1
REMARK VINA RESULT:     -11.2      0.000      0.000
REMARK  Name = 44629554
REMARK  5 active torsions:
REMARK  status: ('A' for Active; 'I' for Inactive)
REMARK    1  A    between atoms: C_5  and  C_30
REMARK    2  A    between atoms: C_6  and  N_18
REMARK    3  A    between atoms: C_7  and  C_12
REMARK    4  A    between atoms: N_18  and  C_20
REMARK    5  A    between atoms: C_20  and  C_24
REMARK                            x       y       z     vdW  Elec       q    Type
REMARK                         _______ _______ _______ _____ _____    ______ ____
ROOT
ATOM      1  N   UNL     1      32.884 -23.166 -16.444  0.00  0.00    -0.152 N 
ATOM      2  N   UNL     1      35.236 -23.666 -16.325  0.00  0.00    -0.389 NA
ATOM      3  N   UNL     1      31.985 -22.599 -17.298  0.00  0.00    -0.174 NA
ATOM      4  C   UNL     1      34.168 -23.153 -16.991  0.00  0.00    +0.189 C 
ATOM      5  C   UNL     1      34.063 -22.556 -18.226  0.00  0.00    +0.112 C 
ATOM      6  C   UNL     1      32.638 -23.705 -15.172  0.00  0.00    +0.126 C 
ATOM      7  C   UNL     1      35.007 -24.180 -15.150  0.00  0.00    +0.140 C 
ATOM      8  C   UNL     1      33.669 -24.223 -14.483  0.00  0.00    +0.064 C 
ATOM      9  C   UNL     1      32.706 -22.240 -18.359  0.00  0.00    +0.100 C 
ENDROOT
BRANCH   7  12
ATOM     10  F   UNL     1      36.132 -26.695 -15.761  0.00  0.00    -0.204 F 
ATOM     11  F   UNL     1      36.214 -22.850 -12.973  0.00  0.00    -0.204 F 
ATOM     12  C   UNL     1      36.145 -24.758 -14.387  0.00  0.00    +0.085 C 
ATOM     13  C   UNL     1      36.658 -26.006 -14.738  0.00  0.00    +0.145 C 
ATOM     14  C   UNL     1      36.700 -24.051 -13.320  0.00  0.00    +0.145 C 
ATOM     15  C   UNL     1      37.726 -26.549 -14.023  0.00  0.00    +0.030 C 
ATOM     16  C   UNL     1      37.767 -24.593 -12.604  0.00  0.00    +0.030 C 
ATOM     17  C   UNL     1      38.280 -25.842 -12.956  0.00  0.00    +0.005 C 
ENDBRANCH   7  12
BRANCH   6  18
ATOM     18  N   UNL     1      31.354 -23.663 -14.707  0.00  0.00    -0.316 N 
ATOM     19  H   UNL     1      31.126 -22.990 -14.025  0.00  0.00    +0.148 HD
BRANCH  18  20
ATOM     20  C   UNL     1      30.318 -24.553 -15.162  0.00  0.00    +0.114 C 
BRANCH  20  24
ATOM     21  N   UNL     1      27.601 -23.656 -17.640  0.00  0.00    -0.181 NA
ATOM     22  N   UNL     1      27.936 -21.786 -16.159  0.00  0.00    -0.204 NA
ATOM     23  N   UNL     1      26.338 -21.693 -17.874  0.00  0.00    -0.303 N 
ATOM     24  C   UNL     1      29.249 -23.785 -15.890  0.00  0.00    +0.020 C 
ATOM     25  C   UNL     1      28.565 -24.317 -16.964  0.00  0.00    +0.106 C 
ATOM     26  C   UNL     1      28.890 -22.502 -15.529  0.00  0.00    +0.163 C 
ATOM     27  C   UNL     1      27.341 -22.415 -17.191  0.00  0.00    +0.084 C 
ATOM     28  H   UNL     1      25.869 -22.104 -18.636  0.00  0.00    +0.154 HD
ATOM     29  H   UNL     1      26.107 -20.780 -17.589  0.00  0.00    +0.154 HD
ENDBRANCH  20  24
ENDBRANCH  18  20
ENDBRANCH   6  18
BRANCH   5  30
ATOM     30  C   UNL     1      35.140 -22.306 -19.199  0.00  0.00    +0.015 C 
ATOM     31  C   UNL     1      35.028 -20.936 -19.879  0.00  0.00    +0.001 C 
ENDBRANCH   5  30
TORSDOF 5
ENDMDL
MODEL 2
REMARK VINA RESULT:     -10.9      2.786      7.424
REMARK  Name = 44629554
REMARK  5 active torsions:
REMARK  status: ('A' for Active; 'I' for Inactive)
REMARK    1  A    between atoms: C_5  and  C_30
REMARK    2  A    between atoms: C_6  and  N_18
REMARK    3  A    between atoms: C_7  and  C_12
REMARK    4  A    between atoms: N_18  and  C_20
REMARK    5  A    between atoms: C_20  and  C_24
REMARK                            x       y       z     vdW  Elec       q    Type
REMARK                         _______ _______ _______ _____ _____    ______ ____
ROOT
ATOM      1  N   UNL     1      35.334 -22.963 -15.243  0.00  0.00    -0.152 N 
ATOM      2  N   UNL     1      33.319 -23.128 -16.551  0.00  0.00    -0.389 NA
ATOM      3  N   UNL     1      36.644 -22.618 -15.393  0.00  0.00    -0.174 NA
ATOM      4  C   UNL     1      34.644 -22.840 -16.450  0.00  0.00    +0.189 C 
ATOM      5  C   UNL     1      35.558 -22.406 -17.382  0.00  0.00    +0.112 C 
ATOM      6  C   UNL     1      34.688 -23.398 -14.074  0.00  0.00    +0.126 C 
ATOM      7  C   UNL     1      32.715 -23.517 -15.465  0.00  0.00    +0.140 C 
ATOM      8  C   UNL     1      33.378 -23.691 -14.135  0.00  0.00    +0.064 C 
ATOM      9  C   UNL     1      36.762 -22.287 -16.677  0.00  0.00    +0.100 C 
ENDROOT
BRANCH   7  12
ATOM     10  F   UNL     1      31.547 -25.595 -13.954  0.00  0.00    -0.204 F 
ATOM     11  F   UNL     1      30.909 -22.096 -17.103  0.00  0.00    -0.204 F 
ATOM     12  C   UNL     1      31.265 -23.838 -15.527  0.00  0.00    +0.085 C 
ATOM     13  C   UNL     1      30.747 -24.876 -14.755  0.00  0.00    +0.145 C 
ATOM     14  C   UNL     1      30.422 -23.098 -16.356  0.00  0.00    +0.145 C 
ATOM     15  C   UNL     1      29.385 -25.177 -14.812  0.00  0.00    +0.030 C 
ATOM     16  C   UNL     1      29.061 -23.398 -16.414  0.00  0.00    +0.030 C 
ATOM     17  C   UNL     1      28.543 -24.438 -15.642  0.00  0.00    +0.005 C 
ENDBRANCH   7  12
BRANCH   6  18
ATOM     18  N   UNL     1      35.442 -23.505 -12.940  0.00  0.00    -0.316 N 
ATOM     19  H   UNL     1      35.716 -22.678 -12.482  0.00  0.00    +0.148 HD
BRANCH  18  20
ATOM     20  C   UNL     1      35.854 -24.765 -12.380  0.00  0.00    +0.114 C 
BRANCH  20  24
ATOM     21  N   UNL     1      38.390 -26.776 -14.342  0.00  0.00    -0.181 NA
ATOM     22  N   UNL     1      39.512 -24.893 -13.343  0.00  0.00    -0.204 NA
ATOM     23  N   UNL     1      40.689 -26.434 -14.663  0.00  0.00    -0.303 N 
ATOM     24  C   UNL     1      37.152 -25.213 -12.994  0.00  0.00    +0.020 C 
ATOM     25  C   UNL     1      37.243 -26.345 -13.777  0.00  0.00    +0.106 C 
ATOM     26  C   UNL     1      38.331 -24.519 -12.808  0.00  0.00    +0.163 C 
ATOM     27  C   UNL     1      39.470 -26.014 -14.088  0.00  0.00    +0.084 C 
ATOM     28  H   UNL     1      40.717 -27.247 -15.217  0.00  0.00    +0.154 HD
ATOM     29  H   UNL     1      41.511 -25.914 -14.510  0.00  0.00    +0.154 HD
ENDBRANCH  20  24
ENDBRANCH  18  20
ENDBRANCH   6  18
BRANCH   5  30
ATOM     30  C   UNL     1      35.324 -22.124 -18.808  0.00  0.00    +0.015 C 
ATOM     31  C   UNL     1      36.431 -21.271 -19.441  0.00  0.00    +0.001 C 
ENDBRANCH   5  30
TORSDOF 5
ENDMDL
MODEL 3
REMARK VINA RESULT:     -10.8      2.807      7.505
REMARK  Name = 44629554
REMARK  5 active torsions:
REMARK  status: ('A' for Active; 'I' for Inactive)
REMARK    1  A    between atoms: C_5  and  C_30
REMARK    2  A    between atoms: C_6  and  N_18
REMARK    3  A    between atoms: C_7  and  C_12
REMARK    4  A    between atoms: N_18  and  C_20
REMARK    5  A    between atoms: C_20  and  C_24
REMARK                            x       y       z     vdW  Elec       q    Type
REMARK                         _______ _______ _______ _____ _____    ______ ____
ROOT
ATOM      1  N   UNL     1      35.350 -22.982 -15.143  0.00  0.00    -0.152 N 
ATOM      2  N   UNL     1      33.349 -23.142 -16.473  0.00  0.00    -0.389 NA
ATOM      3  N   UNL     1      36.662 -22.636 -15.278  0.00  0.00    -0.174 NA
ATOM      4  C   UNL     1      34.673 -22.855 -16.357  0.00  0.00    +0.189 C 
ATOM      5  C   UNL     1      35.597 -22.417 -17.278  0.00  0.00    +0.112 C 
ATOM      6  C   UNL     1      34.692 -23.420 -13.983  0.00  0.00    +0.126 C 
ATOM      7  C   UNL     1      32.734 -23.535 -15.395  0.00  0.00    +0.140 C 
ATOM      8  C   UNL     1      33.382 -23.713 -14.058  0.00  0.00    +0.064 C 
ATOM      9  C   UNL     1      36.793 -22.301 -16.560  0.00  0.00    +0.100 C 
ENDROOT
BRANCH   7  12
ATOM     10  F   UNL     1      30.949 -22.122 -17.063  0.00  0.00    -0.204 F 
ATOM     11  F   UNL     1      31.546 -25.604 -13.887  0.00  0.00    -0.204 F 
ATOM     12  C   UNL     1      31.284 -23.855 -15.473  0.00  0.00    +0.085 C 
ATOM     13  C   UNL     1      30.453 -23.121 -16.318  0.00  0.00    +0.145 C 
ATOM     14  C   UNL     1      30.756 -24.891 -14.703  0.00  0.00    +0.145 C 
ATOM     15  C   UNL     1      29.092 -23.421 -16.392  0.00  0.00    +0.030 C 
ATOM     16  C   UNL     1      29.396 -25.192 -14.777  0.00  0.00    +0.030 C 
ATOM     17  C   UNL     1      28.564 -24.456 -15.621  0.00  0.00    +0.005 C 
ENDBRANCH   7  12
BRANCH   6  18
ATOM     18  N   UNL     1      35.434 -23.531 -12.841  0.00  0.00    -0.316 N 
ATOM     19  H   UNL     1      35.686 -22.707 -12.366  0.00  0.00    +0.148 HD
BRANCH  18  20
ATOM     20  C   UNL     1      35.865 -24.792 -12.297  0.00  0.00    +0.114 C 
BRANCH  20  24
ATOM     21  N   UNL     1      39.509 -24.893 -13.313  0.00  0.00    -0.181 NA
ATOM     22  N   UNL     1      38.378 -26.759 -14.332  0.00  0.00    -0.204 NA
ATOM     23  N   UNL     1      40.671 -26.407 -14.678  0.00  0.00    -0.303 N 
ATOM     24  C   UNL     1      37.155 -25.226 -12.936  0.00  0.00    +0.020 C 
ATOM     25  C   UNL     1      38.334 -24.532 -12.755  0.00  0.00    +0.106 C 
ATOM     26  C   UNL     1      37.237 -26.342 -13.744  0.00  0.00    +0.163 C 
ATOM     27  C   UNL     1      39.459 -25.999 -14.077  0.00  0.00    +0.084 C 
ATOM     28  H   UNL     1      41.494 -25.888 -14.527  0.00  0.00    +0.154 HD
ATOM     29  H   UNL     1      40.693 -27.209 -15.249  0.00  0.00    +0.154 HD
ENDBRANCH  20  24
ENDBRANCH  18  20
ENDBRANCH   6  18
BRANCH   5  30
ATOM     30  C   UNL     1      35.378 -22.130 -18.705  0.00  0.00    +0.015 C 
ATOM     31  C   UNL     1      36.497 -21.285 -19.326  0.00  0.00    +0.001 C 
ENDBRANCH   5  30
TORSDOF 5
ENDMDL
MODEL 4
REMARK VINA RESULT:     -10.7      2.427      5.506
REMARK  Name = 44629554
REMARK  5 active torsions:
REMARK  status: ('A' for Active; 'I' for Inactive)
REMARK    1  A    between atoms: C_5  and  C_30
REMARK    2  A    between atoms: C_6  and  N_18
REMARK    3  A    between atoms: C_7  and  C_12
REMARK    4  A    between atoms: N_18  and  C_20
REMARK    5  A    between atoms: C_20  and  C_24
REMARK                            x       y       z     vdW  Elec       q    Type
REMARK                         _______ _______ _______ _____ _____    ______ ____
ROOT
ATOM      1  N   UNL     1      32.808 -23.163 -16.579  0.00  0.00    -0.152 N 
ATOM      2  N   UNL     1      33.577 -24.346 -14.628  0.00  0.00    -0.389 NA
ATOM      3  N   UNL     1      31.642 -22.728 -17.137  0.00  0.00    -0.174 NA
ATOM      4  C   UNL     1      32.567 -23.823 -15.373  0.00  0.00    +0.189 C 
ATOM      5  C   UNL     1      31.206 -23.798 -15.176  0.00  0.00    +0.112 C 
ATOM      6  C   UNL     1      34.109 -23.016 -17.084  0.00  0.00    +0.126 C 
ATOM      7  C   UNL     1      34.787 -24.198 -15.087  0.00  0.00    +0.140 C 
ATOM      8  C   UNL     1      35.134 -23.520 -16.375  0.00  0.00    +0.064 C 
ATOM      9  C   UNL     1      30.695 -23.115 -16.286  0.00  0.00    +0.100 C 
ENDROOT
BRANCH   7  12
ATOM     10  F   UNL     1      36.076 -26.615 -15.767  0.00  0.00    -0.204 F 
ATOM     11  F   UNL     1      35.829 -22.912 -12.801  0.00  0.00    -0.204 F 
ATOM     12  C   UNL     1      35.923 -24.749 -14.304  0.00  0.00    +0.085 C 
ATOM     13  C   UNL     1      36.520 -25.949 -14.691  0.00  0.00    +0.145 C 
ATOM     14  C   UNL     1      36.395 -24.066 -13.183  0.00  0.00    +0.145 C 
ATOM     15  C   UNL     1      37.588 -26.467 -13.957  0.00  0.00    +0.030 C 
ATOM     16  C   UNL     1      37.462 -24.583 -12.448  0.00  0.00    +0.030 C 
ATOM     17  C   UNL     1      38.058 -25.784 -12.835  0.00  0.00    +0.005 C 
ENDBRANCH   7  12
BRANCH   6  18
ATOM     18  N   UNL     1      34.253 -22.371 -18.279  0.00  0.00    -0.316 N 
ATOM     19  H   UNL     1      33.441 -22.109 -18.770  0.00  0.00    +0.148 HD
BRANCH  18  20
ATOM     20  C   UNL     1      35.533 -22.054 -18.858  0.00  0.00    +0.114 C 
BRANCH  20  24
ATOM     21  N   UNL     1      36.453 -19.009 -20.908  0.00  0.00    -0.181 NA
ATOM     22  N   UNL     1      34.077 -19.363 -21.087  0.00  0.00    -0.204 NA
ATOM     23  N   UNL     1      35.114 -17.578 -22.198  0.00  0.00    -0.303 N 
ATOM     24  C   UNL     1      35.421 -20.852 -19.755  0.00  0.00    +0.020 C 
ATOM     25  C   UNL     1      36.518 -20.093 -20.106  0.00  0.00    +0.106 C 
ATOM     26  C   UNL     1      34.213 -20.436 -20.279  0.00  0.00    +0.163 C 
ATOM     27  C   UNL     1      35.221 -18.706 -21.356  0.00  0.00    +0.084 C 
ATOM     28  H   UNL     1      35.919 -17.058 -22.429  0.00  0.00    +0.154 HD
ATOM     29  H   UNL     1      34.237 -17.309 -22.555  0.00  0.00    +0.154 HD
ENDBRANCH  20  24
ENDBRANCH  18  20
ENDBRANCH   6  18
BRANCH   5  30
ATOM     30  C   UNL     1      30.450 -24.362 -14.046  0.00  0.00    +0.015 C 
ATOM     31  C   UNL     1      29.268 -25.233 -14.490  0.00  0.00    +0.001 C 
ENDBRANCH   5  30
TORSDOF 5
ENDMDL
MODEL 5
REMARK VINA RESULT:     -10.7      2.437      5.730
REMARK  Name = 44629554
REMARK  5 active torsions:
REMARK  status: ('A' for Active; 'I' for Inactive)
REMARK    1  A    between atoms: C_5  and  C_30
REMARK    2  A    between atoms: C_6  and  N_18
REMARK    3  A    between atoms: C_7  and  C_12
REMARK    4  A    between atoms: N_18  and  C_20
REMARK    5  A    between atoms: C_20  and  C_24
REMARK                            x       y       z     vdW  Elec       q    Type
REMARK                         _______ _______ _______ _____ _____    ______ ____
ROOT
ATOM      1  N   UNL     1      32.824 -23.152 -16.628  0.00  0.00    -0.152 N 
ATOM      2  N   UNL     1      33.564 -24.335 -14.665  0.00  0.00    -0.389 NA
ATOM      3  N   UNL     1      31.669 -22.707 -17.198  0.00  0.00    -0.174 NA
ATOM      4  C   UNL     1      32.566 -23.804 -15.420  0.00  0.00    +0.189 C 
ATOM      5  C   UNL     1      31.203 -23.764 -15.236  0.00  0.00    +0.112 C 
ATOM      6  C   UNL     1      34.132 -23.021 -17.121  0.00  0.00    +0.126 C 
ATOM      7  C   UNL     1      34.779 -24.201 -15.114  0.00  0.00    +0.140 C 
ATOM      8  C   UNL     1      35.145 -23.533 -16.401  0.00  0.00    +0.064 C 
ATOM      9  C   UNL     1      30.709 -23.080 -16.353  0.00  0.00    +0.100 C 
ENDROOT
BRANCH   7  12
ATOM     10  F   UNL     1      35.831 -22.904 -12.839  0.00  0.00    -0.204 F 
ATOM     11  F   UNL     1      36.031 -26.648 -15.757  0.00  0.00    -0.204 F 
ATOM     12  C   UNL     1      35.903 -24.762 -14.318  0.00  0.00    +0.085 C 
ATOM     13  C   UNL     1      36.378 -24.074 -13.202  0.00  0.00    +0.145 C 
ATOM     14  C   UNL     1      36.480 -25.977 -14.686  0.00  0.00    +0.145 C 
ATOM     15  C   UNL     1      37.432 -24.599 -12.454  0.00  0.00    +0.030 C 
ATOM     16  C   UNL     1      37.534 -26.503 -13.939  0.00  0.00    +0.030 C 
ATOM     17  C   UNL     1      38.010 -25.814 -12.823  0.00  0.00    +0.005 C 
ENDBRANCH   7  12
BRANCH   6  18
ATOM     18  N   UNL     1      34.293 -22.382 -18.318  0.00  0.00    -0.316 N 
ATOM     19  H   UNL     1      33.490 -22.157 -18.839  0.00  0.00    +0.148 HD
BRANCH  18  20
ATOM     20  C   UNL     1      35.579 -22.023 -18.855  0.00  0.00    +0.114 C 
BRANCH  20  24
ATOM     21  N   UNL     1      36.470 -18.978 -20.918  0.00  0.00    -0.181 NA
ATOM     22  N   UNL     1      34.099 -19.361 -21.102  0.00  0.00    -0.204 NA
ATOM     23  N   UNL     1      35.118 -17.569 -22.219  0.00  0.00    -0.303 N 
ATOM     24  C   UNL     1      35.456 -20.827 -19.759  0.00  0.00    +0.020 C 
ATOM     25  C   UNL     1      36.545 -20.056 -20.111  0.00  0.00    +0.106 C 
ATOM     26  C   UNL     1      34.245 -20.428 -20.288  0.00  0.00    +0.163 C 
ATOM     27  C   UNL     1      35.235 -18.692 -21.371  0.00  0.00    +0.084 C 
ATOM     28  H   UNL     1      35.917 -17.041 -22.450  0.00  0.00    +0.154 HD
ATOM     29  H   UNL     1      34.239 -17.312 -22.580  0.00  0.00    +0.154 HD
ENDBRANCH  20  24
ENDBRANCH  18  20
ENDBRANCH   6  18
BRANCH   5  30
ATOM     30  C   UNL     1      30.431 -24.315 -14.110  0.00  0.00    +0.015 C 
ATOM     31  C   UNL     1      29.187 -25.092 -14.559  0.00  0.00    +0.001 C 
ENDBRANCH   5  30
TORSDOF 5
ENDMDL
MODEL 6
REMARK VINA RESULT:     -10.7      2.509      7.383
REMARK  Name = 44629554
REMARK  5 active torsions:
REMARK  status: ('A' for Active; 'I' for Inactive)
REMARK    1  A    between atoms: C_5  and  C_30
REMARK    2  A    between atoms: C_6  and  N_18
REMARK    3  A    between atoms: C_7  and  C_12
REMARK    4  A    between atoms: N_18  and  C_20
REMARK    5  A    between atoms: C_20  and  C_24
REMARK                            x       y       z     vdW  Elec       q    Type
REMARK                         _______ _______ _______ _____ _____    ______ ____
ROOT
ATOM      1  N   UNL     1      32.611 -24.233 -14.054  0.00  0.00    -0.152 N 
ATOM      2  N   UNL     1      32.685 -23.056 -16.153  0.00  0.00    -0.389 NA
ATOM      3  N   UNL     1      31.697 -24.698 -13.155  0.00  0.00    -0.174 NA
ATOM      4  C   UNL     1      31.979 -23.601 -15.127  0.00  0.00    +0.189 C 
ATOM      5  C   UNL     1      30.627 -23.676 -14.885  0.00  0.00    +0.112 C 
ATOM      6  C   UNL     1      34.010 -24.328 -13.984  0.00  0.00    +0.126 C 
ATOM      7  C   UNL     1      33.982 -23.156 -16.097  0.00  0.00    +0.140 C 
ATOM      8  C   UNL     1      34.741 -23.801 -14.981  0.00  0.00    +0.064 C 
ATOM      9  C   UNL     1      30.517 -24.358 -13.668  0.00  0.00    +0.100 C 
ENDROOT
BRANCH   7  12
ATOM     10  F   UNL     1      36.622 -22.231 -15.725  0.00  0.00    -0.204 F 
ATOM     11  F   UNL     1      33.006 -22.898 -18.733  0.00  0.00    -0.204 F 
ATOM     12  C   UNL     1      34.793 -22.579 -17.201  0.00  0.00    +0.085 C 
ATOM     13  C   UNL     1      36.094 -22.140 -16.954  0.00  0.00    +0.145 C 
ATOM     14  C   UNL     1      34.256 -22.479 -18.484  0.00  0.00    +0.145 C 
ATOM     15  C   UNL     1      36.857 -21.599 -17.990  0.00  0.00    +0.030 C 
ATOM     16  C   UNL     1      35.017 -21.938 -19.520  0.00  0.00    +0.030 C 
ATOM     17  C   UNL     1      36.318 -21.498 -19.272  0.00  0.00    +0.005 C 
ENDBRANCH   7  12
BRANCH   6  18
ATOM     18  N   UNL     1      34.546 -24.948 -12.891  0.00  0.00    -0.316 N 
ATOM     19  H   UNL     1      34.157 -25.805 -12.602  0.00  0.00    +0.148 HD
BRANCH  18  20
ATOM     20  C   UNL     1      35.652 -24.413 -12.140  0.00  0.00    +0.114 C 
BRANCH  20  24
ATOM     21  N   UNL     1      39.296 -24.554 -13.150  0.00  0.00    -0.181 NA
ATOM     22  N   UNL     1      38.233 -26.607 -13.827  0.00  0.00    -0.204 NA
ATOM     23  N   UNL     1      40.511 -26.236 -14.245  0.00  0.00    -0.303 N 
ATOM     24  C   UNL     1      36.956 -24.902 -12.705  0.00  0.00    +0.020 C 
ATOM     25  C   UNL     1      38.109 -24.146 -12.653  0.00  0.00    +0.106 C 
ATOM     26  C   UNL     1      37.078 -26.137 -13.310  0.00  0.00    +0.163 C 
ATOM     27  C   UNL     1      39.286 -25.776 -13.714  0.00  0.00    +0.084 C 
ATOM     28  H   UNL     1      41.315 -25.670 -14.190  0.00  0.00    +0.154 HD
ATOM     29  H   UNL     1      40.562 -27.123 -14.670  0.00  0.00    +0.154 HD
ENDBRANCH  20  24
ENDBRANCH  18  20
ENDBRANCH   6  18
BRANCH   5  30
ATOM     30  C   UNL     1      29.534 -23.156 -15.723  0.00  0.00    +0.015 C 
ATOM     31  C   UNL     1      28.705 -24.265 -16.383  0.00  0.00    +0.001 C 
ENDBRANCH   5  30
TORSDOF 5
ENDMDL
MODEL 7
REMARK VINA RESULT:     -10.7      2.507      7.251
REMARK  Name = 44629554
REMARK  5 active torsions:
REMARK  status: ('A' for Active; 'I' for Inactive)
REMARK    1  A    between atoms: C_5  and  C_30
REMARK    2  A    between atoms: C_6  and  N_18
REMARK    3  A    between atoms: C_7  and  C_12
REMARK    4  A    between atoms: N_18  and  C_20
REMARK    5  A    between atoms: C_20  and  C_24
REMARK                            x       y       z     vdW  Elec       q    Type
REMARK                         _______ _______ _______ _____ _____    ______ ____
ROOT
ATOM      1  N   UNL     1      32.654 -24.257 -14.115  0.00  0.00    -0.152 N 
ATOM      2  N   UNL     1      32.742 -23.077 -16.212  0.00  0.00    -0.389 NA
ATOM      3  N   UNL     1      31.734 -24.735 -13.230  0.00  0.00    -0.174 NA
ATOM      4  C   UNL     1      32.029 -23.632 -15.196  0.00  0.00    +0.189 C 
ATOM      5  C   UNL     1      30.675 -23.724 -14.973  0.00  0.00    +0.112 C 
ATOM      6  C   UNL     1      34.053 -24.334 -14.025  0.00  0.00    +0.126 C 
ATOM      7  C   UNL     1      34.039 -23.160 -16.138  0.00  0.00    +0.140 C 
ATOM      8  C   UNL     1      34.791 -23.797 -15.011  0.00  0.00    +0.064 C 
ATOM      9  C   UNL     1      30.556 -24.409 -13.759  0.00  0.00    +0.100 C 
ENDROOT
BRANCH   7  12
ATOM     10  F   UNL     1      33.100 -22.916 -18.787  0.00  0.00    -0.204 F 
ATOM     11  F   UNL     1      36.660 -22.197 -15.726  0.00  0.00    -0.204 F 
ATOM     12  C   UNL     1      34.859 -22.571 -17.229  0.00  0.00    +0.085 C 
ATOM     13  C   UNL     1      34.338 -22.477 -18.519  0.00  0.00    +0.145 C 
ATOM     14  C   UNL     1      36.148 -22.111 -16.963  0.00  0.00    +0.145 C 
ATOM     15  C   UNL     1      35.106 -21.923 -19.544  0.00  0.00    +0.030 C 
ATOM     16  C   UNL     1      36.917 -21.558 -17.987  0.00  0.00    +0.030 C 
ATOM     17  C   UNL     1      36.396 -21.465 -19.277  0.00  0.00    +0.005 C 
ENDBRANCH   7  12
BRANCH   6  18
ATOM     18  N   UNL     1      34.581 -24.950 -12.926  0.00  0.00    -0.316 N 
ATOM     19  H   UNL     1      34.176 -25.793 -12.623  0.00  0.00    +0.148 HD
BRANCH  18  20
ATOM     20  C   UNL     1      35.701 -24.425 -12.188  0.00  0.00    +0.114 C 
BRANCH  20  24
ATOM     21  N   UNL     1      38.237 -26.660 -13.891  0.00  0.00    -0.181 NA
ATOM     22  N   UNL     1      39.336 -24.622 -13.225  0.00  0.00    -0.204 NA
ATOM     23  N   UNL     1      40.517 -26.322 -14.326  0.00  0.00    -0.303 N 
ATOM     24  C   UNL     1      36.994 -24.935 -12.763  0.00  0.00    +0.020 C 
ATOM     25  C   UNL     1      37.093 -26.171 -13.366  0.00  0.00    +0.106 C 
ATOM     26  C   UNL     1      38.159 -24.196 -12.719  0.00  0.00    +0.163 C 
ATOM     27  C   UNL     1      39.303 -25.844 -13.788  0.00  0.00    +0.084 C 
ATOM     28  H   UNL     1      40.553 -27.210 -14.751  0.00  0.00    +0.154 HD
ATOM     29  H   UNL     1      41.330 -25.768 -14.278  0.00  0.00    +0.154 HD
ENDBRANCH  20  24
ENDBRANCH  18  20
ENDBRANCH   6  18
BRANCH   5  30
ATOM     30  C   UNL     1      29.587 -23.217 -15.826  0.00  0.00    +0.015 C 
ATOM     31  C   UNL     1      28.637 -24.321 -16.306  0.00  0.00    +0.001 C 
ENDBRANCH   5  30
TORSDOF 5
ENDMDL
MODEL 8
REMARK VINA RESULT:     -10.5      3.164      6.838
REMARK  Name = 44629554
REMARK  5 active torsions:
REMARK  status: ('A' for Active; 'I' for Inactive)
REMARK    1  A    between atoms: C_5  and  C_30
REMARK    2  A    between atoms: C_6  and  N_18
REMARK    3  A    between atoms: C_7  and  C_12
REMARK    4  A    between atoms: N_18  and  C_20
REMARK    5  A    between atoms: C_20  and  C_24
REMARK                            x       y       z     vdW  Elec       q    Type
REMARK                         _______ _______ _______ _____ _____    ______ ____
ROOT
ATOM      1  N   UNL     1      35.491 -22.937 -15.990  0.00  0.00    -0.152 N 
ATOM      2  N   UNL     1      33.649 -23.622 -14.597  0.00  0.00    -0.389 NA
ATOM      3  N   UNL     1      36.832 -22.710 -15.900  0.00  0.00    -0.174 NA
ATOM      4  C   UNL     1      34.969 -23.336 -14.758  0.00  0.00    +0.189 C 
ATOM      5  C   UNL     1      36.022 -23.355 -13.873  0.00  0.00    +0.112 C 
ATOM      6  C   UNL     1      34.671 -22.807 -17.122  0.00  0.00    +0.126 C 
ATOM      7  C   UNL     1      32.890 -23.515 -15.650  0.00  0.00    +0.140 C 
ATOM      8  C   UNL     1      33.361 -23.082 -17.002  0.00  0.00    +0.064 C 
ATOM      9  C   UNL     1      37.133 -22.964 -14.629  0.00  0.00    +0.100 C 
ENDROOT
BRANCH   7  12
ATOM     10  F   UNL     1      31.909 -25.563 -13.974  0.00  0.00    -0.204 F 
ATOM     11  F   UNL     1      30.900 -22.099 -17.064  0.00  0.00    -0.204 F 
ATOM     12  C   UNL     1      31.441 -23.824 -15.522  0.00  0.00    +0.085 C 
ATOM     13  C   UNL     1      31.018 -24.848 -14.676  0.00  0.00    +0.145 C 
ATOM     14  C   UNL     1      30.505 -23.087 -16.247  0.00  0.00    +0.145 C 
ATOM     15  C   UNL     1      29.658 -25.137 -14.555  0.00  0.00    +0.030 C 
ATOM     16  C   UNL     1      29.146 -23.375 -16.127  0.00  0.00    +0.030 C 
ATOM     17  C   UNL     1      28.722 -24.401 -15.282  0.00  0.00    +0.005 C 
ENDBRANCH   7  12
BRANCH   6  18
ATOM     18  N   UNL     1      35.261 -22.396 -18.284  0.00  0.00    -0.316 N 
ATOM     19  H   UNL     1      36.218 -22.172 -18.268  0.00  0.00    +0.148 HD
BRANCH  18  20
ATOM     20  C   UNL     1      34.552 -22.277 -19.531  0.00  0.00    +0.114 C 
BRANCH  20  24
ATOM     21  N   UNL     1      33.780 -18.907 -21.072  0.00  0.00    -0.181 NA
ATOM     22  N   UNL     1      36.159 -19.067 -20.730  0.00  0.00    -0.204 NA
ATOM     23  N   UNL     1      35.205 -17.141 -21.669  0.00  0.00    -0.303 N 
ATOM     24  C   UNL     1      34.727 -20.898 -20.104  0.00  0.00    +0.020 C 
ATOM     25  C   UNL     1      33.659 -20.147 -20.551  0.00  0.00    +0.106 C 
ATOM     26  C   UNL     1      35.966 -20.301 -20.220  0.00  0.00    +0.163 C 
ATOM     27  C   UNL     1      35.039 -18.436 -21.130  0.00  0.00    +0.084 C 
ATOM     28  H   UNL     1      34.420 -16.633 -21.978  0.00  0.00    +0.154 HD
ATOM     29  H   UNL     1      36.104 -16.746 -21.737  0.00  0.00    +0.154 HD
ENDBRANCH  20  24
ENDBRANCH  18  20
ENDBRANCH   6  18
BRANCH   5  30
ATOM     30  C   UNL     1      35.990 -23.710 -12.445  0.00  0.00    +0.015 C 
ATOM     31  C   UNL     1      37.070 -22.993 -11.624  0.00  0.00    +0.001 C 
ENDBRANCH   5  30
TORSDOF 5
ENDMDL
MODEL 9
REMARK VINA RESULT:     -10.5      1.947      4.762
REMARK  Name = 44629554
REMARK  5 active torsions:
REMARK  status: ('A' for Active; 'I' for Inactive)
REMARK    1  A    between atoms: C_5  and  C_30
REMARK    2  A    between atoms: C_6  and  N_18
REMARK    3  A    between atoms: C_7  and  C_12
REMARK    4  A    between atoms: N_18  and  C_20
REMARK    5  A    between atoms: C_20  and  C_24
REMARK                            x       y       z     vdW  Elec       q    Type
REMARK                         _______ _______ _______ _____ _____    ______ ____
ROOT
ATOM      1  N   UNL     1      34.684 -24.154 -13.422  0.00  0.00    -0.152 N 
ATOM      2  N   UNL     1      36.172 -23.563 -15.221  0.00  0.00    -0.389 NA
ATOM      3  N   UNL     1      34.729 -24.702 -12.175  0.00  0.00    -0.174 NA
ATOM      4  C   UNL     1      35.962 -24.077 -13.979  0.00  0.00    +0.189 C 
ATOM      5  C   UNL     1      36.829 -24.596 -13.046  0.00  0.00    +0.112 C 
ATOM      6  C   UNL     1      33.553 -23.710 -14.125  0.00  0.00    +0.126 C 
ATOM      7  C   UNL     1      35.126 -23.137 -15.868  0.00  0.00    +0.140 C 
ATOM      8  C   UNL     1      33.721 -23.195 -15.355  0.00  0.00    +0.064 C 
ATOM      9  C   UNL     1      36.018 -24.960 -11.965  0.00  0.00    +0.100 C 
ENDROOT
BRANCH   7  12
ATOM     10  F   UNL     1      37.426 -21.680 -16.610  0.00  0.00    -0.204 F 
ATOM     11  F   UNL     1      33.201 -23.415 -17.913  0.00  0.00    -0.204 F 
ATOM     12  C   UNL     1      35.309 -22.562 -17.227  0.00  0.00    +0.085 C 
ATOM     13  C   UNL     1      36.469 -21.853 -17.533  0.00  0.00    +0.145 C 
ATOM     14  C   UNL     1      34.321 -22.735 -18.196  0.00  0.00    +0.145 C 
ATOM     15  C   UNL     1      36.643 -21.314 -18.809  0.00  0.00    +0.030 C 
ATOM     16  C   UNL     1      34.493 -22.196 -19.471  0.00  0.00    +0.030 C 
ATOM     17  C   UNL     1      35.654 -21.485 -19.777  0.00  0.00    +0.005 C 
ENDBRANCH   7  12
BRANCH   6  18
ATOM     18  N   UNL     1      32.339 -23.837 -13.511  0.00  0.00    -0.316 N 
ATOM     19  H   UNL     1      32.131 -23.239 -12.758  0.00  0.00    +0.148 HD
BRANCH  18  20
ATOM     20  C   UNL     1      31.348 -24.802 -13.911  0.00  0.00    +0.114 C 
BRANCH  20  24
ATOM     21  N   UNL     1      28.609 -24.299 -16.474  0.00  0.00    -0.181 NA
ATOM     22  N   UNL     1      29.046 -22.189 -15.395  0.00  0.00    -0.204 NA
ATOM     23  N   UNL     1      27.413 -22.370 -17.069  0.00  0.00    -0.303 N 
ATOM     24  C   UNL     1      30.291 -24.149 -14.759  0.00  0.00    +0.020 C 
ATOM     25  C   UNL     1      29.563 -24.852 -15.697  0.00  0.00    +0.106 C 
ATOM     26  C   UNL     1      29.987 -22.807 -14.651  0.00  0.00    +0.163 C 
ATOM     27  C   UNL     1      28.405 -22.984 -16.273  0.00  0.00    +0.084 C 
ATOM     28  H   UNL     1      26.912 -22.902 -17.729  0.00  0.00    +0.154 HD
ATOM     29  H   UNL     1      27.222 -21.410 -16.966  0.00  0.00    +0.154 HD
ENDBRANCH  20  24
ENDBRANCH  18  20
ENDBRANCH   6  18
BRANCH   5  30
ATOM     30  C   UNL     1      38.290 -24.736 -13.157  0.00  0.00    +0.015 C 
ATOM     31  C   UNL     1      38.714 -25.892 -14.072  0.00  0.00    +0.001 C 
ENDBRANCH   5  30
TORSDOF 5
ENDMDL
