MODEL 1
REMARK VINA RESULT:      -6.2      0.000      0.000
REMARK  Name = 5287565
REMARK  0 active torsions:
REMARK  status: ('A' for Active; 'I' for Inactive)
REMARK                            x       y       z     vdW  Elec       q    Type
REMARK                         _______ _______ _______ _____ _____    ______ ____
ROOT
ATOM      1  N   UNL     1      32.648 -20.953 -20.144  0.00  0.00    -0.323 N 
ATOM      2  N   UNL     1      36.126 -20.546 -19.766  0.00  0.00    -0.247 NA
ATOM      3  N   UNL     1      35.502 -22.412 -18.334  0.00  0.00    -0.232 NA
ATOM      4  N   UNL     1      33.241 -23.180 -18.158  0.00  0.00    -0.345 N 
ATOM      5  C   UNL     1      33.849 -21.316 -19.591  0.00  0.00    +0.164 C 
ATOM      6  C   UNL     1      34.817 -20.459 -20.108  0.00  0.00    +0.082 C 
ATOM      7  C   UNL     1      34.203 -22.305 -18.691  0.00  0.00    +0.123 C 
ATOM      8  C   UNL     1      34.169 -19.563 -20.992  0.00  0.00    +0.032 C 
ATOM      9  C   UNL     1      32.831 -19.891 -20.993  0.00  0.00    +0.060 C 
ATOM     10  C   UNL     1      36.372 -21.537 -18.886  0.00  0.00    +0.251 C 
ATOM     11  H   UNL     1      31.785 -21.388 -19.958  0.00  0.00    +0.148 HD
ATOM     12  H   UNL     1      33.512 -23.878 -17.518  0.00  0.00    +0.143 HD
ATOM     13  H   UNL     1      32.297 -23.094 -18.424  0.00  0.00    +0.143 HD
ENDROOT
TORSDOF 0
ENDMDL
MODEL 2
REMARK VINA RESULT:      -6.2      0.996      2.399
REMARK  Name = 5287565
REMARK  0 active torsions:
REMARK  status: ('A' for Active; 'I' for Inactive)
REMARK                            x       y       z     vdW  Elec       q    Type
REMARK                         _______ _______ _______ _____ _____    ______ ____
ROOT
ATOM      1  N   UNL     1      35.046 -19.858 -20.616  0.00  0.00    -0.323 N 
ATOM      2  N   UNL     1      32.732 -21.986 -19.027  0.00  0.00    -0.247 NA
ATOM      3  N   UNL     1      34.929 -22.650 -18.220  0.00  0.00    -0.232 NA
ATOM      4  N   UNL     1      36.934 -21.562 -18.945  0.00  0.00    -0.345 N 
ATOM      5  C   UNL     1      34.747 -20.888 -19.760  0.00  0.00    +0.164 C 
ATOM      6  C   UNL     1      33.365 -21.046 -19.771  0.00  0.00    +0.082 C 
ATOM      7  C   UNL     1      35.536 -21.705 -18.970  0.00  0.00    +0.123 C 
ATOM      8  C   UNL     1      32.830 -20.082 -20.660  0.00  0.00    +0.032 C 
ATOM      9  C   UNL     1      33.891 -19.364 -21.167  0.00  0.00    +0.060 C 
ATOM     10  C   UNL     1      33.582 -22.731 -18.293  0.00  0.00    +0.251 C 
ATOM     11  H   UNL     1      35.953 -19.525 -20.806  0.00  0.00    +0.148 HD
ATOM     12  H   UNL     1      37.479 -22.153 -18.377  0.00  0.00    +0.143 HD
ATOM     13  H   UNL     1      37.368 -20.870 -19.496  0.00  0.00    +0.143 HD
ENDROOT
TORSDOF 0
ENDMDL
MODEL 3
REMARK VINA RESULT:      -6.1      1.127      2.952
REMARK  Name = 5287565
REMARK  0 active torsions:
REMARK  status: ('A' for Active; 'I' for Inactive)
REMARK                            x       y       z     vdW  Elec       q    Type
REMARK                         _______ _______ _______ _____ _____    ______ ____
ROOT
ATOM      1  N   UNL     1      35.475 -19.933 -20.528  0.00  0.00    -0.323 N 
ATOM      2  N   UNL     1      34.964 -22.631 -18.322  0.00  0.00    -0.247 NA
ATOM      3  N   UNL     1      32.759 -21.973 -19.110  0.00  0.00    -0.232 NA
ATOM      4  N   UNL     1      32.445 -20.170 -20.654  0.00  0.00    -0.345 N 
ATOM      5  C   UNL     1      34.653 -20.816 -19.876  0.00  0.00    +0.164 C 
ATOM      6  C   UNL     1      35.463 -21.639 -19.099  0.00  0.00    +0.082 C 
ATOM      7  C   UNL     1      33.280 -20.990 -19.877  0.00  0.00    +0.123 C 
ATOM      8  C   UNL     1      36.805 -21.230 -19.298  0.00  0.00    +0.032 C 
ATOM      9  C   UNL     1      36.781 -20.175 -20.184  0.00  0.00    +0.060 C 
ATOM     10  C   UNL     1      33.621 -22.723 -18.390  0.00  0.00    +0.251 C 
ATOM     11  H   UNL     1      35.173 -19.231 -21.148  0.00  0.00    +0.148 HD
ATOM     12  H   UNL     1      31.469 -20.309 -20.642  0.00  0.00    +0.143 HD
ATOM     13  H   UNL     1      32.834 -19.456 -21.209  0.00  0.00    +0.143 HD
ENDROOT
TORSDOF 0
ENDMDL
MODEL 4
REMARK VINA RESULT:      -6.0      7.819      8.061
REMARK  Name = 5287565
REMARK  0 active torsions:
REMARK  status: ('A' for Active; 'I' for Inactive)
REMARK                            x       y       z     vdW  Elec       q    Type
REMARK                         _______ _______ _______ _____ _____    ______ ____
ROOT
ATOM      1  N   UNL     1      35.527 -24.916 -13.180  0.00  0.00    -0.323 N 
ATOM      2  N   UNL     1      39.040 -24.674 -13.078  0.00  0.00    -0.247 NA
ATOM      3  N   UNL     1      38.529 -26.461 -14.648  0.00  0.00    -0.232 NA
ATOM      4  N   UNL     1      36.280 -27.109 -15.151  0.00  0.00    -0.345 N 
ATOM      5  C   UNL     1      36.774 -25.323 -13.581  0.00  0.00    +0.164 C 
ATOM      6  C   UNL     1      37.702 -24.533 -12.909  0.00  0.00    +0.082 C 
ATOM      7  C   UNL     1      37.200 -26.301 -14.463  0.00  0.00    +0.123 C 
ATOM      8  C   UNL     1      36.982 -23.632 -12.086  0.00  0.00    +0.032 C 
ATOM      9  C   UNL     1      35.642 -23.893 -12.274  0.00  0.00    +0.060 C 
ATOM     10  C   UNL     1      39.356 -25.648 -13.954  0.00  0.00    +0.251 C 
ATOM     11  H   UNL     1      34.678 -25.302 -13.495  0.00  0.00    +0.148 HD
ATOM     12  H   UNL     1      36.602 -27.800 -15.775  0.00  0.00    +0.143 HD
ATOM     13  H   UNL     1      35.313 -26.985 -15.009  0.00  0.00    +0.143 HD
ENDROOT
TORSDOF 0
ENDMDL
MODEL 5
REMARK VINA RESULT:      -6.0      9.812     11.186
REMARK  Name = 5287565
REMARK  0 active torsions:
REMARK  status: ('A' for Active; 'I' for Inactive)
REMARK                            x       y       z     vdW  Elec       q    Type
REMARK                         _______ _______ _______ _____ _____    ______ ____
ROOT
ATOM      1  N   UNL     1      42.269 -12.278 -16.187  0.00  0.00    -0.323 N 
ATOM      2  N   UNL     1      42.054 -15.748 -16.750  0.00  0.00    -0.247 NA
ATOM      3  N   UNL     1      40.772 -15.308 -14.729  0.00  0.00    -0.232 NA
ATOM      4  N   UNL     1      40.541 -13.104 -13.823  0.00  0.00    -0.345 N 
ATOM      5  C   UNL     1      41.824 -13.528 -15.841  0.00  0.00    +0.164 C 
ATOM      6  C   UNL     1      42.311 -14.418 -16.794  0.00  0.00    +0.082 C 
ATOM      7  C   UNL     1      41.043 -13.986 -14.795  0.00  0.00    +0.123 C 
ATOM      8  C   UNL     1      43.067 -13.672 -17.731  0.00  0.00    +0.032 C 
ATOM      9  C   UNL     1      43.024 -12.354 -17.330  0.00  0.00    +0.060 C 
ATOM     10  C   UNL     1      41.287 -16.097 -15.697  0.00  0.00    +0.251 C 
ATOM     11  H   UNL     1      42.076 -11.451 -15.689  0.00  0.00    +0.148 HD
ATOM     12  H   UNL     1      39.987 -13.449 -13.085  0.00  0.00    +0.143 HD
ATOM     13  H   UNL     1      40.744 -12.142 -13.879  0.00  0.00    +0.143 HD
ENDROOT
TORSDOF 0
ENDMDL
MODEL 6
REMARK VINA RESULT:      -6.0      6.119      8.031
REMARK  Name = 5287565
REMARK  0 active torsions:
REMARK  status: ('A' for Active; 'I' for Inactive)
REMARK                            x       y       z     vdW  Elec       q    Type
REMARK                         _______ _______ _______ _____ _____    ______ ____
ROOT
ATOM      1  N   UNL     1      35.180 -16.831 -23.242  0.00  0.00    -0.323 N 
ATOM      2  N   UNL     1      33.427 -16.079 -26.202  0.00  0.00    -0.247 NA
ATOM      3  N   UNL     1      33.399 -14.048 -24.862  0.00  0.00    -0.232 NA
ATOM      4  N   UNL     1      34.441 -13.928 -22.710  0.00  0.00    -0.345 N 
ATOM      5  C   UNL     1      34.478 -15.963 -24.037  0.00  0.00    +0.164 C 
ATOM      6  C   UNL     1      34.132 -16.651 -25.196  0.00  0.00    +0.082 C 
ATOM      7  C   UNL     1      34.102 -14.641 -23.873  0.00  0.00    +0.123 C 
ATOM      8  C   UNL     1      34.645 -17.966 -25.082  0.00  0.00    +0.032 C 
ATOM      9  C   UNL     1      35.286 -18.048 -23.866  0.00  0.00    +0.060 C 
ATOM     10  C   UNL     1      33.108 -14.793 -25.951  0.00  0.00    +0.251 C 
ATOM     11  H   UNL     1      35.551 -16.614 -22.356  0.00  0.00    +0.148 HD
ATOM     12  H   UNL     1      34.165 -12.988 -22.612  0.00  0.00    +0.143 HD
ATOM     13  H   UNL     1      34.954 -14.369 -21.995  0.00  0.00    +0.143 HD
ENDROOT
TORSDOF 0
ENDMDL
MODEL 7
REMARK VINA RESULT:      -5.8      4.518      5.982
REMARK  Name = 5287565
REMARK  0 active torsions:
REMARK  status: ('A' for Active; 'I' for Inactive)
REMARK                            x       y       z     vdW  Elec       q    Type
REMARK                         _______ _______ _______ _____ _____    ______ ____
ROOT
ATOM      1  N   UNL     1      35.046 -17.904 -23.705  0.00  0.00    -0.323 N 
ATOM      2  N   UNL     1      34.212 -14.691 -22.528  0.00  0.00    -0.247 NA
ATOM      3  N   UNL     1      34.905 -15.969 -20.578  0.00  0.00    -0.232 NA
ATOM      4  N   UNL     1      35.599 -18.255 -20.734  0.00  0.00    -0.345 N 
ATOM      5  C   UNL     1      34.910 -16.992 -22.691  0.00  0.00    +0.164 C 
ATOM      6  C   UNL     1      34.453 -15.807 -23.260  0.00  0.00    +0.082 C 
ATOM      7  C   UNL     1      35.138 -17.068 -21.328  0.00  0.00    +0.123 C 
ATOM      8  C   UNL     1      34.314 -16.025 -24.652  0.00  0.00    +0.032 C 
ATOM      9  C   UNL     1      34.686 -17.329 -24.898  0.00  0.00    +0.060 C 
ATOM     10  C   UNL     1      34.462 -14.863 -21.215  0.00  0.00    +0.251 C 
ATOM     11  H   UNL     1      35.354 -18.833 -23.594  0.00  0.00    +0.148 HD
ATOM     12  H   UNL     1      35.756 -18.290 -19.762  0.00  0.00    +0.143 HD
ATOM     13  H   UNL     1      35.766 -19.051 -21.290  0.00  0.00    +0.143 HD
ENDROOT
TORSDOF 0
ENDMDL
MODEL 8
REMARK VINA RESULT:      -5.8      4.379      5.909
REMARK  Name = 5287565
REMARK  0 active torsions:
REMARK  status: ('A' for Active; 'I' for Inactive)
REMARK                            x       y       z     vdW  Elec       q    Type
REMARK                         _______ _______ _______ _____ _____    ______ ____
ROOT
ATOM      1  N   UNL     1      34.344 -15.005 -22.684  0.00  0.00    -0.323 N 
ATOM      2  N   UNL     1      35.386 -17.791 -20.798  0.00  0.00    -0.247 NA
ATOM      3  N   UNL     1      35.669 -18.409 -23.134  0.00  0.00    -0.232 NA
ATOM      4  N   UNL     1      35.124 -16.914 -24.922  0.00  0.00    -0.345 N 
ATOM      5  C   UNL     1      34.836 -16.282 -22.594  0.00  0.00    +0.164 C 
ATOM      6  C   UNL     1      34.931 -16.593 -21.241  0.00  0.00    +0.082 C 
ATOM      7  C   UNL     1      35.212 -17.208 -23.551  0.00  0.00    +0.123 C 
ATOM      8  C   UNL     1      34.481 -15.467 -20.509  0.00  0.00    +0.032 C 
ATOM      9  C   UNL     1      34.125 -14.503 -21.427  0.00  0.00    +0.060 C 
ATOM     10  C   UNL     1      35.727 -18.624 -21.801  0.00  0.00    +0.251 C 
ATOM     11  H   UNL     1      34.174 -14.522 -23.526  0.00  0.00    +0.148 HD
ATOM     12  H   UNL     1      35.397 -17.586 -25.588  0.00  0.00    +0.143 HD
ATOM     13  H   UNL     1      34.790 -16.036 -25.216  0.00  0.00    +0.143 HD
ENDROOT
TORSDOF 0
ENDMDL
MODEL 9
REMARK VINA RESULT:      -5.8      6.934      8.157
REMARK  Name = 5287565
REMARK  0 active torsions:
REMARK  status: ('A' for Active; 'I' for Inactive)
REMARK                            x       y       z     vdW  Elec       q    Type
REMARK                         _______ _______ _______ _____ _____    ______ ____
ROOT
ATOM      1  N   UNL     1      32.848 -13.790 -23.574  0.00  0.00    -0.323 N 
ATOM      2  N   UNL     1      35.029 -16.544 -23.836  0.00  0.00    -0.247 NA
ATOM      3  N   UNL     1      33.990 -16.291 -26.021  0.00  0.00    -0.232 NA
ATOM      4  N   UNL     1      32.390 -14.570 -26.479  0.00  0.00    -0.345 N 
ATOM      5  C   UNL     1      33.419 -14.810 -24.292  0.00  0.00    +0.164 C 
ATOM      6  C   UNL     1      34.294 -15.476 -23.439  0.00  0.00    +0.082 C 
ATOM      7  C   UNL     1      33.269 -15.228 -25.602  0.00  0.00    +0.123 C 
ATOM      8  C   UNL     1      34.238 -14.831 -22.179  0.00  0.00    +0.032 C 
ATOM      9  C   UNL     1      33.337 -13.795 -22.292  0.00  0.00    +0.060 C 
ATOM     10  C   UNL     1      34.815 -16.875 -25.125  0.00  0.00    +0.251 C 
ATOM     11  H   UNL     1      32.186 -13.152 -23.926  0.00  0.00    +0.148 HD
ATOM     12  H   UNL     1      32.297 -14.882 -27.409  0.00  0.00    +0.143 HD
ATOM     13  H   UNL     1      31.869 -13.796 -26.165  0.00  0.00    +0.143 HD
ENDROOT
TORSDOF 0
ENDMDL
