MODEL 1
REMARK VINA RESULT:     -12.0      0.000      0.000
REMARK  Name = 198752
REMARK  6 active torsions:
REMARK  status: ('A' for Active; 'I' for Inactive)
REMARK    1  A    between atoms: C_1  and  C_3
REMARK    2  A    between atoms: C_1  and  C_16
REMARK    3  A    between atoms: N_2  and  C_9
REMARK    4  A    between atoms: C_9  and  C_10
REMARK    5  A    between atoms: C_16  and  C_18
REMARK    6  A    between atoms: C_18  and  C_20
REMARK                            x       y       z     vdW  Elec       q    Type
REMARK                         _______ _______ _______ _____ _____    ______ ____
ROOT
ATOM      1  C   UNL     1      36.071 -21.583 -19.265  0.00  0.00    +0.008 C 
ENDROOT
BRANCH   1   3
ATOM      2  N   UNL     1      35.059 -18.101 -21.611  0.00  0.00    +0.390 N 
ATOM      3  C   UNL     1      35.808 -20.700 -20.481  0.00  0.00    -0.004 C 
ATOM      4  C   UNL     1      36.772 -19.509 -20.515  0.00  0.00    -0.023 C 
ATOM      5  C   UNL     1      34.362 -20.195 -20.494  0.00  0.00    -0.023 C 
ATOM      6  C   UNL     1      36.451 -18.566 -21.676  0.00  0.00    -0.077 C 
ATOM      7  C   UNL     1      34.120 -19.229 -21.656  0.00  0.00    -0.077 C 
ATOM      8  H   UNL     1      34.930 -17.619 -20.721  0.00  0.00    -0.079 HD
BRANCH   2   9
ATOM      9  C   UNL     1      34.781 -17.160 -22.697  0.00  0.00    -0.050 C 
BRANCH   9  10
ATOM     10  C   UNL     1      33.981 -15.977 -22.222  0.00  0.00    -0.043 C 
ATOM     11  C   UNL     1      33.462 -15.086 -23.152  0.00  0.00    -0.006 C 
ATOM     12  C   UNL     1      33.771 -15.793 -20.862  0.00  0.00    -0.006 C 
ATOM     13  C   UNL     1      32.721 -13.989 -22.711  0.00  0.00    -0.000 C 
ATOM     14  C   UNL     1      33.030 -14.697 -20.423  0.00  0.00    -0.000 C 
ATOM     15  C   UNL     1      32.505 -13.794 -21.348  0.00  0.00    -0.000 C 
ENDBRANCH   9  10
ENDBRANCH   2   9
ENDBRANCH   1   3
BRANCH   1  16
ATOM     16  C   UNL     1      34.779 -22.204 -18.733  0.00  0.00    +0.069 C 
BRANCH  16  18
ATOM     17  O   UNL     1      36.047 -22.938 -16.819  0.00  0.00    -0.291 OA
ATOM     18  C   UNL     1      34.910 -22.762 -17.303  0.00  0.00    +0.173 C 
BRANCH  18  20
ATOM     19  N   UNL     1      30.065 -22.794 -16.965  0.00  0.00    -0.333 N 
ATOM     20  C   UNL     1      33.717 -23.078 -16.536  0.00  0.00    +0.036 C 
ATOM     21  C   UNL     1      31.393 -23.695 -15.074  0.00  0.00    -0.009 C 
ATOM     22  C   UNL     1      30.210 -24.114 -14.223  0.00  0.00    +0.028 C 
ATOM     23  C   UNL     1      31.270 -23.123 -16.360  0.00  0.00    +0.041 C 
ATOM     24  C   UNL     1      29.107 -24.816 -15.014  0.00  0.00    +0.006 C 
ATOM     25  C   UNL     1      28.190 -23.867 -15.786  0.00  0.00    +0.022 C 
ATOM     26  C   UNL     1      32.452 -22.840 -17.077  0.00  0.00    +0.017 C 
ATOM     27  C   UNL     1      28.839 -22.566 -16.233  0.00  0.00    +0.087 C 
ATOM     28  C   UNL     1      33.829 -23.606 -15.259  0.00  0.00    +0.003 C 
ATOM     29  C   UNL     1      32.679 -23.910 -14.534  0.00  0.00    -0.003 C 
ATOM     30  H   UNL     1      30.043 -22.710 -17.946  0.00  0.00    +0.147 HD
ENDBRANCH  18  20
ENDBRANCH  16  18
ENDBRANCH   1  16
TORSDOF 6
ENDMDL
MODEL 2
REMARK VINA RESULT:     -12.0      4.746     11.983
REMARK  Name = 198752
REMARK  6 active torsions:
REMARK  status: ('A' for Active; 'I' for Inactive)
REMARK    1  A    between atoms: C_1  and  C_3
REMARK    2  A    between atoms: C_1  and  C_16
REMARK    3  A    between atoms: N_2  and  C_9
REMARK    4  A    between atoms: C_9  and  C_10
REMARK    5  A    between atoms: C_16  and  C_18
REMARK    6  A    between atoms: C_18  and  C_20
REMARK                            x       y       z     vdW  Elec       q    Type
REMARK                         _______ _______ _______ _____ _____    ______ ____
ROOT
ATOM      1  C   UNL     1      33.460 -15.391 -25.723  0.00  0.00    +0.008 C 
ENDROOT
BRANCH   1   3
ATOM      2  N   UNL     1      34.965 -17.945 -22.582  0.00  0.00    +0.390 N 
ATOM      3  C   UNL     1      34.448 -16.108 -24.808  0.00  0.00    -0.004 C 
ATOM      4  C   UNL     1      34.327 -17.629 -24.951  0.00  0.00    -0.023 C 
ATOM      5  C   UNL     1      34.233 -15.708 -23.344  0.00  0.00    -0.023 C 
ATOM      6  C   UNL     1      35.243 -18.356 -23.965  0.00  0.00    -0.077 C 
ATOM      7  C   UNL     1      35.153 -16.499 -22.411  0.00  0.00    -0.077 C 
ATOM      8  H   UNL     1      33.989 -18.162 -22.380  0.00  0.00    -0.079 HD
BRANCH   2   9
ATOM      9  C   UNL     1      35.812 -18.685 -21.647  0.00  0.00    -0.050 C 
BRANCH   9  10
ATOM     10  C   UNL     1      35.028 -19.710 -20.870  0.00  0.00    -0.043 C 
ATOM     11  C   UNL     1      35.704 -20.692 -20.160  0.00  0.00    -0.006 C 
ATOM     12  C   UNL     1      33.641 -19.658 -20.874  0.00  0.00    -0.006 C 
ATOM     13  C   UNL     1      34.978 -21.642 -19.441  0.00  0.00    -0.000 C 
ATOM     14  C   UNL     1      32.915 -20.606 -20.155  0.00  0.00    -0.000 C 
ATOM     15  C   UNL     1      33.584 -21.599 -19.439  0.00  0.00    -0.000 C 
ENDBRANCH   9  10
ENDBRANCH   2   9
ENDBRANCH   1   3
BRANCH   1  16
ATOM     16  C   UNL     1      33.055 -14.030 -25.156  0.00  0.00    +0.069 C 
BRANCH  16  18
ATOM     17  O   UNL     1      33.917 -12.995 -27.156  0.00  0.00    -0.291 OA
ATOM     18  C   UNL     1      33.624 -12.841 -25.952  0.00  0.00    +0.173 C 
BRANCH  18  20
ATOM     19  N   UNL     1      31.918  -9.373 -23.010  0.00  0.00    -0.333 N 
ATOM     20  C   UNL     1      33.814 -11.556 -25.299  0.00  0.00    +0.036 C 
ATOM     21  C   UNL     1      34.168  -9.078 -24.012  0.00  0.00    -0.009 C 
ATOM     22  C   UNL     1      34.484  -7.761 -23.332  0.00  0.00    +0.028 C 
ATOM     23  C   UNL     1      32.977  -9.807 -23.796  0.00  0.00    +0.041 C 
ATOM     24  C   UNL     1      34.105  -7.733 -21.851  0.00  0.00    +0.006 C 
ATOM     25  C   UNL     1      32.619  -7.488 -21.590  0.00  0.00    +0.022 C 
ATOM     26  C   UNL     1      32.835 -11.054 -24.441  0.00  0.00    +0.017 C 
ATOM     27  C   UNL     1      31.683  -7.985 -22.683  0.00  0.00    +0.087 C 
ATOM     28  C   UNL     1      34.964 -10.818 -25.535  0.00  0.00    +0.003 C 
ATOM     29  C   UNL     1      35.139  -9.591 -24.899  0.00  0.00    -0.003 C 
ATOM     30  H   UNL     1      31.293 -10.047 -22.656  0.00  0.00    +0.147 HD
ENDBRANCH  18  20
ENDBRANCH  16  18
ENDBRANCH   1  16
TORSDOF 6
ENDMDL
MODEL 3
REMARK VINA RESULT:     -11.8      2.935      4.680
REMARK  Name = 198752
REMARK  6 active torsions:
REMARK  status: ('A' for Active; 'I' for Inactive)
REMARK    1  A    between atoms: C_1  and  C_3
REMARK    2  A    between atoms: C_1  and  C_16
REMARK    3  A    between atoms: N_2  and  C_9
REMARK    4  A    between atoms: C_9  and  C_10
REMARK    5  A    between atoms: C_16  and  C_18
REMARK    6  A    between atoms: C_18  and  C_20
REMARK                            x       y       z     vdW  Elec       q    Type
REMARK                         _______ _______ _______ _____ _____    ______ ____
ROOT
ATOM      1  C   UNL     1      32.880 -22.185 -18.731  0.00  0.00    +0.008 C 
ENDROOT
BRANCH   1   3
ATOM      2  N   UNL     1      35.073 -19.101 -20.814  0.00  0.00    +0.390 N 
ATOM      3  C   UNL     1      33.624 -21.460 -19.849  0.00  0.00    -0.004 C 
ATOM      4  C   UNL     1      35.071 -21.160 -19.443  0.00  0.00    -0.023 C 
ATOM      5  C   UNL     1      32.913 -20.157 -20.230  0.00  0.00    -0.023 C 
ATOM      6  C   UNL     1      35.794 -20.347 -20.519  0.00  0.00    -0.077 C 
ATOM      7  C   UNL     1      33.708 -19.377 -21.279  0.00  0.00    -0.077 C 
ATOM      8  H   UNL     1      35.008 -18.563 -19.950  0.00  0.00    -0.079 HD
BRANCH   2   9
ATOM      9  C   UNL     1      35.802 -18.309 -21.805  0.00  0.00    -0.050 C 
BRANCH   9  10
ATOM     10  C   UNL     1      35.217 -16.931 -21.961  0.00  0.00    -0.043 C 
ATOM     11  C   UNL     1      34.848 -16.214 -20.831  0.00  0.00    -0.006 C 
ATOM     12  C   UNL     1      35.056 -16.395 -23.232  0.00  0.00    -0.006 C 
ATOM     13  C   UNL     1      34.306 -14.937 -20.976  0.00  0.00    -0.000 C 
ATOM     14  C   UNL     1      34.515 -15.119 -23.376  0.00  0.00    -0.000 C 
ATOM     15  C   UNL     1      34.139 -14.389 -22.248  0.00  0.00    -0.000 C 
ENDBRANCH   9  10
ENDBRANCH   2   9
ENDBRANCH   1   3
BRANCH   1  16
ATOM     16  C   UNL     1      33.834 -23.006 -17.863  0.00  0.00    +0.069 C 
BRANCH  16  18
ATOM     17  O   UNL     1      32.056 -23.152 -16.241  0.00  0.00    -0.291 OA
ATOM     18  C   UNL     1      33.274 -23.316 -16.462  0.00  0.00    +0.173 C 
BRANCH  18  20
ATOM     19  N   UNL     1      37.586 -25.145 -15.177  0.00  0.00    -0.333 N 
ATOM     20  C   UNL     1      34.163 -23.795 -15.416  0.00  0.00    +0.036 C 
ATOM     21  C   UNL     1      35.905 -24.711 -13.405  0.00  0.00    -0.009 C 
ATOM     22  C   UNL     1      36.776 -25.134 -12.239  0.00  0.00    +0.028 C 
ATOM     23  C   UNL     1      36.344 -24.697 -14.748  0.00  0.00    +0.041 C 
ATOM     24  C   UNL     1      38.208 -24.606 -12.325  0.00  0.00    +0.006 C 
ATOM     25  C   UNL     1      39.113 -25.402 -13.264  0.00  0.00    +0.022 C 
ATOM     26  C   UNL     1      35.455 -24.215 -15.732  0.00  0.00    +0.017 C 
ATOM     27  C   UNL     1      38.401 -26.075 -14.428  0.00  0.00    +0.087 C 
ATOM     28  C   UNL     1      33.726 -23.846 -14.101  0.00  0.00    +0.003 C 
ATOM     29  C   UNL     1      34.588 -24.301 -13.106  0.00  0.00    -0.003 C 
ATOM     30  H   UNL     1      37.930 -24.813 -16.038  0.00  0.00    +0.147 HD
ENDBRANCH  18  20
ENDBRANCH  16  18
ENDBRANCH   1  16
TORSDOF 6
ENDMDL
MODEL 4
REMARK VINA RESULT:     -11.8      5.260     12.399
REMARK  Name = 198752
REMARK  6 active torsions:
REMARK  status: ('A' for Active; 'I' for Inactive)
REMARK    1  A    between atoms: C_1  and  C_3
REMARK    2  A    between atoms: C_1  and  C_16
REMARK    3  A    between atoms: N_2  and  C_9
REMARK    4  A    between atoms: C_9  and  C_10
REMARK    5  A    between atoms: C_16  and  C_18
REMARK    6  A    between atoms: C_18  and  C_20
REMARK                            x       y       z     vdW  Elec       q    Type
REMARK                         _______ _______ _______ _____ _____    ______ ____
ROOT
ATOM      1  C   UNL     1      32.710 -13.687 -23.590  0.00  0.00    +0.008 C 
ENDROOT
BRANCH   1   3
ATOM      2  N   UNL     1      34.734 -17.252 -22.230  0.00  0.00    +0.390 N 
ATOM      3  C   UNL     1      33.839 -14.620 -23.162  0.00  0.00    -0.004 C 
ATOM      4  C   UNL     1      33.933 -15.834 -24.092  0.00  0.00    -0.023 C 
ATOM      5  C   UNL     1      33.646 -15.090 -21.716  0.00  0.00    -0.023 C 
ATOM      6  C   UNL     1      34.996 -16.823 -23.610  0.00  0.00    -0.077 C 
ATOM      7  C   UNL     1      34.718 -16.104 -21.313  0.00  0.00    -0.077 C 
ATOM      8  H   UNL     1      33.812 -17.687 -22.205  0.00  0.00    -0.079 HD
BRANCH   2   9
ATOM      9  C   UNL     1      35.728 -18.236 -21.801  0.00  0.00    -0.050 C 
BRANCH   9  10
ATOM     10  C   UNL     1      35.102 -19.360 -21.019  0.00  0.00    -0.043 C 
ATOM     11  C   UNL     1      33.720 -19.491 -20.998  0.00  0.00    -0.006 C 
ATOM     12  C   UNL     1      35.914 -20.250 -20.330  0.00  0.00    -0.006 C 
ATOM     13  C   UNL     1      33.140 -20.532 -20.273  0.00  0.00    -0.000 C 
ATOM     14  C   UNL     1      35.335 -21.291 -19.606  0.00  0.00    -0.000 C 
ATOM     15  C   UNL     1      33.947 -21.432 -19.577  0.00  0.00    -0.000 C 
ENDBRANCH   9  10
ENDBRANCH   2   9
ENDBRANCH   1   3
BRANCH   1  16
ATOM     16  C   UNL     1      33.030 -12.229 -23.257  0.00  0.00    +0.069 C 
BRANCH  16  18
ATOM     17  O   UNL     1      31.420 -12.392 -21.471  0.00  0.00    -0.291 OA
ATOM     18  C   UNL     1      32.104 -11.628 -22.183  0.00  0.00    +0.173 C 
BRANCH  18  20
ATOM     19  N   UNL     1      31.738  -7.209 -24.165  0.00  0.00    -0.333 N 
ATOM     20  C   UNL     1      32.035 -10.186 -22.009  0.00  0.00    +0.036 C 
ATOM     21  C   UNL     1      31.884  -7.394 -21.696  0.00  0.00    -0.009 C 
ATOM     22  C   UNL     1      31.760  -5.911 -21.408  0.00  0.00    +0.028 C 
ATOM     23  C   UNL     1      31.827  -7.949 -22.994  0.00  0.00    +0.041 C 
ATOM     24  C   UNL     1      30.678  -5.218 -22.236  0.00  0.00    +0.006 C 
ATOM     25  C   UNL     1      31.101  -4.885 -23.666  0.00  0.00    +0.022 C 
ATOM     26  C   UNL     1      31.887  -9.353 -23.119  0.00  0.00    +0.017 C 
ATOM     27  C   UNL     1      32.138  -5.823 -24.266  0.00  0.00    +0.087 C 
ATOM     28  C   UNL     1      32.127  -9.633 -20.742  0.00  0.00    +0.003 C 
ATOM     29  C   UNL     1      32.054  -8.250 -20.586  0.00  0.00    -0.003 C 
ATOM     30  H   UNL     1      31.386  -7.652 -24.971  0.00  0.00    +0.147 HD
ENDBRANCH  18  20
ENDBRANCH  16  18
ENDBRANCH   1  16
TORSDOF 6
ENDMDL
MODEL 5
REMARK VINA RESULT:     -11.6      4.401     11.870
REMARK  Name = 198752
REMARK  6 active torsions:
REMARK  status: ('A' for Active; 'I' for Inactive)
REMARK    1  A    between atoms: C_1  and  C_3
REMARK    2  A    between atoms: C_1  and  C_16
REMARK    3  A    between atoms: N_2  and  C_9
REMARK    4  A    between atoms: C_9  and  C_10
REMARK    5  A    between atoms: C_16  and  C_18
REMARK    6  A    between atoms: C_18  and  C_20
REMARK                            x       y       z     vdW  Elec       q    Type
REMARK                         _______ _______ _______ _____ _____    ______ ____
ROOT
ATOM      1  C   UNL     1      33.732 -15.263 -24.191  0.00  0.00    +0.008 C 
ENDROOT
BRANCH   1   3
ATOM      2  N   UNL     1      35.223 -18.527 -21.786  0.00  0.00    +0.390 N 
ATOM      3  C   UNL     1      34.703 -16.135 -23.401  0.00  0.00    -0.004 C 
ATOM      4  C   UNL     1      34.811 -17.535 -24.015  0.00  0.00    -0.023 C 
ATOM      5  C   UNL     1      34.276 -16.245 -21.933  0.00  0.00    -0.023 C 
ATOM      6  C   UNL     1      35.705 -18.445 -23.171  0.00  0.00    -0.077 C 
ATOM      7  C   UNL     1      35.188 -17.199 -21.159  0.00  0.00    -0.077 C 
ATOM      8  H   UNL     1      34.270 -18.890 -21.805  0.00  0.00    -0.079 HD
BRANCH   2   9
ATOM      9  C   UNL     1      36.056 -19.440 -21.005  0.00  0.00    -0.050 C 
BRANCH   9  10
ATOM     10  C   UNL     1      35.228 -20.429 -20.228  0.00  0.00    -0.043 C 
ATOM     11  C   UNL     1      33.846 -20.414 -20.359  0.00  0.00    -0.006 C 
ATOM     12  C   UNL     1      35.857 -21.343 -19.394  0.00  0.00    -0.006 C 
ATOM     13  C   UNL     1      33.079 -21.330 -19.639  0.00  0.00    -0.000 C 
ATOM     14  C   UNL     1      35.090 -22.258 -18.675  0.00  0.00    -0.000 C 
ATOM     15  C   UNL     1      33.700 -22.252 -18.797  0.00  0.00    -0.000 C 
ENDBRANCH   9  10
ENDBRANCH   2   9
ENDBRANCH   1   3
BRANCH   1  16
ATOM     16  C   UNL     1      33.929 -13.779 -23.878  0.00  0.00    +0.069 C 
BRANCH  16  18
ATOM     17  O   UNL     1      32.000 -13.930 -22.440  0.00  0.00    -0.291 OA
ATOM     18  C   UNL     1      32.785 -13.171 -23.046  0.00  0.00    +0.173 C 
BRANCH  18  20
ATOM     19  N   UNL     1      34.407  -8.744 -24.211  0.00  0.00    -0.333 N 
ATOM     20  C   UNL     1      32.629 -11.727 -22.972  0.00  0.00    +0.036 C 
ATOM     21  C   UNL     1      32.338  -8.931 -22.857  0.00  0.00    -0.009 C 
ATOM     22  C   UNL     1      32.056  -7.444 -22.773  0.00  0.00    +0.028 C 
ATOM     23  C   UNL     1      33.422  -9.485 -23.573  0.00  0.00    +0.041 C 
ATOM     24  C   UNL     1      32.247  -6.711 -24.101  0.00  0.00    +0.006 C 
ATOM     25  C   UNL     1      33.704  -6.397 -24.439  0.00  0.00    +0.022 C 
ATOM     26  C   UNL     1      33.533 -10.891 -23.628  0.00  0.00    +0.017 C 
ATOM     27  C   UNL     1      34.722  -7.374 -23.872  0.00  0.00    +0.087 C 
ATOM     28  C   UNL     1      31.588 -11.176 -22.241  0.00  0.00    +0.003 C 
ATOM     29  C   UNL     1      31.445  -9.792 -22.183  0.00  0.00    -0.003 C 
ATOM     30  H   UNL     1      34.921  -9.174 -24.933  0.00  0.00    +0.147 HD
ENDBRANCH  18  20
ENDBRANCH  16  18
ENDBRANCH   1  16
TORSDOF 6
ENDMDL
MODEL 6
REMARK VINA RESULT:     -11.5      2.299      3.806
REMARK  Name = 198752
REMARK  6 active torsions:
REMARK  status: ('A' for Active; 'I' for Inactive)
REMARK    1  A    between atoms: C_1  and  C_3
REMARK    2  A    between atoms: C_1  and  C_16
REMARK    3  A    between atoms: N_2  and  C_9
REMARK    4  A    between atoms: C_9  and  C_10
REMARK    5  A    between atoms: C_16  and  C_18
REMARK    6  A    between atoms: C_18  and  C_20
REMARK                            x       y       z     vdW  Elec       q    Type
REMARK                         _______ _______ _______ _____ _____    ______ ____
ROOT
ATOM      1  C   UNL     1      35.556 -21.711 -19.195  0.00  0.00    +0.008 C 
ENDROOT
BRANCH   1   3
ATOM      2  N   UNL     1      35.171 -18.069 -21.485  0.00  0.00    +0.390 N 
ATOM      3  C   UNL     1      35.519 -20.768 -20.394  0.00  0.00    -0.004 C 
ATOM      4  C   UNL     1      36.600 -19.688 -20.279  0.00  0.00    -0.023 C 
ATOM      5  C   UNL     1      34.143 -20.109 -20.535  0.00  0.00    -0.023 C 
ATOM      6  C   UNL     1      36.505 -18.680 -21.426  0.00  0.00    -0.077 C 
ATOM      7  C   UNL     1      34.129 -19.088 -21.674  0.00  0.00    -0.077 C 
ATOM      8  H   UNL     1      34.998 -17.604 -20.594  0.00  0.00    -0.079 HD
BRANCH   2   9
ATOM      9  C   UNL     1      35.110 -17.071 -22.553  0.00  0.00    -0.050 C 
BRANCH   9  10
ATOM     10  C   UNL     1      34.199 -15.926 -22.200  0.00  0.00    -0.043 C 
ATOM     11  C   UNL     1      33.967 -15.625 -20.865  0.00  0.00    -0.006 C 
ATOM     12  C   UNL     1      33.604 -15.187 -23.212  0.00  0.00    -0.006 C 
ATOM     13  C   UNL     1      33.122 -14.565 -20.537  0.00  0.00    -0.000 C 
ATOM     14  C   UNL     1      32.760 -14.127 -22.885  0.00  0.00    -0.000 C 
ATOM     15  C   UNL     1      32.518 -13.816 -21.546  0.00  0.00    -0.000 C 
ENDBRANCH   9  10
ENDBRANCH   2   9
ENDBRANCH   1   3
BRANCH   1  16
ATOM     16  C   UNL     1      34.449 -22.761 -19.273  0.00  0.00    +0.069 C 
BRANCH  16  18
ATOM     17  O   UNL     1      32.292 -22.258 -18.322  0.00  0.00    -0.291 OA
ATOM     18  C   UNL     1      33.446 -22.683 -18.107  0.00  0.00    +0.173 C 
BRANCH  18  20
ATOM     19  N   UNL     1      37.003 -23.646 -14.943  0.00  0.00    -0.333 N 
ATOM     20  C   UNL     1      33.848 -23.101 -16.774  0.00  0.00    +0.036 C 
ATOM     21  C   UNL     1      34.650 -23.894 -14.196  0.00  0.00    -0.009 C 
ATOM     22  C   UNL     1      34.968 -24.283 -12.766  0.00  0.00    +0.028 C 
ATOM     23  C   UNL     1      35.633 -23.569 -15.158  0.00  0.00    +0.041 C 
ATOM     24  C   UNL     1      36.070 -23.432 -12.133  0.00  0.00    +0.006 C 
ATOM     25  C   UNL     1      37.486 -23.841 -12.538  0.00  0.00    +0.022 C 
ATOM     26  C   UNL     1      35.201 -23.157 -16.436  0.00  0.00    +0.017 C 
ATOM     27  C   UNL     1      37.605 -24.469 -13.918  0.00  0.00    +0.087 C 
ATOM     28  C   UNL     1      32.891 -23.458 -15.837  0.00  0.00    +0.003 C 
ATOM     29  C   UNL     1      33.288 -23.852 -14.562  0.00  0.00    -0.003 C 
ATOM     30  H   UNL     1      37.596 -23.113 -15.521  0.00  0.00    +0.147 HD
ENDBRANCH  18  20
ENDBRANCH  16  18
ENDBRANCH   1  16
TORSDOF 6
ENDMDL
MODEL 7
REMARK VINA RESULT:     -11.5      2.636     10.260
REMARK  Name = 198752
REMARK  6 active torsions:
REMARK  status: ('A' for Active; 'I' for Inactive)
REMARK    1  A    between atoms: C_1  and  C_3
REMARK    2  A    between atoms: C_1  and  C_16
REMARK    3  A    between atoms: N_2  and  C_9
REMARK    4  A    between atoms: C_9  and  C_10
REMARK    5  A    between atoms: C_16  and  C_18
REMARK    6  A    between atoms: C_18  and  C_20
REMARK                            x       y       z     vdW  Elec       q    Type
REMARK                         _______ _______ _______ _____ _____    ______ ____
ROOT
ATOM      1  C   UNL     1      35.324 -18.397 -21.223  0.00  0.00    +0.008 C 
ENDROOT
BRANCH   1   3
ATOM      2  N   UNL     1      34.085 -21.876 -18.982  0.00  0.00    +0.390 N 
ATOM      3  C   UNL     1      34.913 -19.835 -20.917  0.00  0.00    -0.004 C 
ATOM      4  C   UNL     1      33.496 -19.891 -20.335  0.00  0.00    -0.023 C 
ATOM      5  C   UNL     1      35.897 -20.495 -19.946  0.00  0.00    -0.023 C 
ATOM      6  C   UNL     1      33.115 -21.317 -19.933  0.00  0.00    -0.077 C 
ATOM      7  C   UNL     1      35.437 -21.901 -19.557  0.00  0.00    -0.077 C 
ATOM      8  H   UNL     1      34.104 -21.273 -18.160  0.00  0.00    -0.079 HD
BRANCH   2   9
ATOM      9  C   UNL     1      33.681 -23.220 -18.568  0.00  0.00    -0.050 C 
BRANCH   9  10
ATOM     10  C   UNL     1      33.220 -23.249 -17.135  0.00  0.00    -0.043 C 
ATOM     11  C   UNL     1      34.146 -23.470 -16.124  0.00  0.00    -0.006 C 
ATOM     12  C   UNL     1      31.878 -23.054 -16.842  0.00  0.00    -0.006 C 
ATOM     13  C   UNL     1      33.720 -23.498 -14.796  0.00  0.00    -0.000 C 
ATOM     14  C   UNL     1      31.451 -23.081 -15.516  0.00  0.00    -0.000 C 
ATOM     15  C   UNL     1      32.373 -23.304 -14.492  0.00  0.00    -0.000 C 
ENDBRANCH   9  10
ENDBRANCH   2   9
ENDBRANCH   1   3
BRANCH   1  16
ATOM     16  C   UNL     1      36.096 -18.303 -22.539  0.00  0.00    +0.069 C 
BRANCH  16  18
ATOM     17  O   UNL     1      34.956 -19.414 -24.349  0.00  0.00    -0.291 OA
ATOM     18  C   UNL     1      35.190 -18.325 -23.784  0.00  0.00    +0.173 C 
BRANCH  18  20
ATOM     19  N   UNL     1      34.217 -13.614 -23.115  0.00  0.00    -0.333 N 
ATOM     20  C   UNL     1      34.618 -17.087 -24.288  0.00  0.00    +0.036 C 
ATOM     21  C   UNL     1      33.533 -14.676 -25.250  0.00  0.00    -0.009 C 
ATOM     22  C   UNL     1      32.964 -13.423 -25.886  0.00  0.00    +0.028 C 
ATOM     23  C   UNL     1      34.141 -14.701 -23.975  0.00  0.00    +0.041 C 
ATOM     24  C   UNL     1      33.842 -12.187 -25.691  0.00  0.00    +0.006 C 
ATOM     25  C   UNL     1      33.701 -11.530 -24.318  0.00  0.00    +0.022 C 
ATOM     26  C   UNL     1      34.693 -15.920 -23.526  0.00  0.00    +0.017 C 
ATOM     27  C   UNL     1      33.328 -12.476 -23.187  0.00  0.00    +0.087 C 
ATOM     28  C   UNL     1      33.988 -17.063 -25.522  0.00  0.00    +0.003 C 
ATOM     29  C   UNL     1      33.449 -15.870 -25.998  0.00  0.00    -0.003 C 
ATOM     30  H   UNL     1      34.912 -13.618 -22.418  0.00  0.00    +0.147 HD
ENDBRANCH  18  20
ENDBRANCH  16  18
ENDBRANCH   1  16
TORSDOF 6
ENDMDL
MODEL 8
REMARK VINA RESULT:     -11.3      2.807      9.832
REMARK  Name = 198752
REMARK  6 active torsions:
REMARK  status: ('A' for Active; 'I' for Inactive)
REMARK    1  A    between atoms: C_1  and  C_3
REMARK    2  A    between atoms: C_1  and  C_16
REMARK    3  A    between atoms: N_2  and  C_9
REMARK    4  A    between atoms: C_9  and  C_10
REMARK    5  A    between atoms: C_16  and  C_18
REMARK    6  A    between atoms: C_18  and  C_20
REMARK                            x       y       z     vdW  Elec       q    Type
REMARK                         _______ _______ _______ _____ _____    ______ ____
ROOT
ATOM      1  C   UNL     1      35.271 -18.322 -21.495  0.00  0.00    +0.008 C 
ENDROOT
BRANCH   1   3
ATOM      2  N   UNL     1      34.107 -21.774 -19.176  0.00  0.00    +0.390 N 
ATOM      3  C   UNL     1      34.883 -19.758 -21.158  0.00  0.00    -0.004 C 
ATOM      4  C   UNL     1      33.475 -19.821 -20.555  0.00  0.00    -0.023 C 
ATOM      5  C   UNL     1      35.889 -20.389 -20.189  0.00  0.00    -0.023 C 
ATOM      6  C   UNL     1      33.118 -21.244 -20.123  0.00  0.00    -0.077 C 
ATOM      7  C   UNL     1      35.451 -21.793 -19.769  0.00  0.00    -0.077 C 
ATOM      8  H   UNL     1      34.130 -21.156 -18.365  0.00  0.00    -0.079 HD
BRANCH   2   9
ATOM      9  C   UNL     1      33.726 -23.115 -18.731  0.00  0.00    -0.050 C 
BRANCH   9  10
ATOM     10  C   UNL     1      33.308 -23.129 -17.285  0.00  0.00    -0.043 C 
ATOM     11  C   UNL     1      31.959 -23.085 -16.963  0.00  0.00    -0.006 C 
ATOM     12  C   UNL     1      34.278 -23.185 -16.293  0.00  0.00    -0.006 C 
ATOM     13  C   UNL     1      31.572 -23.097 -15.623  0.00  0.00    -0.000 C 
ATOM     14  C   UNL     1      33.891 -23.198 -14.954  0.00  0.00    -0.000 C 
ATOM     15  C   UNL     1      32.538 -23.153 -14.618  0.00  0.00    -0.000 C 
ENDBRANCH   9  10
ENDBRANCH   2   9
ENDBRANCH   1   3
BRANCH   1  16
ATOM     16  C   UNL     1      34.410 -17.758 -22.626  0.00  0.00    +0.069 C 
BRANCH  16  18
ATOM     17  O   UNL     1      35.643 -16.038 -23.780  0.00  0.00    -0.291 OA
ATOM     18  C   UNL     1      34.730 -16.291 -22.967  0.00  0.00    +0.173 C 
BRANCH  18  20
ATOM     19  N   UNL     1      32.829 -11.830 -23.245  0.00  0.00    -0.333 N 
ATOM     20  C   UNL     1      33.970 -15.219 -22.344  0.00  0.00    +0.036 C 
ATOM     21  C   UNL     1      32.490 -13.137 -21.165  0.00  0.00    -0.009 C 
ATOM     22  C   UNL     1      31.638 -12.104 -20.454  0.00  0.00    +0.028 C 
ATOM     23  C   UNL     1      32.984 -12.977 -22.478  0.00  0.00    +0.041 C 
ATOM     24  C   UNL     1      30.574 -11.470 -21.349  0.00  0.00    +0.006 C 
ATOM     25  C   UNL     1      31.103 -10.371 -22.269  0.00  0.00    +0.022 C 
ATOM     26  C   UNL     1      33.708 -14.045 -23.051  0.00  0.00    +0.017 C 
ATOM     27  C   UNL     1      32.559 -10.525 -22.684  0.00  0.00    +0.087 C 
ATOM     28  C   UNL     1      33.514 -15.354 -21.043  0.00  0.00    +0.003 C 
ATOM     29  C   UNL     1      32.782 -14.323 -20.458  0.00  0.00    -0.003 C 
ATOM     30  H   UNL     1      32.908 -11.909 -24.224  0.00  0.00    +0.147 HD
ENDBRANCH  18  20
ENDBRANCH  16  18
ENDBRANCH   1  16
TORSDOF 6
ENDMDL
MODEL 9
REMARK VINA RESULT:     -11.3      3.693      7.251
REMARK  Name = 198752
REMARK  6 active torsions:
REMARK  status: ('A' for Active; 'I' for Inactive)
REMARK    1  A    between atoms: C_1  and  C_3
REMARK    2  A    between atoms: C_1  and  C_16
REMARK    3  A    between atoms: N_2  and  C_9
REMARK    4  A    between atoms: C_9  and  C_10
REMARK    5  A    between atoms: C_16  and  C_18
REMARK    6  A    between atoms: C_18  and  C_20
REMARK                            x       y       z     vdW  Elec       q    Type
REMARK                         _______ _______ _______ _____ _____    ______ ____
ROOT
ATOM      1  C   UNL     1      34.569 -15.531 -22.238  0.00  0.00    +0.008 C 
ENDROOT
BRANCH   1   3
ATOM      2  N   UNL     1      32.202 -11.930 -21.941  0.00  0.00    +0.390 N 
ATOM      3  C   UNL     1      33.368 -14.594 -22.319  0.00  0.00    -0.004 C 
ATOM      4  C   UNL     1      33.640 -13.432 -23.281  0.00  0.00    -0.023 C 
ATOM      5  C   UNL     1      33.002 -14.045 -20.936  0.00  0.00    -0.023 C 
ATOM      6  C   UNL     1      32.480 -12.435 -23.292  0.00  0.00    -0.077 C 
ATOM      7  C   UNL     1      31.863 -13.028 -21.025  0.00  0.00    -0.077 C 
ATOM      8  H   UNL     1      33.048 -11.480 -21.593  0.00  0.00    -0.079 HD
BRANCH   2   9
ATOM      9  C   UNL     1      31.125 -10.940 -21.975  0.00  0.00    -0.050 C 
BRANCH   9  10
ATOM     10  C   UNL     1      31.656  -9.533 -21.919  0.00  0.00    -0.043 C 
ATOM     11  C   UNL     1      31.633  -8.748 -23.063  0.00  0.00    -0.006 C 
ATOM     12  C   UNL     1      32.161  -9.039 -20.724  0.00  0.00    -0.006 C 
ATOM     13  C   UNL     1      32.125  -7.444 -23.011  0.00  0.00    -0.000 C 
ATOM     14  C   UNL     1      32.653  -7.735 -20.672  0.00  0.00    -0.000 C 
ATOM     15  C   UNL     1      32.635  -6.937 -21.816  0.00  0.00    -0.000 C 
ENDBRANCH   9  10
ENDBRANCH   2   9
ENDBRANCH   1   3
BRANCH   1  16
ATOM     16  C   UNL     1      35.020 -15.987 -23.625  0.00  0.00    +0.069 C 
BRANCH  16  18
ATOM     17  O   UNL     1      34.756 -17.976 -24.962  0.00  0.00    -0.291 OA
ATOM     18  C   UNL     1      34.956 -17.514 -23.819  0.00  0.00    +0.173 C 
BRANCH  18  20
ATOM     19  N   UNL     1      33.014 -20.608 -20.619  0.00  0.00    -0.333 N 
ATOM     20  C   UNL     1      35.129 -18.398 -22.679  0.00  0.00    +0.036 C 
ATOM     21  C   UNL     1      35.444 -20.127 -20.481  0.00  0.00    -0.009 C 
ATOM     22  C   UNL     1      35.736 -21.068 -19.329  0.00  0.00    +0.028 C 
ATOM     23  C   UNL     1      34.168 -19.981 -21.070  0.00  0.00    +0.041 C 
ATOM     24  C   UNL     1      35.055 -22.429 -19.465  0.00  0.00    +0.006 C 
ATOM     25  C   UNL     1      33.579 -22.433 -19.067  0.00  0.00    +0.022 C 
ATOM     26  C   UNL     1      34.044 -19.121 -22.182  0.00  0.00    +0.017 C 
ATOM     27  C   UNL     1      32.854 -21.112 -19.273  0.00  0.00    +0.087 C 
ATOM     28  C   UNL     1      36.370 -18.518 -22.073  0.00  0.00    +0.003 C 
ATOM     29  C   UNL     1      36.526 -19.373 -20.983  0.00  0.00    -0.003 C 
ATOM     30  H   UNL     1      32.264 -20.714 -21.248  0.00  0.00    +0.147 HD
ENDBRANCH  18  20
ENDBRANCH  16  18
ENDBRANCH   1  16
TORSDOF 6
ENDMDL
