MODEL 1
REMARK VINA RESULT:      -8.5      0.000      0.000
REMARK  Name = 501254
REMARK  6 active torsions:
REMARK  status: ('A' for Active; 'I' for Inactive)
REMARK    1  A    between atoms: N_3  and  C_14
REMARK    2  A    between atoms: C_14  and  C_15
REMARK    3  A    between atoms: C_15  and  C_16
REMARK    4  A    between atoms: C_16  and  C_17
REMARK    5  A    between atoms: C_17  and  C_18
REMARK    6  A    between atoms: C_18  and  O_20
REMARK                            x       y       z     vdW  Elec       q    Type
REMARK                         _______ _______ _______ _____ _____    ______ ____
ROOT
ATOM      1  O   UNL     1      34.475 -16.423 -21.029  0.00  0.00    -0.272 OA
ATOM      2  O   UNL     1      34.857 -17.233 -25.635  0.00  0.00    -0.252 OA
ATOM      3  N   UNL     1      34.693 -16.867 -23.327  0.00  0.00    -0.212 N 
ATOM      4  N   UNL     1      33.631 -15.381 -24.945  0.00  0.00    -0.228 N 
ATOM      5  N   UNL     1      32.838 -14.042 -21.806  0.00  0.00    -0.239 NA
ATOM      6  N   UNL     1      32.401 -13.508 -23.926  0.00  0.00    -0.240 NA
ATOM      7  C   UNL     1      33.451 -14.992 -22.574  0.00  0.00    +0.192 C 
ATOM      8  C   UNL     1      34.232 -16.125 -22.195  0.00  0.00    +0.254 C 
ATOM      9  C   UNL     1      33.168 -14.640 -23.865  0.00  0.00    +0.136 C 
ATOM     10  C   UNL     1      34.418 -16.535 -24.713  0.00  0.00    +0.318 C 
ATOM     11  C   UNL     1      32.220 -13.172 -22.664  0.00  0.00    +0.203 C 
ATOM     12  C   UNL     1      33.302 -14.967 -26.303  0.00  0.00    +0.123 C 
ATOM     13  C   UNL     1      32.828 -13.949 -20.365  0.00  0.00    +0.092 C 
ENDROOT
BRANCH   3  14
ATOM     14  C   UNL     1      35.492 -18.034 -23.072  0.00  0.00    +0.103 C 
BRANCH  14  15
ATOM     15  C   UNL     1      34.646 -19.259 -22.742  0.00  0.00    +0.022 C 
BRANCH  15  16
ATOM     16  C   UNL     1      34.904 -19.790 -21.327  0.00  0.00    +0.004 C 
BRANCH  16  17
ATOM     17  C   UNL     1      33.585 -20.064 -20.593  0.00  0.00    +0.029 C 
BRANCH  17  18
ATOM     18  C   UNL     1      33.527 -21.426 -19.890  0.00  0.00    +0.111 C 
ATOM     19  C   UNL     1      34.834 -21.819 -19.216  0.00  0.00    +0.032 C 
BRANCH  18  20
ATOM     20  O   UNL     1      32.499 -21.425 -18.903  0.00  0.00    -0.384 OA
ATOM     21  H   UNL     1      32.291 -20.510 -18.655  0.00  0.00    +0.210 HD
ENDBRANCH  18  20
ENDBRANCH  17  18
ENDBRANCH  16  17
ENDBRANCH  15  16
ENDBRANCH  14  15
ENDBRANCH   3  14
TORSDOF 6
ENDMDL
MODEL 2
REMARK VINA RESULT:      -8.2      0.833      2.849
REMARK  Name = 501254
REMARK  6 active torsions:
REMARK  status: ('A' for Active; 'I' for Inactive)
REMARK    1  A    between atoms: N_3  and  C_14
REMARK    2  A    between atoms: C_14  and  C_15
REMARK    3  A    between atoms: C_15  and  C_16
REMARK    4  A    between atoms: C_16  and  C_17
REMARK    5  A    between atoms: C_17  and  C_18
REMARK    6  A    between atoms: C_18  and  O_20
REMARK                            x       y       z     vdW  Elec       q    Type
REMARK                         _______ _______ _______ _____ _____    ______ ____
ROOT
ATOM      1  O   UNL     1      34.691 -17.205 -25.283  0.00  0.00    -0.272 OA
ATOM      2  O   UNL     1      35.244 -16.836 -20.637  0.00  0.00    -0.252 OA
ATOM      3  N   UNL     1      34.991 -17.061 -22.955  0.00  0.00    -0.212 N 
ATOM      4  N   UNL     1      34.113 -15.132 -21.746  0.00  0.00    -0.228 N 
ATOM      5  N   UNL     1      33.260 -14.584 -25.099  0.00  0.00    -0.239 NA
ATOM      6  N   UNL     1      32.965 -13.491 -23.178  0.00  0.00    -0.240 NA
ATOM      7  C   UNL     1      33.846 -15.349 -24.131  0.00  0.00    +0.192 C 
ATOM      8  C   UNL     1      34.526 -16.600 -24.227  0.00  0.00    +0.254 C 
ATOM      9  C   UNL     1      33.650 -14.658 -22.967  0.00  0.00    +0.136 C 
ATOM     10  C   UNL     1      34.809 -16.365 -21.695  0.00  0.00    +0.318 C 
ATOM     11  C   UNL     1      32.744 -13.477 -24.477  0.00  0.00    +0.203 C 
ATOM     12  C   UNL     1      33.881 -14.359 -20.532  0.00  0.00    +0.123 C 
ATOM     13  C   UNL     1      33.184 -14.863 -26.514  0.00  0.00    +0.092 C 
ENDROOT
BRANCH   3  14
ATOM     14  C   UNL     1      35.694 -18.315 -22.923  0.00  0.00    +0.103 C 
BRANCH  14  15
ATOM     15  C   UNL     1      34.784 -19.483 -22.558  0.00  0.00    +0.022 C 
BRANCH  15  16
ATOM     16  C   UNL     1      35.137 -20.101 -21.200  0.00  0.00    +0.004 C 
BRANCH  16  17
ATOM     17  C   UNL     1      33.874 -20.368 -20.371  0.00  0.00    +0.029 C 
BRANCH  17  18
ATOM     18  C   UNL     1      33.845 -21.743 -19.692  0.00  0.00    +0.111 C 
ATOM     19  C   UNL     1      35.011 -21.977 -18.742  0.00  0.00    +0.032 C 
BRANCH  18  20
ATOM     20  O   UNL     1      32.634 -21.901 -18.958  0.00  0.00    -0.384 OA
ATOM     21  H   UNL     1      32.693 -22.696 -18.405  0.00  0.00    +0.210 HD
ENDBRANCH  18  20
ENDBRANCH  17  18
ENDBRANCH  16  17
ENDBRANCH  15  16
ENDBRANCH  14  15
ENDBRANCH   3  14
TORSDOF 6
ENDMDL
MODEL 3
REMARK VINA RESULT:      -8.2      8.111     11.003
REMARK  Name = 501254
REMARK  6 active torsions:
REMARK  status: ('A' for Active; 'I' for Inactive)
REMARK    1  A    between atoms: N_3  and  C_14
REMARK    2  A    between atoms: C_14  and  C_15
REMARK    3  A    between atoms: C_15  and  C_16
REMARK    4  A    between atoms: C_16  and  C_17
REMARK    5  A    between atoms: C_17  and  C_18
REMARK    6  A    between atoms: C_18  and  O_20
REMARK                            x       y       z     vdW  Elec       q    Type
REMARK                         _______ _______ _______ _____ _____    ______ ____
ROOT
ATOM      1  O   UNL     1      33.255 -23.209 -16.933  0.00  0.00    -0.272 OA
ATOM      2  O   UNL     1      34.147 -24.450 -12.496  0.00  0.00    -0.252 OA
ATOM      3  N   UNL     1      33.657 -23.845 -14.705  0.00  0.00    -0.212 N 
ATOM      4  N   UNL     1      35.886 -23.555 -13.755  0.00  0.00    -0.228 N 
ATOM      5  N   UNL     1      36.129 -22.388 -17.049  0.00  0.00    -0.239 NA
ATOM      6  N   UNL     1      37.522 -22.588 -15.320  0.00  0.00    -0.240 NA
ATOM      7  C   UNL     1      35.398 -22.929 -16.031  0.00  0.00    +0.192 C 
ATOM      8  C   UNL     1      34.025 -23.318 -15.982  0.00  0.00    +0.254 C 
ATOM      9  C   UNL     1      36.274 -23.039 -14.985  0.00  0.00    +0.136 C 
ATOM     10  C   UNL     1      34.548 -23.982 -13.568  0.00  0.00    +0.318 C 
ATOM     11  C   UNL     1      37.401 -22.201 -16.574  0.00  0.00    +0.203 C 
ATOM     12  C   UNL     1      36.856 -23.654 -12.672  0.00  0.00    +0.123 C 
ATOM     13  C   UNL     1      35.676 -22.066 -18.382  0.00  0.00    +0.092 C 
ENDROOT
BRANCH   3  14
ATOM     14  C   UNL     1      32.295 -24.271 -14.534  0.00  0.00    +0.103 C 
BRANCH  14  15
ATOM     15  C   UNL     1      31.392 -23.149 -14.034  0.00  0.00    +0.022 C 
BRANCH  15  16
ATOM     16  C   UNL     1      30.334 -22.740 -15.065  0.00  0.00    +0.004 C 
BRANCH  16  17
ATOM     17  C   UNL     1      29.741 -23.971 -15.762  0.00  0.00    +0.029 C 
BRANCH  17  18
ATOM     18  C   UNL     1      28.237 -23.870 -16.047  0.00  0.00    +0.111 C 
ATOM     19  C   UNL     1      27.665 -22.479 -15.814  0.00  0.00    +0.032 C 
BRANCH  18  20
ATOM     20  O   UNL     1      27.967 -24.243 -17.396  0.00  0.00    -0.384 OA
ATOM     21  H   UNL     1      28.134 -23.486 -17.979  0.00  0.00    +0.210 HD
ENDBRANCH  18  20
ENDBRANCH  17  18
ENDBRANCH  16  17
ENDBRANCH  15  16
ENDBRANCH  14  15
ENDBRANCH   3  14
TORSDOF 6
ENDMDL
MODEL 4
REMARK VINA RESULT:      -8.0      9.638     11.474
REMARK  Name = 501254
REMARK  6 active torsions:
REMARK  status: ('A' for Active; 'I' for Inactive)
REMARK    1  A    between atoms: N_3  and  C_14
REMARK    2  A    between atoms: C_14  and  C_15
REMARK    3  A    between atoms: C_15  and  C_16
REMARK    4  A    between atoms: C_16  and  C_17
REMARK    5  A    between atoms: C_17  and  C_18
REMARK    6  A    between atoms: C_18  and  O_20
REMARK                            x       y       z     vdW  Elec       q    Type
REMARK                         _______ _______ _______ _____ _____    ______ ____
ROOT
ATOM      1  O   UNL     1      33.423 -24.398 -12.782  0.00  0.00    -0.272 OA
ATOM      2  O   UNL     1      34.662 -22.907 -17.055  0.00  0.00    -0.252 OA
ATOM      3  N   UNL     1      34.000 -23.657 -14.938  0.00  0.00    -0.212 N 
ATOM      4  N   UNL     1      36.301 -22.994 -15.406  0.00  0.00    -0.228 N 
ATOM      5  N   UNL     1      36.285 -23.947 -12.035  0.00  0.00    -0.239 NA
ATOM      6  N   UNL     1      37.811 -23.189 -13.472  0.00  0.00    -0.240 NA
ATOM      7  C   UNL     1      35.634 -23.762 -13.222  0.00  0.00    +0.192 C 
ATOM      8  C   UNL     1      34.267 -23.981 -13.570  0.00  0.00    +0.254 C 
ATOM      9  C   UNL     1      36.591 -23.299 -14.082  0.00  0.00    +0.136 C 
ATOM     10  C   UNL     1      34.979 -23.163 -15.887  0.00  0.00    +0.318 C 
ATOM     11  C   UNL     1      37.592 -23.589 -12.236  0.00  0.00    +0.203 C 
ATOM     12  C   UNL     1      37.354 -22.502 -16.285  0.00  0.00    +0.123 C 
ATOM     13  C   UNL     1      35.728 -24.427 -10.792  0.00  0.00    +0.092 C 
ENDROOT
BRANCH   3  14
ATOM     14  C   UNL     1      32.653 -23.837 -15.408  0.00  0.00    +0.103 C 
BRANCH  14  15
ATOM     15  C   UNL     1      31.720 -22.725 -14.942  0.00  0.00    +0.022 C 
BRANCH  15  16
ATOM     16  C   UNL     1      30.253 -23.168 -14.897  0.00  0.00    +0.004 C 
BRANCH  16  17
ATOM     17  C   UNL     1      29.659 -23.249 -16.308  0.00  0.00    +0.029 C 
BRANCH  17  18
ATOM     18  C   UNL     1      28.147 -23.511 -16.342  0.00  0.00    +0.111 C 
ATOM     19  C   UNL     1      27.314 -22.333 -15.857  0.00  0.00    +0.032 C 
BRANCH  18  20
ATOM     20  O   UNL     1      27.735 -23.834 -17.667  0.00  0.00    -0.384 OA
ATOM     21  H   UNL     1      28.448 -24.310 -18.120  0.00  0.00    +0.210 HD
ENDBRANCH  18  20
ENDBRANCH  17  18
ENDBRANCH  16  17
ENDBRANCH  15  16
ENDBRANCH  14  15
ENDBRANCH   3  14
TORSDOF 6
ENDMDL
MODEL 5
REMARK VINA RESULT:      -8.0      8.484     11.029
REMARK  Name = 501254
REMARK  6 active torsions:
REMARK  status: ('A' for Active; 'I' for Inactive)
REMARK    1  A    between atoms: N_3  and  C_14
REMARK    2  A    between atoms: C_14  and  C_15
REMARK    3  A    between atoms: C_15  and  C_16
REMARK    4  A    between atoms: C_16  and  C_17
REMARK    5  A    between atoms: C_17  and  C_18
REMARK    6  A    between atoms: C_18  and  O_20
REMARK                            x       y       z     vdW  Elec       q    Type
REMARK                         _______ _______ _______ _____ _____    ______ ____
ROOT
ATOM      1  O   UNL     1      33.355 -24.376 -12.786  0.00  0.00    -0.272 OA
ATOM      2  O   UNL     1      31.758 -22.865 -16.931  0.00  0.00    -0.252 OA
ATOM      3  N   UNL     1      32.511 -23.621 -14.846  0.00  0.00    -0.212 N 
ATOM      4  N   UNL     1      34.055 -23.129 -16.670  0.00  0.00    -0.228 N 
ATOM      5  N   UNL     1      36.078 -24.175 -14.009  0.00  0.00    -0.239 NA
ATOM      6  N   UNL     1      36.422 -23.498 -16.105  0.00  0.00    -0.240 NA
ATOM      7  C   UNL     1      34.845 -23.905 -14.530  0.00  0.00    +0.192 C 
ATOM      8  C   UNL     1      33.549 -24.004 -13.940  0.00  0.00    +0.254 C 
ATOM      9  C   UNL     1      35.085 -23.494 -15.813  0.00  0.00    +0.136 C 
ATOM     10  C   UNL     1      32.715 -23.179 -16.213  0.00  0.00    +0.318 C 
ATOM     11  C   UNL     1      36.994 -23.916 -14.994  0.00  0.00    +0.203 C 
ATOM     12  C   UNL     1      34.360 -22.697 -18.028  0.00  0.00    +0.123 C 
ATOM     13  C   UNL     1      36.386 -24.645 -12.679  0.00  0.00    +0.092 C 
ENDROOT
BRANCH   3  14
ATOM     14  C   UNL     1      31.158 -23.681 -14.364  0.00  0.00    +0.103 C 
BRANCH  14  15
ATOM     15  C   UNL     1      30.426 -24.934 -14.835  0.00  0.00    +0.022 C 
BRANCH  15  16
ATOM     16  C   UNL     1      28.925 -24.699 -15.034  0.00  0.00    +0.004 C 
BRANCH  16  17
ATOM     17  C   UNL     1      28.598 -24.454 -16.513  0.00  0.00    +0.029 C 
BRANCH  17  18
ATOM     18  C   UNL     1      28.075 -23.044 -16.818  0.00  0.00    +0.111 C 
ATOM     19  C   UNL     1      27.311 -22.415 -15.661  0.00  0.00    +0.032 C 
BRANCH  18  20
ATOM     20  O   UNL     1      29.157 -22.183 -17.159  0.00  0.00    -0.384 OA
ATOM     21  H   UNL     1      29.221 -22.110 -18.124  0.00  0.00    +0.210 HD
ENDBRANCH  18  20
ENDBRANCH  17  18
ENDBRANCH  16  17
ENDBRANCH  15  16
ENDBRANCH  14  15
ENDBRANCH   3  14
TORSDOF 6
ENDMDL
MODEL 6
REMARK VINA RESULT:      -7.8      2.446      6.360
REMARK  Name = 501254
REMARK  6 active torsions:
REMARK  status: ('A' for Active; 'I' for Inactive)
REMARK    1  A    between atoms: N_3  and  C_14
REMARK    2  A    between atoms: C_14  and  C_15
REMARK    3  A    between atoms: C_15  and  C_16
REMARK    4  A    between atoms: C_16  and  C_17
REMARK    5  A    between atoms: C_17  and  C_18
REMARK    6  A    between atoms: C_18  and  O_20
REMARK                            x       y       z     vdW  Elec       q    Type
REMARK                         _______ _______ _______ _____ _____    ______ ____
ROOT
ATOM      1  O   UNL     1      34.708 -16.331 -21.186  0.00  0.00    -0.272 OA
ATOM      2  O   UNL     1      33.062 -13.074 -24.135  0.00  0.00    -0.252 OA
ATOM      3  N   UNL     1      33.880 -14.668 -22.628  0.00  0.00    -0.212 N 
ATOM      4  N   UNL     1      33.588 -15.169 -24.998  0.00  0.00    -0.228 N 
ATOM      5  N   UNL     1      34.837 -18.119 -23.581  0.00  0.00    -0.239 NA
ATOM      6  N   UNL     1      34.226 -17.463 -25.623  0.00  0.00    -0.240 NA
ATOM      7  C   UNL     1      34.432 -16.820 -23.460  0.00  0.00    +0.192 C 
ATOM      8  C   UNL     1      34.373 -15.974 -22.312  0.00  0.00    +0.254 C 
ATOM      9  C   UNL     1      34.063 -16.445 -24.722  0.00  0.00    +0.136 C 
ATOM     10  C   UNL     1      33.478 -14.223 -23.949  0.00  0.00    +0.318 C 
ATOM     11  C   UNL     1      34.695 -18.461 -24.901  0.00  0.00    +0.203 C 
ATOM     12  C   UNL     1      33.208 -14.815 -26.360  0.00  0.00    +0.123 C 
ATOM     13  C   UNL     1      35.326 -18.989 -22.538  0.00  0.00    +0.092 C 
ENDROOT
BRANCH   3  14
ATOM     14  C   UNL     1      33.774 -13.724 -21.550  0.00  0.00    +0.103 C 
BRANCH  14  15
ATOM     15  C   UNL     1      32.376 -13.687 -20.943  0.00  0.00    +0.022 C 
BRANCH  15  16
ATOM     16  C   UNL     1      31.994 -12.294 -20.429  0.00  0.00    +0.004 C 
BRANCH  16  17
ATOM     17  C   UNL     1      31.013 -11.604 -21.385  0.00  0.00    +0.029 C 
BRANCH  17  18
ATOM     18  C   UNL     1      31.524 -10.278 -21.964  0.00  0.00    +0.111 C 
ATOM     19  C   UNL     1      32.024  -9.305 -20.906  0.00  0.00    +0.032 C 
BRANCH  18  20
ATOM     20  O   UNL     1      32.584 -10.521 -22.884  0.00  0.00    -0.384 OA
ATOM     21  H   UNL     1      32.467 -11.395 -23.289  0.00  0.00    +0.210 HD
ENDBRANCH  18  20
ENDBRANCH  17  18
ENDBRANCH  16  17
ENDBRANCH  15  16
ENDBRANCH  14  15
ENDBRANCH   3  14
TORSDOF 6
ENDMDL
MODEL 7
REMARK VINA RESULT:      -7.8      5.118      9.085
REMARK  Name = 501254
REMARK  6 active torsions:
REMARK  status: ('A' for Active; 'I' for Inactive)
REMARK    1  A    between atoms: N_3  and  C_14
REMARK    2  A    between atoms: C_14  and  C_15
REMARK    3  A    between atoms: C_15  and  C_16
REMARK    4  A    between atoms: C_16  and  C_17
REMARK    5  A    between atoms: C_17  and  C_18
REMARK    6  A    between atoms: C_18  and  O_20
REMARK                            x       y       z     vdW  Elec       q    Type
REMARK                         _______ _______ _______ _____ _____    ______ ____
ROOT
ATOM      1  O   UNL     1      32.114 -23.073 -17.831  0.00  0.00    -0.272 OA
ATOM      2  O   UNL     1      36.475 -21.673 -18.851  0.00  0.00    -0.252 OA
ATOM      3  N   UNL     1      34.285 -22.361 -18.386  0.00  0.00    -0.212 N 
ATOM      4  N   UNL     1      36.057 -22.488 -16.713  0.00  0.00    -0.228 N 
ATOM      5  N   UNL     1      33.191 -23.717 -15.115  0.00  0.00    -0.239 NA
ATOM      6  N   UNL     1      35.321 -23.390 -14.544  0.00  0.00    -0.240 NA
ATOM      7  C   UNL     1      33.808 -23.199 -16.218  0.00  0.00    +0.192 C 
ATOM      8  C   UNL     1      33.286 -22.895 -17.512  0.00  0.00    +0.254 C 
ATOM      9  C   UNL     1      35.109 -23.009 -15.841  0.00  0.00    +0.136 C 
ATOM     10  C   UNL     1      35.675 -22.141 -18.032  0.00  0.00    +0.318 C 
ATOM     11  C   UNL     1      34.143 -23.814 -14.134  0.00  0.00    +0.203 C 
ATOM     12  C   UNL     1      37.431 -22.304 -16.265  0.00  0.00    +0.123 C 
ATOM     13  C   UNL     1      31.805 -24.100 -14.981  0.00  0.00    +0.092 C 
ENDROOT
BRANCH   3  14
ATOM     14  C   UNL     1      33.879 -22.015 -19.721  0.00  0.00    +0.103 C 
BRANCH  14  15
ATOM     15  C   UNL     1      33.166 -20.668 -19.783  0.00  0.00    +0.022 C 
BRANCH  15  16
ATOM     16  C   UNL     1      33.564 -19.849 -21.015  0.00  0.00    +0.004 C 
BRANCH  16  17
ATOM     17  C   UNL     1      35.060 -19.511 -20.994  0.00  0.00    +0.029 C 
BRANCH  17  18
ATOM     18  C   UNL     1      35.528 -18.643 -22.168  0.00  0.00    +0.111 C 
ATOM     19  C   UNL     1      34.924 -19.051 -23.505  0.00  0.00    +0.032 C 
BRANCH  18  20
ATOM     20  O   UNL     1      35.200 -17.277 -21.929  0.00  0.00    -0.384 OA
ATOM     21  H   UNL     1      34.816 -17.187 -21.043  0.00  0.00    +0.210 HD
ENDBRANCH  18  20
ENDBRANCH  17  18
ENDBRANCH  16  17
ENDBRANCH  15  16
ENDBRANCH  14  15
ENDBRANCH   3  14
TORSDOF 6
ENDMDL
MODEL 8
REMARK VINA RESULT:      -7.7      8.476     10.919
REMARK  Name = 501254
REMARK  6 active torsions:
REMARK  status: ('A' for Active; 'I' for Inactive)
REMARK    1  A    between atoms: N_3  and  C_14
REMARK    2  A    between atoms: C_14  and  C_15
REMARK    3  A    between atoms: C_15  and  C_16
REMARK    4  A    between atoms: C_16  and  C_17
REMARK    5  A    between atoms: C_17  and  C_18
REMARK    6  A    between atoms: C_18  and  O_20
REMARK                            x       y       z     vdW  Elec       q    Type
REMARK                         _______ _______ _______ _____ _____    ______ ____
ROOT
ATOM      1  O   UNL     1      32.642 -24.654 -13.158  0.00  0.00    -0.272 OA
ATOM      2  O   UNL     1      36.148 -23.657 -16.114  0.00  0.00    -0.252 OA
ATOM      3  N   UNL     1      34.430 -24.171 -14.607  0.00  0.00    -0.212 N 
ATOM      4  N   UNL     1      33.974 -23.179 -16.790  0.00  0.00    -0.228 N 
ATOM      5  N   UNL     1      30.836 -23.574 -15.284  0.00  0.00    -0.239 NA
ATOM      6  N   UNL     1      31.585 -22.786 -17.231  0.00  0.00    -0.240 NA
ATOM      7  C   UNL     1      32.195 -23.703 -15.251  0.00  0.00    +0.192 C 
ATOM      8  C   UNL     1      33.051 -24.220 -14.232  0.00  0.00    +0.254 C 
ATOM      9  C   UNL     1      32.627 -23.213 -16.454  0.00  0.00    +0.136 C 
ATOM     10  C   UNL     1      34.936 -23.663 -15.869  0.00  0.00    +0.318 C 
ATOM     11  C   UNL     1      30.516 -23.017 -16.495  0.00  0.00    +0.203 C 
ATOM     12  C   UNL     1      34.386 -22.649 -18.083  0.00  0.00    +0.123 C 
ATOM     13  C   UNL     1      29.892 -23.943 -14.256  0.00  0.00    +0.092 C 
ENDROOT
BRANCH   3  14
ATOM     14  C   UNL     1      35.391 -24.665 -13.659  0.00  0.00    +0.103 C 
BRANCH  14  15
ATOM     15  C   UNL     1      36.073 -23.543 -12.884  0.00  0.00    +0.022 C 
BRANCH  15  16
ATOM     16  C   UNL     1      37.536 -23.860 -12.554  0.00  0.00    +0.004 C 
BRANCH  16  17
ATOM     17  C   UNL     1      37.930 -25.247 -13.079  0.00  0.00    +0.029 C 
BRANCH  17  18
ATOM     18  C   UNL     1      38.795 -25.220 -14.345  0.00  0.00    +0.111 C 
ATOM     19  C   UNL     1      40.194 -25.785 -14.139  0.00  0.00    +0.032 C 
BRANCH  18  20
ATOM     20  O   UNL     1      38.164 -25.960 -15.386  0.00  0.00    -0.384 OA
ATOM     21  H   UNL     1      38.242 -26.909 -15.200  0.00  0.00    +0.210 HD
ENDBRANCH  18  20
ENDBRANCH  17  18
ENDBRANCH  16  17
ENDBRANCH  15  16
ENDBRANCH  14  15
ENDBRANCH   3  14
TORSDOF 6
ENDMDL
MODEL 9
REMARK VINA RESULT:      -7.7      6.913      9.520
REMARK  Name = 501254
REMARK  6 active torsions:
REMARK  status: ('A' for Active; 'I' for Inactive)
REMARK    1  A    between atoms: N_3  and  C_14
REMARK    2  A    between atoms: C_14  and  C_15
REMARK    3  A    between atoms: C_15  and  C_16
REMARK    4  A    between atoms: C_16  and  C_17
REMARK    5  A    between atoms: C_17  and  C_18
REMARK    6  A    between atoms: C_18  and  O_20
REMARK                            x       y       z     vdW  Elec       q    Type
REMARK                         _______ _______ _______ _____ _____    ______ ____
ROOT
ATOM      1  O   UNL     1      33.916 -23.922 -14.899  0.00  0.00    -0.272 OA
ATOM      2  O   UNL     1      32.882 -22.430 -19.226  0.00  0.00    -0.252 OA
ATOM      3  N   UNL     1      33.353 -23.190 -17.062  0.00  0.00    -0.212 N 
ATOM      4  N   UNL     1      35.043 -22.091 -18.436  0.00  0.00    -0.228 N 
ATOM      5  N   UNL     1      36.660 -22.851 -15.422  0.00  0.00    -0.239 NA
ATOM      6  N   UNL     1      37.236 -21.869 -17.339  0.00  0.00    -0.240 NA
ATOM      7  C   UNL     1      35.544 -22.867 -16.210  0.00  0.00    +0.192 C 
ATOM      8  C   UNL     1      34.237 -23.380 -15.953  0.00  0.00    +0.254 C 
ATOM      9  C   UNL     1      35.925 -22.261 -17.376  0.00  0.00    +0.136 C 
ATOM     10  C   UNL     1      33.710 -22.554 -18.316  0.00  0.00    +0.318 C 
ATOM     11  C   UNL     1      37.651 -22.242 -16.145  0.00  0.00    +0.203 C 
ATOM     12  C   UNL     1      35.495 -21.438 -19.658  0.00  0.00    +0.123 C 
ATOM     13  C   UNL     1      36.797 -23.371 -14.082  0.00  0.00    +0.092 C 
ENDROOT
BRANCH   3  14
ATOM     14  C   UNL     1      32.005 -23.669 -16.921  0.00  0.00    +0.103 C 
BRANCH  14  15
ATOM     15  C   UNL     1      31.034 -22.563 -16.520  0.00  0.00    +0.022 C 
BRANCH  15  16
ATOM     16  C   UNL     1      30.047 -23.012 -15.437  0.00  0.00    +0.004 C 
BRANCH  16  17
ATOM     17  C   UNL     1      30.783 -23.410 -14.152  0.00  0.00    +0.029 C 
BRANCH  17  18
ATOM     18  C   UNL     1      30.691 -24.902 -13.808  0.00  0.00    +0.111 C 
ATOM     19  C   UNL     1      29.812 -25.694 -14.766  0.00  0.00    +0.032 C 
BRANCH  18  20
ATOM     20  O   UNL     1      31.990 -25.487 -13.808  0.00  0.00    -0.384 OA
ATOM     21  H   UNL     1      32.264 -25.666 -12.895  0.00  0.00    +0.210 HD
ENDBRANCH  18  20
ENDBRANCH  17  18
ENDBRANCH  16  17
ENDBRANCH  15  16
ENDBRANCH  14  15
ENDBRANCH   3  14
TORSDOF 6
ENDMDL
