MODEL 1
REMARK VINA RESULT:      -8.8      0.000      0.000
REMARK  Name = 5311236
REMARK  18 active torsions:
REMARK  status: ('A' for Active; 'I' for Inactive)
REMARK    1  A    between atoms: C_1  and  C_10
REMARK    2  A    between atoms: C_2  and  C_21
REMARK    3  A    between atoms: C_3  and  O_6
REMARK    4  A    between atoms: C_4  and  O_8
REMARK    5  A    between atoms: C_10  and  C_11
REMARK    6  A    between atoms: C_11  and  C_13
REMARK    7  A    between atoms: C_13  and  C_14
REMARK    8  A    between atoms: C_14  and  C_15
REMARK    9  A    between atoms: C_15  and  C_16
REMARK   10  A    between atoms: C_16  and  C_17
REMARK   11  A    between atoms: C_17  and  C_18
REMARK   12  A    between atoms: C_18  and  C_19
REMARK   13  A    between atoms: C_21  and  C_22
REMARK   14  A    between atoms: C_23  and  C_24
REMARK   15  A    between atoms: C_24  and  C_25
REMARK   16  A    between atoms: C_25  and  C_26
REMARK   17  A    between atoms: C_26  and  C_28
REMARK   18  A    between atoms: C_28  and  O_29
REMARK                            x       y       z     vdW  Elec       q    Type
REMARK                         _______ _______ _______ _____ _____    ______ ____
ROOT
ATOM      1  C   UNL     1      36.344 -23.214 -15.752  0.00  0.00    +0.030 C 
ATOM      2  C   UNL     1      35.230 -23.509 -14.736  0.00  0.00    +0.034 C 
ATOM      3  C   UNL     1      37.626 -23.411 -14.930  0.00  0.00    +0.113 C 
ATOM      4  C   UNL     1      35.790 -24.727 -13.990  0.00  0.00    +0.113 C 
ATOM      5  C   UNL     1      37.275 -24.402 -13.811  0.00  0.00    +0.058 C 
ENDROOT
BRANCH   3   6
ATOM      6  O   UNL     1      38.656 -23.922 -15.762  0.00  0.00    -0.384 OA
ATOM      7  H   UNL     1      39.067 -24.690 -15.335  0.00  0.00    +0.210 HD
ENDBRANCH   3   6
BRANCH   4   8
ATOM      8  O   UNL     1      35.684 -25.917 -14.763  0.00  0.00    -0.384 OA
ATOM      9  H   UNL     1      35.864 -26.685 -14.198  0.00  0.00    +0.210 HD
ENDBRANCH   4   8
BRANCH   1  10
ATOM     10  C   UNL     1      36.259 -21.824 -16.369  0.00  0.00    +0.010 C 
BRANCH  10  11
ATOM     11  C   UNL     1      36.681 -21.836 -17.835  0.00  0.00    +0.065 C 
BRANCH  11  13
ATOM     12  O   UNL     1      34.665 -22.856 -18.695  0.00  0.00    -0.296 OA
ATOM     13  C   UNL     1      35.495 -21.952 -18.780  0.00  0.00    +0.151 C 
BRANCH  13  14
ATOM     14  C   UNL     1      35.390 -20.905 -19.870  0.00  0.00    +0.065 C 
BRANCH  14  15
ATOM     15  C   UNL     1      33.931 -20.577 -20.167  0.00  0.00    +0.008 C 
BRANCH  15  16
ATOM     16  C   UNL     1      33.808 -19.578 -21.318  0.00  0.00    +0.000 C 
BRANCH  16  17
ATOM     17  C   UNL     1      34.888 -18.498 -21.235  0.00  0.00    +0.000 C 
BRANCH  17  18
ATOM     18  C   UNL     1      35.431 -18.147 -22.621  0.00  0.00    +0.000 C 
BRANCH  18  19
ATOM     19  C   UNL     1      34.970 -19.158 -23.670  0.00  0.00    +0.000 C 
ATOM     20  C   UNL     1      34.372 -18.466 -24.886  0.00  0.00    +0.000 C 
ENDBRANCH  18  19
ENDBRANCH  17  18
ENDBRANCH  16  17
ENDBRANCH  15  16
ENDBRANCH  14  15
ENDBRANCH  13  14
ENDBRANCH  11  13
ENDBRANCH  10  11
ENDBRANCH   1  10
BRANCH   2  21
ATOM     21  C   UNL     1      33.870 -23.737 -15.381  0.00  0.00    +0.028 C 
BRANCH  21  22
ATOM     22  C   UNL     1      32.765 -22.796 -14.987  0.00  0.00    -0.031 C 
ATOM     23  C   UNL     1      31.444 -23.023 -15.057  0.00  0.00    -0.031 C 
BRANCH  23  24
ATOM     24  C   UNL     1      30.846 -24.305 -15.560  0.00  0.00    +0.026 C 
BRANCH  24  25
ATOM     25  C   UNL     1      29.316 -24.265 -15.681  0.00  0.00    +0.016 C 
BRANCH  25  26
ATOM     26  C   UNL     1      28.742 -22.852 -15.838  0.00  0.00    +0.110 C 
BRANCH  26  28
ATOM     27  O   UNL     1      27.712 -23.511 -17.943  0.00  0.00    -0.250 OA
ATOM     28  C   UNL     1      27.856 -22.685 -17.052  0.00  0.00    +0.314 C 
BRANCH  28  29
ATOM     29  O   UNL     1      27.255 -21.467 -17.071  0.00  0.00    -0.480 OA
ATOM     30  H   UNL     1      27.170 -20.975 -16.278  0.00  0.00    +0.295 HD
ENDBRANCH  28  29
ENDBRANCH  26  28
ENDBRANCH  25  26
ENDBRANCH  24  25
ENDBRANCH  23  24
ENDBRANCH  21  22
ENDBRANCH   2  21
TORSDOF 18
ENDMDL
MODEL 2
REMARK VINA RESULT:      -8.7      7.681     11.199
REMARK  Name = 5311236
REMARK  18 active torsions:
REMARK  status: ('A' for Active; 'I' for Inactive)
REMARK    1  A    between atoms: C_1  and  C_10
REMARK    2  A    between atoms: C_2  and  C_21
REMARK    3  A    between atoms: C_3  and  O_6
REMARK    4  A    between atoms: C_4  and  O_8
REMARK    5  A    between atoms: C_10  and  C_11
REMARK    6  A    between atoms: C_11  and  C_13
REMARK    7  A    between atoms: C_13  and  C_14
REMARK    8  A    between atoms: C_14  and  C_15
REMARK    9  A    between atoms: C_15  and  C_16
REMARK   10  A    between atoms: C_16  and  C_17
REMARK   11  A    between atoms: C_17  and  C_18
REMARK   12  A    between atoms: C_18  and  C_19
REMARK   13  A    between atoms: C_21  and  C_22
REMARK   14  A    between atoms: C_23  and  C_24
REMARK   15  A    between atoms: C_24  and  C_25
REMARK   16  A    between atoms: C_25  and  C_26
REMARK   17  A    between atoms: C_26  and  C_28
REMARK   18  A    between atoms: C_28  and  O_29
REMARK                            x       y       z     vdW  Elec       q    Type
REMARK                         _______ _______ _______ _____ _____    ______ ____
ROOT
ATOM      1  C   UNL     1      34.377 -16.426 -23.508  0.00  0.00    +0.030 C 
ATOM      2  C   UNL     1      35.180 -16.796 -22.252  0.00  0.00    +0.034 C 
ATOM      3  C   UNL     1      34.943 -17.374 -24.575  0.00  0.00    +0.113 C 
ATOM      4  C   UNL     1      35.227 -18.326 -22.339  0.00  0.00    +0.113 C 
ATOM      5  C   UNL     1      35.469 -18.607 -23.824  0.00  0.00    +0.058 C 
ENDROOT
BRANCH   3   6
ATOM      6  O   UNL     1      33.920 -17.731 -25.492  0.00  0.00    -0.384 OA
ATOM      7  H   UNL     1      34.002 -18.671 -25.720  0.00  0.00    +0.210 HD
ENDBRANCH   3   6
BRANCH   4   8
ATOM      8  O   UNL     1      33.986 -18.917 -21.971  0.00  0.00    -0.384 OA
ATOM      9  H   UNL     1      33.257 -18.367 -22.301  0.00  0.00    +0.210 HD
ENDBRANCH   4   8
BRANCH   1  10
ATOM     10  C   UNL     1      34.503 -14.962 -23.908  0.00  0.00    +0.010 C 
BRANCH  10  11
ATOM     11  C   UNL     1      33.208 -14.436 -24.520  0.00  0.00    +0.065 C 
BRANCH  11  13
ATOM     12  O   UNL     1      33.425 -15.161 -26.816  0.00  0.00    -0.296 OA
ATOM     13  C   UNL     1      33.318 -14.227 -26.022  0.00  0.00    +0.151 C 
BRANCH  13  14
ATOM     14  C   UNL     1      33.321 -12.792 -26.510  0.00  0.00    +0.065 C 
BRANCH  14  15
ATOM     15  C   UNL     1      33.794 -11.848 -25.410  0.00  0.00    +0.008 C 
BRANCH  15  16
ATOM     16  C   UNL     1      34.888 -10.909 -25.917  0.00  0.00    +0.000 C 
BRANCH  16  17
ATOM     17  C   UNL     1      35.352  -9.951 -24.818  0.00  0.00    +0.000 C 
BRANCH  17  18
ATOM     18  C   UNL     1      34.166  -9.388 -24.034  0.00  0.00    +0.000 C 
BRANCH  18  19
ATOM     19  C   UNL     1      34.507  -8.037 -23.405  0.00  0.00    +0.000 C 
ATOM     20  C   UNL     1      34.491  -6.921 -24.438  0.00  0.00    +0.000 C 
ENDBRANCH  18  19
ENDBRANCH  17  18
ENDBRANCH  16  17
ENDBRANCH  15  16
ENDBRANCH  14  15
ENDBRANCH  13  14
ENDBRANCH  11  13
ENDBRANCH  10  11
ENDBRANCH   1  10
BRANCH   2  21
ATOM     21  C   UNL     1      34.570 -16.257 -20.965  0.00  0.00    +0.028 C 
BRANCH  21  22
ATOM     22  C   UNL     1      33.068 -16.213 -20.891  0.00  0.00    -0.031 C 
ATOM     23  C   UNL     1      32.293 -15.119 -20.816  0.00  0.00    -0.031 C 
BRANCH  23  24
ATOM     24  C   UNL     1      32.832 -13.718 -20.792  0.00  0.00    +0.026 C 
BRANCH  24  25
ATOM     25  C   UNL     1      31.906 -12.691 -21.459  0.00  0.00    +0.016 C 
BRANCH  25  26
ATOM     26  C   UNL     1      31.512 -11.525 -20.546  0.00  0.00    +0.110 C 
BRANCH  26  28
ATOM     27  O   UNL     1      32.017  -9.148 -20.692  0.00  0.00    -0.250 OA
ATOM     28  C   UNL     1      31.598 -10.171 -21.215  0.00  0.00    +0.314 C 
BRANCH  28  29
ATOM     29  O   UNL     1      31.106 -10.204 -22.481  0.00  0.00    -0.480 OA
ATOM     30  H   UNL     1      31.370 -10.886 -23.068  0.00  0.00    +0.295 HD
ENDBRANCH  28  29
ENDBRANCH  26  28
ENDBRANCH  25  26
ENDBRANCH  24  25
ENDBRANCH  23  24
ENDBRANCH  21  22
ENDBRANCH   2  21
TORSDOF 18
ENDMDL
MODEL 3
REMARK VINA RESULT:      -8.6      5.965     10.341
REMARK  Name = 5311236
REMARK  18 active torsions:
REMARK  status: ('A' for Active; 'I' for Inactive)
REMARK    1  A    between atoms: C_1  and  C_10
REMARK    2  A    between atoms: C_2  and  C_21
REMARK    3  A    between atoms: C_3  and  O_6
REMARK    4  A    between atoms: C_4  and  O_8
REMARK    5  A    between atoms: C_10  and  C_11
REMARK    6  A    between atoms: C_11  and  C_13
REMARK    7  A    between atoms: C_13  and  C_14
REMARK    8  A    between atoms: C_14  and  C_15
REMARK    9  A    between atoms: C_15  and  C_16
REMARK   10  A    between atoms: C_16  and  C_17
REMARK   11  A    between atoms: C_17  and  C_18
REMARK   12  A    between atoms: C_18  and  C_19
REMARK   13  A    between atoms: C_21  and  C_22
REMARK   14  A    between atoms: C_23  and  C_24
REMARK   15  A    between atoms: C_24  and  C_25
REMARK   16  A    between atoms: C_25  and  C_26
REMARK   17  A    between atoms: C_26  and  C_28
REMARK   18  A    between atoms: C_28  and  O_29
REMARK                            x       y       z     vdW  Elec       q    Type
REMARK                         _______ _______ _______ _____ _____    ______ ____
ROOT
ATOM      1  C   UNL     1      33.912 -14.973 -22.919  0.00  0.00    +0.030 C 
ATOM      2  C   UNL     1      34.063 -16.234 -22.055  0.00  0.00    +0.034 C 
ATOM      3  C   UNL     1      32.710 -14.259 -22.286  0.00  0.00    +0.113 C 
ATOM      4  C   UNL     1      33.828 -15.685 -20.642  0.00  0.00    +0.113 C 
ATOM      5  C   UNL     1      32.670 -14.699 -20.815  0.00  0.00    +0.058 C 
ENDROOT
BRANCH   3   6
ATOM      6  O   UNL     1      32.874 -12.853 -22.395  0.00  0.00    -0.384 OA
ATOM      7  H   UNL     1      32.067 -12.459 -22.761  0.00  0.00    +0.210 HD
ENDBRANCH   3   6
BRANCH   4   8
ATOM      8  O   UNL     1      34.957 -14.966 -20.157  0.00  0.00    -0.384 OA
ATOM      9  H   UNL     1      35.553 -15.576 -19.695  0.00  0.00    +0.210 HD
ENDBRANCH   4   8
BRANCH   1  10
ATOM     10  C   UNL     1      33.698 -15.266 -24.399  0.00  0.00    +0.010 C 
BRANCH  10  11
ATOM     11  C   UNL     1      32.906 -14.153 -25.079  0.00  0.00    +0.065 C 
BRANCH  11  13
ATOM     12  O   UNL     1      33.300 -14.919 -27.337  0.00  0.00    -0.296 OA
ATOM     13  C   UNL     1      33.284 -13.981 -26.542  0.00  0.00    +0.151 C 
BRANCH  13  14
ATOM     14  C   UNL     1      33.679 -12.585 -26.981  0.00  0.00    +0.065 C 
BRANCH  14  15
ATOM     15  C   UNL     1      33.806 -11.656 -25.780  0.00  0.00    +0.008 C 
BRANCH  15  16
ATOM     16  C   UNL     1      35.038 -10.758 -25.899  0.00  0.00    +0.000 C 
BRANCH  16  17
ATOM     17  C   UNL     1      35.208  -9.879 -24.659  0.00  0.00    +0.000 C 
BRANCH  17  18
ATOM     18  C   UNL     1      33.929  -9.848 -23.820  0.00  0.00    +0.000 C 
BRANCH  18  19
ATOM     19  C   UNL     1      33.623  -8.435 -23.326  0.00  0.00    +0.000 C 
ATOM     20  C   UNL     1      34.805  -7.501 -23.540  0.00  0.00    +0.000 C 
ENDBRANCH  18  19
ENDBRANCH  17  18
ENDBRANCH  16  17
ENDBRANCH  15  16
ENDBRANCH  14  15
ENDBRANCH  13  14
ENDBRANCH  11  13
ENDBRANCH  10  11
ENDBRANCH   1  10
BRANCH   2  21
ATOM     21  C   UNL     1      35.401 -16.937 -22.242  0.00  0.00    +0.028 C 
BRANCH  21  22
ATOM     22  C   UNL     1      35.393 -18.209 -23.044  0.00  0.00    -0.031 C 
ATOM     23  C   UNL     1      34.743 -19.347 -22.753  0.00  0.00    -0.031 C 
BRANCH  23  24
ATOM     24  C   UNL     1      33.888 -19.527 -21.532  0.00  0.00    +0.026 C 
BRANCH  24  25
ATOM     25  C   UNL     1      34.582 -20.305 -20.405  0.00  0.00    +0.016 C 
BRANCH  25  26
ATOM     26  C   UNL     1      33.664 -21.293 -19.676  0.00  0.00    +0.110 C 
BRANCH  26  28
ATOM     27  O   UNL     1      35.335 -22.358 -18.262  0.00  0.00    -0.250 OA
ATOM     28  C   UNL     1      34.399 -22.453 -19.042  0.00  0.00    +0.314 C 
BRANCH  28  29
ATOM     29  O   UNL     1      33.921 -23.648 -19.479  0.00  0.00    -0.480 OA
ATOM     30  H   UNL     1      34.515 -24.314 -19.765  0.00  0.00    +0.295 HD
ENDBRANCH  28  29
ENDBRANCH  26  28
ENDBRANCH  25  26
ENDBRANCH  24  25
ENDBRANCH  23  24
ENDBRANCH  21  22
ENDBRANCH   2  21
TORSDOF 18
ENDMDL
MODEL 4
REMARK VINA RESULT:      -8.6      2.281      6.345
REMARK  Name = 5311236
REMARK  18 active torsions:
REMARK  status: ('A' for Active; 'I' for Inactive)
REMARK    1  A    between atoms: C_1  and  C_10
REMARK    2  A    between atoms: C_2  and  C_21
REMARK    3  A    between atoms: C_3  and  O_6
REMARK    4  A    between atoms: C_4  and  O_8
REMARK    5  A    between atoms: C_10  and  C_11
REMARK    6  A    between atoms: C_11  and  C_13
REMARK    7  A    between atoms: C_13  and  C_14
REMARK    8  A    between atoms: C_14  and  C_15
REMARK    9  A    between atoms: C_15  and  C_16
REMARK   10  A    between atoms: C_16  and  C_17
REMARK   11  A    between atoms: C_17  and  C_18
REMARK   12  A    between atoms: C_18  and  C_19
REMARK   13  A    between atoms: C_21  and  C_22
REMARK   14  A    between atoms: C_23  and  C_24
REMARK   15  A    between atoms: C_24  and  C_25
REMARK   16  A    between atoms: C_25  and  C_26
REMARK   17  A    between atoms: C_26  and  C_28
REMARK   18  A    between atoms: C_28  and  O_29
REMARK                            x       y       z     vdW  Elec       q    Type
REMARK                         _______ _______ _______ _____ _____    ______ ____
ROOT
ATOM      1  C   UNL     1      33.196 -23.242 -15.586  0.00  0.00    +0.030 C 
ATOM      2  C   UNL     1      33.772 -24.107 -14.456  0.00  0.00    +0.034 C 
ATOM      3  C   UNL     1      31.773 -23.794 -15.757  0.00  0.00    +0.113 C 
ATOM      4  C   UNL     1      32.588 -24.200 -13.486  0.00  0.00    +0.113 C 
ATOM      5  C   UNL     1      31.374 -24.389 -14.399  0.00  0.00    +0.058 C 
ENDROOT
BRANCH   3   6
ATOM      6  O   UNL     1      30.893 -22.746 -16.135  0.00  0.00    -0.384 OA
ATOM      7  H   UNL     1      31.265 -22.267 -16.892  0.00  0.00    +0.210 HD
ENDBRANCH   3   6
BRANCH   4   8
ATOM      8  O   UNL     1      32.409 -22.994 -12.751  0.00  0.00    -0.384 OA
ATOM      9  H   UNL     1      32.973 -23.011 -11.962  0.00  0.00    +0.210 HD
ENDBRANCH   4   8
BRANCH   1  10
ATOM     10  C   UNL     1      34.000 -23.304 -16.879  0.00  0.00    +0.010 C 
BRANCH  10  11
ATOM     11  C   UNL     1      33.195 -22.778 -18.064  0.00  0.00    +0.065 C 
BRANCH  11  13
ATOM     12  O   UNL     1      35.247 -22.394 -19.282  0.00  0.00    -0.296 OA
ATOM     13  C   UNL     1      34.070 -22.089 -19.099  0.00  0.00    +0.151 C 
BRANCH  13  14
ATOM     14  C   UNL     1      33.428 -20.968 -19.893  0.00  0.00    +0.065 C 
BRANCH  14  15
ATOM     15  C   UNL     1      34.484 -20.161 -20.640  0.00  0.00    +0.008 C 
BRANCH  15  16
ATOM     16  C   UNL     1      33.940 -18.800 -21.072  0.00  0.00    +0.000 C 
BRANCH  16  17
ATOM     17  C   UNL     1      35.072 -17.840 -21.444  0.00  0.00    +0.000 C 
BRANCH  17  18
ATOM     18  C   UNL     1      35.785 -18.290 -22.720  0.00  0.00    +0.000 C 
BRANCH  18  19
ATOM     19  C   UNL     1      35.066 -17.777 -23.968  0.00  0.00    +0.000 C 
ATOM     20  C   UNL     1      34.480 -18.919 -24.783  0.00  0.00    +0.000 C 
ENDBRANCH  18  19
ENDBRANCH  17  18
ENDBRANCH  16  17
ENDBRANCH  15  16
ENDBRANCH  14  15
ENDBRANCH  13  14
ENDBRANCH  11  13
ENDBRANCH  10  11
ENDBRANCH   1  10
BRANCH   2  21
ATOM     21  C   UNL     1      35.043 -23.534 -13.845  0.00  0.00    +0.028 C 
BRANCH  21  22
ATOM     22  C   UNL     1      35.371 -23.956 -12.439  0.00  0.00    -0.031 C 
ATOM     23  C   UNL     1      36.183 -24.957 -12.063  0.00  0.00    -0.031 C 
BRANCH  23  24
ATOM     24  C   UNL     1      36.916 -25.842 -13.029  0.00  0.00    +0.026 C 
BRANCH  24  25
ATOM     25  C   UNL     1      38.432 -25.605 -13.054  0.00  0.00    +0.016 C 
BRANCH  25  26
ATOM     26  C   UNL     1      38.989 -25.291 -14.446  0.00  0.00    +0.110 C 
BRANCH  26  28
ATOM     27  O   UNL     1      41.060 -26.456 -13.920  0.00  0.00    -0.250 OA
ATOM     28  C   UNL     1      40.296 -25.988 -14.752  0.00  0.00    +0.314 C 
BRANCH  28  29
ATOM     29  O   UNL     1      40.558 -26.002 -16.085  0.00  0.00    -0.480 OA
ATOM     30  H   UNL     1      39.960 -26.417 -16.675  0.00  0.00    +0.295 HD
ENDBRANCH  28  29
ENDBRANCH  26  28
ENDBRANCH  25  26
ENDBRANCH  24  25
ENDBRANCH  23  24
ENDBRANCH  21  22
ENDBRANCH   2  21
TORSDOF 18
ENDMDL
MODEL 5
REMARK VINA RESULT:      -8.5      7.382     11.429
REMARK  Name = 5311236
REMARK  18 active torsions:
REMARK  status: ('A' for Active; 'I' for Inactive)
REMARK    1  A    between atoms: C_1  and  C_10
REMARK    2  A    between atoms: C_2  and  C_21
REMARK    3  A    between atoms: C_3  and  O_6
REMARK    4  A    between atoms: C_4  and  O_8
REMARK    5  A    between atoms: C_10  and  C_11
REMARK    6  A    between atoms: C_11  and  C_13
REMARK    7  A    between atoms: C_13  and  C_14
REMARK    8  A    between atoms: C_14  and  C_15
REMARK    9  A    between atoms: C_15  and  C_16
REMARK   10  A    between atoms: C_16  and  C_17
REMARK   11  A    between atoms: C_17  and  C_18
REMARK   12  A    between atoms: C_18  and  C_19
REMARK   13  A    between atoms: C_21  and  C_22
REMARK   14  A    between atoms: C_23  and  C_24
REMARK   15  A    between atoms: C_24  and  C_25
REMARK   16  A    between atoms: C_25  and  C_26
REMARK   17  A    between atoms: C_26  and  C_28
REMARK   18  A    between atoms: C_28  and  O_29
REMARK                            x       y       z     vdW  Elec       q    Type
REMARK                         _______ _______ _______ _____ _____    ______ ____
ROOT
ATOM      1  C   UNL     1      33.370 -13.984 -22.510  0.00  0.00    +0.030 C 
ATOM      2  C   UNL     1      33.619 -15.498 -22.565  0.00  0.00    +0.034 C 
ATOM      3  C   UNL     1      32.316 -13.845 -21.402  0.00  0.00    +0.113 C 
ATOM      4  C   UNL     1      33.643 -15.875 -21.079  0.00  0.00    +0.113 C 
ATOM      5  C   UNL     1      32.508 -15.049 -20.468  0.00  0.00    +0.058 C 
ENDROOT
BRANCH   3   6
ATOM      6  O   UNL     1      32.509 -12.622 -20.707  0.00  0.00    -0.384 OA
ATOM      7  H   UNL     1      31.661 -12.315 -20.349  0.00  0.00    +0.210 HD
ENDBRANCH   3   6
BRANCH   4   8
ATOM      8  O   UNL     1      34.861 -15.487 -20.453  0.00  0.00    -0.384 OA
ATOM      9  H   UNL     1      35.242 -14.733 -20.929  0.00  0.00    +0.210 HD
ENDBRANCH   4   8
BRANCH   1  10
ATOM     10  C   UNL     1      32.901 -13.391 -23.833  0.00  0.00    +0.010 C 
BRANCH  10  11
ATOM     11  C   UNL     1      33.866 -12.323 -24.340  0.00  0.00    +0.065 C 
BRANCH  11  13
ATOM     12  O   UNL     1      32.548 -10.718 -23.102  0.00  0.00    -0.296 OA
ATOM     13  C   UNL     1      33.531 -10.938 -23.808  0.00  0.00    +0.151 C 
BRANCH  13  14
ATOM     14  C   UNL     1      34.458  -9.811 -24.217  0.00  0.00    +0.065 C 
BRANCH  14  15
ATOM     15  C   UNL     1      34.203  -8.568 -23.373  0.00  0.00    +0.008 C 
BRANCH  15  16
ATOM     16  C   UNL     1      34.622  -7.297 -24.113  0.00  0.00    +0.000 C 
BRANCH  16  17
ATOM     17  C   UNL     1      33.409  -6.443 -24.484  0.00  0.00    +0.000 C 
BRANCH  17  18
ATOM     18  C   UNL     1      32.179  -6.839 -23.666  0.00  0.00    +0.000 C 
BRANCH  18  19
ATOM     19  C   UNL     1      31.834  -5.771 -22.629  0.00  0.00    +0.000 C 
ATOM     20  C   UNL     1      31.970  -6.305 -21.211  0.00  0.00    +0.000 C 
ENDBRANCH  18  19
ENDBRANCH  17  18
ENDBRANCH  16  17
ENDBRANCH  15  16
ENDBRANCH  14  15
ENDBRANCH  13  14
ENDBRANCH  11  13
ENDBRANCH  10  11
ENDBRANCH   1  10
BRANCH   2  21
ATOM     21  C   UNL     1      34.881 -15.875 -23.329  0.00  0.00    +0.028 C 
BRANCH  21  22
ATOM     22  C   UNL     1      34.934 -17.260 -23.914  0.00  0.00    -0.031 C 
ATOM     23  C   UNL     1      35.538 -18.338 -23.390  0.00  0.00    -0.031 C 
BRANCH  23  24
ATOM     24  C   UNL     1      36.283 -18.322 -22.087  0.00  0.00    +0.026 C 
BRANCH  24  25
ATOM     25  C   UNL     1      35.721 -19.298 -21.044  0.00  0.00    +0.016 C 
BRANCH  25  26
ATOM     26  C   UNL     1      34.227 -19.595 -21.213  0.00  0.00    +0.110 C 
BRANCH  26  28
ATOM     27  O   UNL     1      32.529 -20.525 -19.737  0.00  0.00    -0.250 OA
ATOM     28  C   UNL     1      33.672 -20.542 -20.172  0.00  0.00    +0.314 C 
BRANCH  28  29
ATOM     29  O   UNL     1      34.618 -21.411 -19.728  0.00  0.00    -0.480 OA
ATOM     30  H   UNL     1      35.284 -21.116 -19.139  0.00  0.00    +0.295 HD
ENDBRANCH  28  29
ENDBRANCH  26  28
ENDBRANCH  25  26
ENDBRANCH  24  25
ENDBRANCH  23  24
ENDBRANCH  21  22
ENDBRANCH   2  21
TORSDOF 18
ENDMDL
MODEL 6
REMARK VINA RESULT:      -8.2      5.705      9.471
REMARK  Name = 5311236
REMARK  18 active torsions:
REMARK  status: ('A' for Active; 'I' for Inactive)
REMARK    1  A    between atoms: C_1  and  C_10
REMARK    2  A    between atoms: C_2  and  C_21
REMARK    3  A    between atoms: C_3  and  O_6
REMARK    4  A    between atoms: C_4  and  O_8
REMARK    5  A    between atoms: C_10  and  C_11
REMARK    6  A    between atoms: C_11  and  C_13
REMARK    7  A    between atoms: C_13  and  C_14
REMARK    8  A    between atoms: C_14  and  C_15
REMARK    9  A    between atoms: C_15  and  C_16
REMARK   10  A    between atoms: C_16  and  C_17
REMARK   11  A    between atoms: C_17  and  C_18
REMARK   12  A    between atoms: C_18  and  C_19
REMARK   13  A    between atoms: C_21  and  C_22
REMARK   14  A    between atoms: C_23  and  C_24
REMARK   15  A    between atoms: C_24  and  C_25
REMARK   16  A    between atoms: C_25  and  C_26
REMARK   17  A    between atoms: C_26  and  C_28
REMARK   18  A    between atoms: C_28  and  O_29
REMARK                            x       y       z     vdW  Elec       q    Type
REMARK                         _______ _______ _______ _____ _____    ______ ____
ROOT
ATOM      1  C   UNL     1      34.221 -16.045 -22.656  0.00  0.00    +0.030 C 
ATOM      2  C   UNL     1      35.323 -17.100 -22.478  0.00  0.00    +0.034 C 
ATOM      3  C   UNL     1      34.401 -15.595 -24.112  0.00  0.00    +0.113 C 
ATOM      4  C   UNL     1      35.248 -17.870 -23.803  0.00  0.00    +0.113 C 
ATOM      5  C   UNL     1      35.040 -16.778 -24.855  0.00  0.00    +0.058 C 
ENDROOT
BRANCH   3   6
ATOM      6  O   UNL     1      33.139 -15.261 -24.672  0.00  0.00    -0.384 OA
ATOM      7  H   UNL     1      33.064 -15.650 -25.557  0.00  0.00    +0.210 HD
ENDBRANCH   3   6
BRANCH   4   8
ATOM      8  O   UNL     1      34.127 -18.746 -23.844  0.00  0.00    -0.384 OA
ATOM      9  H   UNL     1      33.724 -18.712 -24.726  0.00  0.00    +0.210 HD
ENDBRANCH   4   8
BRANCH   1  10
ATOM     10  C   UNL     1      34.319 -14.884 -21.675  0.00  0.00    +0.010 C 
BRANCH  10  11
ATOM     11  C   UNL     1      32.968 -14.573 -21.038  0.00  0.00    +0.065 C 
BRANCH  11  13
ATOM     12  O   UNL     1      32.202 -13.174 -22.854  0.00  0.00    -0.296 OA
ATOM     13  C   UNL     1      32.311 -13.341 -21.641  0.00  0.00    +0.151 C 
BRANCH  13  14
ATOM     14  C   UNL     1      31.814 -12.292 -20.667  0.00  0.00    +0.065 C 
BRANCH  14  15
ATOM     15  C   UNL     1      31.171 -11.126 -21.409  0.00  0.00    +0.008 C 
BRANCH  15  16
ATOM     16  C   UNL     1      31.819  -9.796 -21.025  0.00  0.00    +0.000 C 
BRANCH  16  17
ATOM     17  C   UNL     1      32.045  -8.912 -22.252  0.00  0.00    +0.000 C 
BRANCH  17  18
ATOM     18  C   UNL     1      32.365  -9.751 -23.490  0.00  0.00    +0.000 C 
BRANCH  18  19
ATOM     19  C   UNL     1      33.869  -9.805 -23.752  0.00  0.00    +0.000 C 
ATOM     20  C   UNL     1      34.224 -10.906 -24.740  0.00  0.00    +0.000 C 
ENDBRANCH  18  19
ENDBRANCH  17  18
ENDBRANCH  16  17
ENDBRANCH  15  16
ENDBRANCH  14  15
ENDBRANCH  13  14
ENDBRANCH  11  13
ENDBRANCH  10  11
ENDBRANCH   1  10
BRANCH   2  21
ATOM     21  C   UNL     1      35.138 -17.963 -21.238  0.00  0.00    +0.028 C 
BRANCH  21  22
ATOM     22  C   UNL     1      36.197 -18.995 -20.964  0.00  0.00    -0.031 C 
ATOM     23  C   UNL     1      36.016 -20.230 -20.470  0.00  0.00    -0.031 C 
BRANCH  23  24
ATOM     24  C   UNL     1      34.673 -20.790 -20.102  0.00  0.00    +0.026 C 
BRANCH  24  25
ATOM     25  C   UNL     1      34.749 -22.018 -19.183  0.00  0.00    +0.016 C 
BRANCH  25  26
ATOM     26  C   UNL     1      33.400 -22.429 -18.583  0.00  0.00    +0.110 C 
BRANCH  26  28
ATOM     27  O   UNL     1      32.579 -23.519 -16.567  0.00  0.00    -0.250 OA
ATOM     28  C   UNL     1      33.517 -23.166 -17.267  0.00  0.00    +0.314 C 
BRANCH  28  29
ATOM     29  O   UNL     1      34.815 -23.362 -16.915  0.00  0.00    -0.480 OA
ATOM     30  H   UNL     1      35.021 -23.776 -16.101  0.00  0.00    +0.295 HD
ENDBRANCH  28  29
ENDBRANCH  26  28
ENDBRANCH  25  26
ENDBRANCH  24  25
ENDBRANCH  23  24
ENDBRANCH  21  22
ENDBRANCH   2  21
TORSDOF 18
ENDMDL
MODEL 7
REMARK VINA RESULT:      -8.2      2.363      7.823
REMARK  Name = 5311236
REMARK  18 active torsions:
REMARK  status: ('A' for Active; 'I' for Inactive)
REMARK    1  A    between atoms: C_1  and  C_10
REMARK    2  A    between atoms: C_2  and  C_21
REMARK    3  A    between atoms: C_3  and  O_6
REMARK    4  A    between atoms: C_4  and  O_8
REMARK    5  A    between atoms: C_10  and  C_11
REMARK    6  A    between atoms: C_11  and  C_13
REMARK    7  A    between atoms: C_13  and  C_14
REMARK    8  A    between atoms: C_14  and  C_15
REMARK    9  A    between atoms: C_15  and  C_16
REMARK   10  A    between atoms: C_16  and  C_17
REMARK   11  A    between atoms: C_17  and  C_18
REMARK   12  A    between atoms: C_18  and  C_19
REMARK   13  A    between atoms: C_21  and  C_22
REMARK   14  A    between atoms: C_23  and  C_24
REMARK   15  A    between atoms: C_24  and  C_25
REMARK   16  A    between atoms: C_25  and  C_26
REMARK   17  A    between atoms: C_26  and  C_28
REMARK   18  A    between atoms: C_28  and  O_29
REMARK                            x       y       z     vdW  Elec       q    Type
REMARK                         _______ _______ _______ _____ _____    ______ ____
ROOT
ATOM      1  C   UNL     1      33.419 -24.099 -15.320  0.00  0.00    +0.030 C 
ATOM      2  C   UNL     1      32.786 -22.949 -16.116  0.00  0.00    +0.034 C 
ATOM      3  C   UNL     1      32.888 -23.872 -13.897  0.00  0.00    +0.113 C 
ATOM      4  C   UNL     1      31.360 -22.913 -15.550  0.00  0.00    +0.113 C 
ATOM      5  C   UNL     1      31.552 -23.130 -14.047  0.00  0.00    +0.058 C 
ENDROOT
BRANCH   3   6
ATOM      6  O   UNL     1      32.709 -25.121 -13.246  0.00  0.00    -0.384 OA
ATOM      7  H   UNL     1      32.116 -25.009 -12.486  0.00  0.00    +0.210 HD
ENDBRANCH   3   6
BRANCH   4   8
ATOM      8  O   UNL     1      30.562 -23.977 -16.055  0.00  0.00    -0.384 OA
ATOM      9  H   UNL     1      30.502 -23.906 -17.021  0.00  0.00    +0.210 HD
ENDBRANCH   4   8
BRANCH   1  10
ATOM     10  C   UNL     1      34.941 -24.117 -15.373  0.00  0.00    +0.010 C 
BRANCH  10  11
ATOM     11  C   UNL     1      35.535 -22.816 -14.841  0.00  0.00    +0.065 C 
BRANCH  11  13
ATOM     12  O   UNL     1      37.880 -22.934 -15.414  0.00  0.00    -0.296 OA
ATOM     13  C   UNL     1      37.019 -22.937 -14.536  0.00  0.00    +0.151 C 
BRANCH  13  14
ATOM     14  C   UNL     1      37.402 -23.096 -13.078  0.00  0.00    +0.065 C 
BRANCH  14  15
ATOM     15  C   UNL     1      36.188 -23.474 -12.238  0.00  0.00    +0.008 C 
BRANCH  15  16
ATOM     16  C   UNL     1      36.167 -24.972 -11.933  0.00  0.00    +0.000 C 
BRANCH  16  17
ATOM     17  C   UNL     1      37.450 -25.655 -12.409  0.00  0.00    +0.000 C 
BRANCH  17  18
ATOM     18  C   UNL     1      37.160 -26.683 -13.503  0.00  0.00    +0.000 C 
BRANCH  18  19
ATOM     19  C   UNL     1      38.002 -26.419 -14.751  0.00  0.00    +0.000 C 
ATOM     20  C   UNL     1      39.391 -25.916 -14.389  0.00  0.00    +0.000 C 
ENDBRANCH  18  19
ENDBRANCH  17  18
ENDBRANCH  16  17
ENDBRANCH  15  16
ENDBRANCH  14  15
ENDBRANCH  13  14
ENDBRANCH  11  13
ENDBRANCH  10  11
ENDBRANCH   1  10
BRANCH   2  21
ATOM     21  C   UNL     1      32.858 -23.147 -17.624  0.00  0.00    +0.028 C 
BRANCH  21  22
ATOM     22  C   UNL     1      34.119 -22.693 -18.309  0.00  0.00    -0.031 C 
ATOM     23  C   UNL     1      34.236 -21.725 -19.231  0.00  0.00    -0.031 C 
BRANCH  23  24
ATOM     24  C   UNL     1      33.078 -20.915 -19.739  0.00  0.00    +0.026 C 
BRANCH  24  25
ATOM     25  C   UNL     1      33.473 -19.869 -20.790  0.00  0.00    +0.016 C 
BRANCH  25  26
ATOM     26  C   UNL     1      34.979 -19.802 -21.065  0.00  0.00    +0.110 C 
BRANCH  26  28
ATOM     27  O   UNL     1      35.328 -17.434 -20.619  0.00  0.00    -0.250 OA
ATOM     28  C   UNL     1      35.486 -18.404 -21.346  0.00  0.00    +0.314 C 
BRANCH  28  29
ATOM     29  O   UNL     1      36.116 -18.332 -22.548  0.00  0.00    -0.480 OA
ATOM     30  H   UNL     1      36.812 -17.717 -22.675  0.00  0.00    +0.295 HD
ENDBRANCH  28  29
ENDBRANCH  26  28
ENDBRANCH  25  26
ENDBRANCH  24  25
ENDBRANCH  23  24
ENDBRANCH  21  22
ENDBRANCH   2  21
TORSDOF 18
ENDMDL
MODEL 8
REMARK VINA RESULT:      -8.1      2.187      5.824
REMARK  Name = 5311236
REMARK  18 active torsions:
REMARK  status: ('A' for Active; 'I' for Inactive)
REMARK    1  A    between atoms: C_1  and  C_10
REMARK    2  A    between atoms: C_2  and  C_21
REMARK    3  A    between atoms: C_3  and  O_6
REMARK    4  A    between atoms: C_4  and  O_8
REMARK    5  A    between atoms: C_10  and  C_11
REMARK    6  A    between atoms: C_11  and  C_13
REMARK    7  A    between atoms: C_13  and  C_14
REMARK    8  A    between atoms: C_14  and  C_15
REMARK    9  A    between atoms: C_15  and  C_16
REMARK   10  A    between atoms: C_16  and  C_17
REMARK   11  A    between atoms: C_17  and  C_18
REMARK   12  A    between atoms: C_18  and  C_19
REMARK   13  A    between atoms: C_21  and  C_22
REMARK   14  A    between atoms: C_23  and  C_24
REMARK   15  A    between atoms: C_24  and  C_25
REMARK   16  A    between atoms: C_25  and  C_26
REMARK   17  A    between atoms: C_26  and  C_28
REMARK   18  A    between atoms: C_28  and  O_29
REMARK                            x       y       z     vdW  Elec       q    Type
REMARK                         _______ _______ _______ _____ _____    ______ ____
ROOT
ATOM      1  C   UNL     1      32.812 -23.346 -15.770  0.00  0.00    +0.030 C 
ATOM      2  C   UNL     1      33.493 -24.155 -14.656  0.00  0.00    +0.034 C 
ATOM      3  C   UNL     1      31.386 -23.914 -15.792  0.00  0.00    +0.113 C 
ATOM      4  C   UNL     1      32.398 -24.211 -13.584  0.00  0.00    +0.113 C 
ATOM      5  C   UNL     1      31.111 -24.449 -14.379  0.00  0.00    +0.058 C 
ENDROOT
BRANCH   3   6
ATOM      6  O   UNL     1      30.466 -22.890 -16.139  0.00  0.00    -0.384 OA
ATOM      7  H   UNL     1      30.579 -22.136 -15.540  0.00  0.00    +0.210 HD
ENDBRANCH   3   6
BRANCH   4   8
ATOM      8  O   UNL     1      32.270 -22.974 -12.892  0.00  0.00    -0.384 OA
ATOM      9  H   UNL     1      33.063 -22.823 -12.353  0.00  0.00    +0.210 HD
ENDBRANCH   4   8
BRANCH   1  10
ATOM     10  C   UNL     1      33.503 -23.463 -17.123  0.00  0.00    +0.010 C 
BRANCH  10  11
ATOM     11  C   UNL     1      32.924 -22.476 -18.133  0.00  0.00    +0.065 C 
BRANCH  11  13
ATOM     12  O   UNL     1      35.038 -22.591 -19.299  0.00  0.00    -0.296 OA
ATOM     13  C   UNL     1      33.948 -22.037 -19.168  0.00  0.00    +0.151 C 
BRANCH  13  14
ATOM     14  C   UNL     1      33.575 -20.847 -20.029  0.00  0.00    +0.065 C 
BRANCH  14  15
ATOM     15  C   UNL     1      34.819 -20.206 -20.632  0.00  0.00    +0.008 C 
BRANCH  15  16
ATOM     16  C   UNL     1      34.461 -19.290 -21.803  0.00  0.00    +0.000 C 
BRANCH  16  17
ATOM     17  C   UNL     1      34.606 -17.816 -21.422  0.00  0.00    +0.000 C 
BRANCH  17  18
ATOM     18  C   UNL     1      34.985 -16.963 -22.633  0.00  0.00    +0.000 C 
BRANCH  18  19
ATOM     19  C   UNL     1      35.244 -17.830 -23.865  0.00  0.00    +0.000 C 
ATOM     20  C   UNL     1      34.638 -17.215 -25.116  0.00  0.00    +0.000 C 
ENDBRANCH  18  19
ENDBRANCH  17  18
ENDBRANCH  16  17
ENDBRANCH  15  16
ENDBRANCH  14  15
ENDBRANCH  13  14
ENDBRANCH  11  13
ENDBRANCH  10  11
ENDBRANCH   1  10
BRANCH   2  21
ATOM     21  C   UNL     1      34.806 -23.547 -14.183  0.00  0.00    +0.028 C 
BRANCH  21  22
ATOM     22  C   UNL     1      36.008 -23.755 -15.064  0.00  0.00    -0.031 C 
ATOM     23  C   UNL     1      36.814 -24.828 -15.093  0.00  0.00    -0.031 C 
BRANCH  23  24
ATOM     24  C   UNL     1      36.629 -26.032 -14.214  0.00  0.00    +0.026 C 
BRANCH  24  25
ATOM     25  C   UNL     1      37.290 -25.896 -12.836  0.00  0.00    +0.016 C 
BRANCH  25  26
ATOM     26  C   UNL     1      38.231 -24.692 -12.715  0.00  0.00    +0.110 C 
BRANCH  26  28
ATOM     27  O   UNL     1      37.014 -23.886 -10.767  0.00  0.00    -0.250 OA
ATOM     28  C   UNL     1      37.789 -23.673 -11.688  0.00  0.00    +0.314 C 
BRANCH  28  29
ATOM     29  O   UNL     1      38.328 -22.450 -11.931  0.00  0.00    -0.480 OA
ATOM     30  H   UNL     1      38.958 -22.090 -11.339  0.00  0.00    +0.295 HD
ENDBRANCH  28  29
ENDBRANCH  26  28
ENDBRANCH  25  26
ENDBRANCH  24  25
ENDBRANCH  23  24
ENDBRANCH  21  22
ENDBRANCH   2  21
TORSDOF 18
ENDMDL
MODEL 9
REMARK VINA RESULT:      -8.1      7.145     12.113
REMARK  Name = 5311236
REMARK  18 active torsions:
REMARK  status: ('A' for Active; 'I' for Inactive)
REMARK    1  A    between atoms: C_1  and  C_10
REMARK    2  A    between atoms: C_2  and  C_21
REMARK    3  A    between atoms: C_3  and  O_6
REMARK    4  A    between atoms: C_4  and  O_8
REMARK    5  A    between atoms: C_10  and  C_11
REMARK    6  A    between atoms: C_11  and  C_13
REMARK    7  A    between atoms: C_13  and  C_14
REMARK    8  A    between atoms: C_14  and  C_15
REMARK    9  A    between atoms: C_15  and  C_16
REMARK   10  A    between atoms: C_16  and  C_17
REMARK   11  A    between atoms: C_17  and  C_18
REMARK   12  A    between atoms: C_18  and  C_19
REMARK   13  A    between atoms: C_21  and  C_22
REMARK   14  A    between atoms: C_23  and  C_24
REMARK   15  A    between atoms: C_24  and  C_25
REMARK   16  A    between atoms: C_25  and  C_26
REMARK   17  A    between atoms: C_26  and  C_28
REMARK   18  A    between atoms: C_28  and  O_29
REMARK                            x       y       z     vdW  Elec       q    Type
REMARK                         _______ _______ _______ _____ _____    ______ ____
ROOT
ATOM      1  C   UNL     1      33.377 -14.396 -22.956  0.00  0.00    +0.030 C 
ATOM      2  C   UNL     1      33.596 -12.877 -22.926  0.00  0.00    +0.034 C 
ATOM      3  C   UNL     1      33.112 -14.739 -21.483  0.00  0.00    +0.113 C 
ATOM      4  C   UNL     1      32.508 -12.414 -21.948  0.00  0.00    +0.113 C 
ATOM      5  C   UNL     1      32.531 -13.471 -20.841  0.00  0.00    +0.058 C 
ENDROOT
BRANCH   3   6
ATOM      6  O   UNL     1      32.196 -15.821 -21.399  0.00  0.00    -0.384 OA
ATOM      7  H   UNL     1      31.289 -15.478 -21.379  0.00  0.00    +0.210 HD
ENDBRANCH   3   6
BRANCH   4   8
ATOM      8  O   UNL     1      31.217 -12.426 -22.548  0.00  0.00    -0.384 OA
ATOM      9  H   UNL     1      30.783 -13.274 -22.363  0.00  0.00    +0.210 HD
ENDBRANCH   4   8
BRANCH   1  10
ATOM     10  C   UNL     1      34.555 -15.175 -23.528  0.00  0.00    +0.010 C 
BRANCH  10  11
ATOM     11  C   UNL     1      34.121 -16.085 -24.673  0.00  0.00    +0.065 C 
BRANCH  11  13
ATOM     12  O   UNL     1      34.505 -18.366 -25.373  0.00  0.00    -0.296 OA
ATOM     13  C   UNL     1      34.593 -17.518 -24.486  0.00  0.00    +0.151 C 
BRANCH  13  14
ATOM     14  C   UNL     1      35.158 -17.875 -23.127  0.00  0.00    +0.065 C 
BRANCH  14  15
ATOM     15  C   UNL     1      34.598 -19.207 -22.640  0.00  0.00    +0.008 C 
BRANCH  15  16
ATOM     16  C   UNL     1      34.398 -19.206 -21.124  0.00  0.00    +0.000 C 
BRANCH  16  17
ATOM     17  C   UNL     1      34.863 -20.523 -20.501  0.00  0.00    +0.000 C 
BRANCH  17  18
ATOM     18  C   UNL     1      33.729 -21.205 -19.733  0.00  0.00    +0.000 C 
BRANCH  18  19
ATOM     19  C   UNL     1      34.262 -22.305 -18.816  0.00  0.00    +0.000 C 
ATOM     20  C   UNL     1      33.177 -22.831 -17.889  0.00  0.00    +0.000 C 
ENDBRANCH  18  19
ENDBRANCH  17  18
ENDBRANCH  16  17
ENDBRANCH  15  16
ENDBRANCH  14  15
ENDBRANCH  13  14
ENDBRANCH  11  13
ENDBRANCH  10  11
ENDBRANCH   1  10
BRANCH   2  21
ATOM     21  C   UNL     1      33.521 -12.229 -24.302  0.00  0.00    +0.028 C 
BRANCH  21  22
ATOM     22  C   UNL     1      34.474 -11.097 -24.572  0.00  0.00    -0.031 C 
ATOM     23  C   UNL     1      34.269  -9.791 -24.335  0.00  0.00    -0.031 C 
BRANCH  23  24
ATOM     24  C   UNL     1      33.005  -9.243 -23.740  0.00  0.00    +0.026 C 
BRANCH  24  25
ATOM     25  C   UNL     1      33.203  -8.596 -22.362  0.00  0.00    +0.016 C 
BRANCH  25  26
ATOM     26  C   UNL     1      32.000  -8.748 -21.425  0.00  0.00    +0.110 C 
BRANCH  26  28
ATOM     27  O   UNL     1      32.257  -9.722 -19.209  0.00  0.00    -0.250 OA
ATOM     28  C   UNL     1      32.367  -8.762 -19.958  0.00  0.00    +0.314 C 
BRANCH  28  29
ATOM     29  O   UNL     1      32.805  -7.546 -19.538  0.00  0.00    -0.480 OA
ATOM     30  H   UNL     1      33.470  -7.096 -20.022  0.00  0.00    +0.295 HD
ENDBRANCH  28  29
ENDBRANCH  26  28
ENDBRANCH  25  26
ENDBRANCH  24  25
ENDBRANCH  23  24
ENDBRANCH  21  22
ENDBRANCH   2  21
TORSDOF 18
ENDMDL
