MODEL 1
REMARK VINA RESULT:     -10.1      0.000      0.000
REMARK  Name = 11988953
REMARK  11 active torsions:
REMARK  status: ('A' for Active; 'I' for Inactive)
REMARK    1  A    between atoms: C_1  and  C_11
REMARK    2  A    between atoms: C_3  and  O_23
REMARK    3  A    between atoms: C_4  and  C_25
REMARK    4  A    between atoms: C_9  and  O_14
REMARK    5  A    between atoms: C_10  and  O_16
REMARK    6  A    between atoms: C_12  and  O_18
REMARK    7  A    between atoms: C_13  and  C_20
REMARK    8  A    between atoms: C_20  and  O_21
REMARK    9  A    between atoms: C_25  and  C_26
REMARK   10  A    between atoms: C_31  and  O_32
REMARK   11  A    between atoms: O_32  and  C_33
REMARK                            x       y       z     vdW  Elec       q    Type
REMARK                         _______ _______ _______ _____ _____    ______ ____
ROOT
ATOM      1  C   UNL     1      33.561 -14.891 -23.744  0.00  0.00    +0.024 C 
ATOM      2  C   UNL     1      34.273 -15.511 -22.719  0.00  0.00    -0.005 C 
ATOM      3  C   UNL     1      33.423 -15.517 -24.981  0.00  0.00    +0.135 C 
ATOM      4  C   UNL     1      34.848 -16.763 -22.933  0.00  0.00    -0.022 C 
ATOM      5  C   UNL     1      34.713 -17.392 -24.170  0.00  0.00    -0.022 C 
ATOM      6  C   UNL     1      34.000 -16.768 -25.195  0.00  0.00    +0.032 C 
ATOM      7  C   UNL     1      35.321 -18.732 -24.423  0.00  0.00    +0.031 C 
ENDROOT
BRANCH   1  11
ATOM      8  S   UNL     1      34.095 -12.214 -24.032  0.00  0.00    -0.130 S 
ATOM      9  C   UNL     1      32.502 -13.316 -22.034  0.00  0.00    +0.154 C 
ATOM     10  C   UNL     1      31.823 -11.965 -21.775  0.00  0.00    +0.166 C 
ATOM     11  C   UNL     1      32.940 -13.525 -23.495  0.00  0.00    +0.102 C 
ATOM     12  C   UNL     1      32.656 -10.745 -22.184  0.00  0.00    +0.152 C 
ATOM     13  C   UNL     1      33.068 -10.755 -23.661  0.00  0.00    +0.107 C 
BRANCH   9  14
ATOM     14  O   UNL     1      31.558 -14.342 -21.693  0.00  0.00    -0.381 OA
ATOM     15  H   UNL     1      31.511 -14.431 -20.727  0.00  0.00    +0.210 HD
ENDBRANCH   9  14
BRANCH  10  16
ATOM     16  O   UNL     1      31.576 -11.882 -20.365  0.00  0.00    -0.380 OA
ATOM     17  H   UNL     1      30.958 -11.156 -20.186  0.00  0.00    +0.211 HD
ENDBRANCH  10  16
BRANCH  12  18
ATOM     18  O   UNL     1      31.838  -9.595 -21.937  0.00  0.00    -0.381 OA
ATOM     19  H   UNL     1      31.447  -9.660 -21.051  0.00  0.00    +0.210 HD
ENDBRANCH  12  18
BRANCH  13  20
ATOM     20  C   UNL     1      33.861  -9.509 -24.056  0.00  0.00    +0.150 C 
BRANCH  20  21
ATOM     21  O   UNL     1      35.237  -9.836 -24.058  0.00  0.00    -0.381 OA
ATOM     22  H   UNL     1      35.419 -10.476 -23.352  0.00  0.00    +0.210 HD
ENDBRANCH  20  21
ENDBRANCH  13  20
ENDBRANCH   1  11
BRANCH   3  23
ATOM     23  O   UNL     1      32.730 -14.921 -25.992  0.00  0.00    -0.472 OA
ATOM     24  C   UNL     1      33.494 -14.248 -26.992  0.00  0.00    +0.252 C 
ENDBRANCH   3  23
BRANCH   4  25
ATOM     25  C   UNL     1      35.608 -17.411 -21.822  0.00  0.00    +0.052 C 
BRANCH  25  26
ATOM     26  C   UNL     1      34.908 -18.612 -21.220  0.00  0.00    -0.018 C 
ATOM     27  C   UNL     1      35.666 -19.673 -20.759  0.00  0.00    -0.001 C 
ATOM     28  C   UNL     1      33.526 -18.619 -21.146  0.00  0.00    -0.001 C 
ATOM     29  C   UNL     1      35.020 -20.779 -20.205  0.00  0.00    +0.037 C 
ATOM     30  C   UNL     1      32.881 -19.724 -20.592  0.00  0.00    +0.037 C 
ATOM     31  C   UNL     1      33.628 -20.804 -20.122  0.00  0.00    +0.139 C 
BRANCH  31  32
ATOM     32  O   UNL     1      32.999 -21.883 -19.581  0.00  0.00    -0.475 OA
BRANCH  32  33
ATOM     33  C   UNL     1      33.775 -22.730 -18.735  0.00  0.00    +0.206 C 
ATOM     34  C   UNL     1      32.980 -23.042 -17.485  0.00  0.00    +0.051 C 
ENDBRANCH  32  33
ENDBRANCH  31  32
ENDBRANCH  25  26
ENDBRANCH   4  25
TORSDOF 11
ENDMDL
MODEL 2
REMARK VINA RESULT:      -9.9      1.229      2.397
REMARK  Name = 11988953
REMARK  11 active torsions:
REMARK  status: ('A' for Active; 'I' for Inactive)
REMARK    1  A    between atoms: C_1  and  C_11
REMARK    2  A    between atoms: C_3  and  O_23
REMARK    3  A    between atoms: C_4  and  C_25
REMARK    4  A    between atoms: C_9  and  O_14
REMARK    5  A    between atoms: C_10  and  O_16
REMARK    6  A    between atoms: C_12  and  O_18
REMARK    7  A    between atoms: C_13  and  C_20
REMARK    8  A    between atoms: C_20  and  O_21
REMARK    9  A    between atoms: C_25  and  C_26
REMARK   10  A    between atoms: C_31  and  O_32
REMARK   11  A    between atoms: O_32  and  C_33
REMARK                            x       y       z     vdW  Elec       q    Type
REMARK                         _______ _______ _______ _____ _____    ______ ____
ROOT
ATOM      1  C   UNL     1      33.934 -14.577 -23.228  0.00  0.00    +0.024 C 
ATOM      2  C   UNL     1      34.706 -15.432 -22.443  0.00  0.00    -0.005 C 
ATOM      3  C   UNL     1      33.484 -14.989 -24.480  0.00  0.00    +0.135 C 
ATOM      4  C   UNL     1      35.027 -16.704 -22.912  0.00  0.00    -0.022 C 
ATOM      5  C   UNL     1      34.579 -17.120 -24.165  0.00  0.00    -0.022 C 
ATOM      6  C   UNL     1      33.806 -16.262 -24.949  0.00  0.00    +0.032 C 
ATOM      7  C   UNL     1      34.910 -18.479 -24.689  0.00  0.00    +0.031 C 
ENDROOT
BRANCH   1  11
ATOM      8  S   UNL     1      32.101 -13.279 -21.650  0.00  0.00    -0.130 S 
ATOM      9  C   UNL     1      33.430 -12.142 -23.815  0.00  0.00    +0.154 C 
ATOM     10  C   UNL     1      33.142 -10.727 -23.300  0.00  0.00    +0.166 C 
ATOM     11  C   UNL     1      33.594 -13.191 -22.701  0.00  0.00    +0.102 C 
ATOM     12  C   UNL     1      31.917 -10.619 -22.384  0.00  0.00    +0.152 C 
ATOM     13  C   UNL     1      31.995 -11.529 -21.152  0.00  0.00    +0.107 C 
BRANCH   9  14
ATOM     14  O   UNL     1      34.652 -12.084 -24.566  0.00  0.00    -0.381 OA
ATOM     15  H   UNL     1      35.372 -12.475 -24.045  0.00  0.00    +0.210 HD
ENDBRANCH   9  14
BRANCH  10  16
ATOM     16  O   UNL     1      32.911  -9.900 -24.449  0.00  0.00    -0.380 OA
ATOM     17  H   UNL     1      32.166  -9.304 -24.275  0.00  0.00    +0.211 HD
ENDBRANCH  10  16
BRANCH  12  18
ATOM     18  O   UNL     1      31.853  -9.255 -21.951  0.00  0.00    -0.381 OA
ATOM     19  H   UNL     1      31.338  -8.737 -22.590  0.00  0.00    +0.210 HD
ENDBRANCH  12  18
BRANCH  13  20
ATOM     20  C   UNL     1      30.784 -11.375 -20.232  0.00  0.00    +0.150 C 
BRANCH  20  21
ATOM     21  O   UNL     1      31.046 -10.326 -19.320  0.00  0.00    -0.381 OA
ATOM     22  H   UNL     1      31.462  -9.585 -19.789  0.00  0.00    +0.210 HD
ENDBRANCH  20  21
ENDBRANCH  13  20
ENDBRANCH   1  11
BRANCH   3  23
ATOM     23  O   UNL     1      32.730 -14.164 -25.258  0.00  0.00    -0.472 OA
ATOM     24  C   UNL     1      32.822 -14.341 -26.670  0.00  0.00    +0.252 C 
ENDBRANCH   3  23
BRANCH   4  25
ATOM     25  C   UNL     1      35.856 -17.605 -22.056  0.00  0.00    +0.052 C 
BRANCH  25  26
ATOM     26  C   UNL     1      35.060 -18.688 -21.357  0.00  0.00    -0.018 C 
ATOM     27  C   UNL     1      33.683 -18.575 -21.288  0.00  0.00    -0.001 C 
ATOM     28  C   UNL     1      35.729 -19.766 -20.805  0.00  0.00    -0.001 C 
ATOM     29  C   UNL     1      32.951 -19.573 -20.643  0.00  0.00    +0.037 C 
ATOM     30  C   UNL     1      34.997 -20.764 -20.162  0.00  0.00    +0.037 C 
ATOM     31  C   UNL     1      33.608 -20.667 -20.081  0.00  0.00    +0.139 C 
BRANCH  31  32
ATOM     32  O   UNL     1      32.892 -21.640 -19.453  0.00  0.00    -0.475 OA
BRANCH  32  33
ATOM     33  C   UNL     1      33.630 -22.631 -18.741  0.00  0.00    +0.206 C 
ATOM     34  C   UNL     1      32.856 -23.027 -17.502  0.00  0.00    +0.051 C 
ENDBRANCH  32  33
ENDBRANCH  31  32
ENDBRANCH  25  26
ENDBRANCH   4  25
TORSDOF 11
ENDMDL
MODEL 3
REMARK VINA RESULT:      -9.1      5.877     12.564
REMARK  Name = 11988953
REMARK  11 active torsions:
REMARK  status: ('A' for Active; 'I' for Inactive)
REMARK    1  A    between atoms: C_1  and  C_11
REMARK    2  A    between atoms: C_3  and  O_23
REMARK    3  A    between atoms: C_4  and  C_25
REMARK    4  A    between atoms: C_9  and  O_14
REMARK    5  A    between atoms: C_10  and  O_16
REMARK    6  A    between atoms: C_12  and  O_18
REMARK    7  A    between atoms: C_13  and  C_20
REMARK    8  A    between atoms: C_20  and  O_21
REMARK    9  A    between atoms: C_25  and  C_26
REMARK   10  A    between atoms: C_31  and  O_32
REMARK   11  A    between atoms: O_32  and  C_33
REMARK                            x       y       z     vdW  Elec       q    Type
REMARK                         _______ _______ _______ _____ _____    ______ ____
ROOT
ATOM      1  C   UNL     1      34.256 -24.040 -15.142  0.00  0.00    +0.024 C 
ATOM      2  C   UNL     1      34.354 -23.977 -16.531  0.00  0.00    -0.005 C 
ATOM      3  C   UNL     1      33.112 -23.574 -14.498  0.00  0.00    +0.135 C 
ATOM      4  C   UNL     1      33.303 -23.448 -17.278  0.00  0.00    -0.022 C 
ATOM      5  C   UNL     1      32.157 -22.980 -16.636  0.00  0.00    -0.022 C 
ATOM      6  C   UNL     1      32.062 -23.043 -15.245  0.00  0.00    +0.032 C 
ATOM      7  C   UNL     1      31.018 -22.407 -17.415  0.00  0.00    +0.031 C 
ENDROOT
BRANCH   1  11
ATOM      8  S   UNL     1      36.361 -23.269 -13.558  0.00  0.00    -0.130 S 
ATOM      9  C   UNL     1      36.330 -25.532 -15.177  0.00  0.00    +0.154 C 
ATOM     10  C   UNL     1      37.469 -26.171 -14.374  0.00  0.00    +0.166 C 
ATOM     11  C   UNL     1      35.413 -24.620 -14.343  0.00  0.00    +0.102 C 
ATOM     12  C   UNL     1      38.366 -25.171 -13.634  0.00  0.00    +0.152 C 
ATOM     13  C   UNL     1      37.598 -24.265 -12.665  0.00  0.00    +0.107 C 
BRANCH   9  14
ATOM     14  O   UNL     1      35.537 -26.599 -15.718  0.00  0.00    -0.381 OA
ATOM     15  H   UNL     1      35.510 -27.336 -15.087  0.00  0.00    +0.210 HD
ENDBRANCH   9  14
BRANCH  10  16
ATOM     16  O   UNL     1      38.285 -26.895 -15.305  0.00  0.00    -0.380 OA
ATOM     17  H   UNL     1      38.689 -26.275 -15.933  0.00  0.00    +0.211 HD
ENDBRANCH  10  16
BRANCH  12  18
ATOM     18  O   UNL     1      39.314 -25.949 -12.893  0.00  0.00    -0.381 OA
ATOM     19  H   UNL     1      40.115 -26.075 -13.425  0.00  0.00    +0.210 HD
ENDBRANCH  12  18
BRANCH  13  20
ATOM     20  C   UNL     1      38.517 -23.306 -11.907  0.00  0.00    +0.150 C 
BRANCH  20  21
ATOM     21  O   UNL     1      37.859 -22.060 -11.784  0.00  0.00    -0.381 OA
ATOM     22  H   UNL     1      38.330 -21.392 -12.306  0.00  0.00    +0.210 HD
ENDBRANCH  20  21
ENDBRANCH  13  20
ENDBRANCH   1  11
BRANCH   3  23
ATOM     23  O   UNL     1      33.004 -23.628 -13.141  0.00  0.00    -0.472 OA
ATOM     24  C   UNL     1      31.729 -23.318 -12.580  0.00  0.00    +0.252 C 
ENDBRANCH   3  23
BRANCH   4  25
ATOM     25  C   UNL     1      33.428 -23.389 -18.765  0.00  0.00    +0.052 C 
BRANCH  25  26
ATOM     26  C   UNL     1      34.146 -22.154 -19.271  0.00  0.00    -0.018 C 
ATOM     27  C   UNL     1      35.512 -22.044 -19.083  0.00  0.00    -0.001 C 
ATOM     28  C   UNL     1      33.419 -21.165 -19.909  0.00  0.00    -0.001 C 
ATOM     29  C   UNL     1      36.173 -20.907 -19.548  0.00  0.00    +0.037 C 
ATOM     30  C   UNL     1      34.080 -20.029 -20.375  0.00  0.00    +0.037 C 
ATOM     31  C   UNL     1      35.457 -19.900 -20.194  0.00  0.00    +0.139 C 
BRANCH  31  32
ATOM     32  O   UNL     1      36.103 -18.791 -20.649  0.00  0.00    -0.475 OA
BRANCH  32  33
ATOM     33  C   UNL     1      35.386 -17.944 -21.546  0.00  0.00    +0.206 C 
ATOM     34  C   UNL     1      35.753 -18.310 -22.968  0.00  0.00    +0.051 C 
ENDBRANCH  32  33
ENDBRANCH  31  32
ENDBRANCH  25  26
ENDBRANCH   4  25
TORSDOF 11
ENDMDL
MODEL 4
REMARK VINA RESULT:      -8.9      4.628     11.412
REMARK  Name = 11988953
REMARK  11 active torsions:
REMARK  status: ('A' for Active; 'I' for Inactive)
REMARK    1  A    between atoms: C_1  and  C_11
REMARK    2  A    between atoms: C_3  and  O_23
REMARK    3  A    between atoms: C_4  and  C_25
REMARK    4  A    between atoms: C_9  and  O_14
REMARK    5  A    between atoms: C_10  and  O_16
REMARK    6  A    between atoms: C_12  and  O_18
REMARK    7  A    between atoms: C_13  and  C_20
REMARK    8  A    between atoms: C_20  and  O_21
REMARK    9  A    between atoms: C_25  and  C_26
REMARK   10  A    between atoms: C_31  and  O_32
REMARK   11  A    between atoms: O_32  and  C_33
REMARK                            x       y       z     vdW  Elec       q    Type
REMARK                         _______ _______ _______ _____ _____    ______ ____
ROOT
ATOM      1  C   UNL     1      33.469 -23.341 -16.476  0.00  0.00    +0.024 C 
ATOM      2  C   UNL     1      33.769 -23.119 -17.819  0.00  0.00    -0.005 C 
ATOM      3  C   UNL     1      34.374 -22.970 -15.484  0.00  0.00    +0.135 C 
ATOM      4  C   UNL     1      34.978 -22.522 -18.170  0.00  0.00    -0.022 C 
ATOM      5  C   UNL     1      35.887 -22.150 -17.179  0.00  0.00    -0.022 C 
ATOM      6  C   UNL     1      35.584 -22.374 -15.836  0.00  0.00    +0.032 C 
ATOM      7  C   UNL     1      37.189 -21.509 -17.531  0.00  0.00    +0.031 C 
ENDROOT
BRANCH   1  11
ATOM      8  S   UNL     1      30.765 -22.864 -16.512  0.00  0.00    -0.130 S 
ATOM      9  C   UNL     1      32.080 -24.453 -14.643  0.00  0.00    +0.154 C 
ATOM     10  C   UNL     1      30.774 -25.165 -14.270  0.00  0.00    +0.166 C 
ATOM     11  C   UNL     1      32.145 -23.995 -16.111  0.00  0.00    +0.102 C 
ATOM     12  C   UNL     1      29.503 -24.356 -14.555  0.00  0.00    +0.152 C 
ATOM     13  C   UNL     1      29.369 -23.928 -16.021  0.00  0.00    +0.107 C 
BRANCH   9  14
ATOM     14  O   UNL     1      33.153 -25.378 -14.409  0.00  0.00    -0.381 OA
ATOM     15  H   UNL     1      33.958 -25.057 -14.847  0.00  0.00    +0.210 HD
ENDBRANCH   9  14
BRANCH  10  16
ATOM     16  O   UNL     1      30.825 -25.430 -12.861  0.00  0.00    -0.380 OA
ATOM     17  H   UNL     1      30.061 -25.968 -12.604  0.00  0.00    +0.211 HD
ENDBRANCH  10  16
BRANCH  12  18
ATOM     18  O   UNL     1      28.398 -25.202 -14.214  0.00  0.00    -0.381 OA
ATOM     19  H   UNL     1      27.929 -24.830 -13.452  0.00  0.00    +0.210 HD
ENDBRANCH  12  18
BRANCH  13  20
ATOM     20  C   UNL     1      28.075 -23.159 -16.291  0.00  0.00    +0.150 C 
BRANCH  20  21
ATOM     21  O   UNL     1      27.585 -23.540 -17.562  0.00  0.00    -0.381 OA
ATOM     22  H   UNL     1      27.407 -24.494 -17.567  0.00  0.00    +0.210 HD
ENDBRANCH  20  21
ENDBRANCH  13  20
ENDBRANCH   1  11
BRANCH   3  23
ATOM     23  O   UNL     1      34.093 -23.183 -14.168  0.00  0.00    -0.472 OA
ATOM     24  C   UNL     1      35.195 -23.478 -13.310  0.00  0.00    +0.252 C 
ENDBRANCH   3  23
BRANCH   4  25
ATOM     25  C   UNL     1      35.281 -22.292 -19.614  0.00  0.00    +0.052 C 
BRANCH  25  26
ATOM     26  C   UNL     1      34.841 -20.935 -20.124  0.00  0.00    -0.018 C 
ATOM     27  C   UNL     1      35.800 -20.025 -20.533  0.00  0.00    -0.001 C 
ATOM     28  C   UNL     1      33.490 -20.638 -20.169  0.00  0.00    -0.001 C 
ATOM     29  C   UNL     1      35.393 -18.775 -21.001  0.00  0.00    +0.037 C 
ATOM     30  C   UNL     1      33.085 -19.389 -20.639  0.00  0.00    +0.037 C 
ATOM     31  C   UNL     1      34.036 -18.457 -21.055  0.00  0.00    +0.139 C 
BRANCH  31  32
ATOM     32  O   UNL     1      33.642 -17.238 -21.513  0.00  0.00    -0.475 OA
BRANCH  32  33
ATOM     33  C   UNL     1      34.655 -16.249 -21.682  0.00  0.00    +0.206 C 
ATOM     34  C   UNL     1      34.483 -15.181 -20.624  0.00  0.00    +0.051 C 
ENDBRANCH  32  33
ENDBRANCH  31  32
ENDBRANCH  25  26
ENDBRANCH   4  25
TORSDOF 11
ENDMDL
MODEL 5
REMARK VINA RESULT:      -8.3      3.927      7.608
REMARK  Name = 11988953
REMARK  11 active torsions:
REMARK  status: ('A' for Active; 'I' for Inactive)
REMARK    1  A    between atoms: C_1  and  C_11
REMARK    2  A    between atoms: C_3  and  O_23
REMARK    3  A    between atoms: C_4  and  C_25
REMARK    4  A    between atoms: C_9  and  O_14
REMARK    5  A    between atoms: C_10  and  O_16
REMARK    6  A    between atoms: C_12  and  O_18
REMARK    7  A    between atoms: C_13  and  C_20
REMARK    8  A    between atoms: C_20  and  O_21
REMARK    9  A    between atoms: C_25  and  C_26
REMARK   10  A    between atoms: C_31  and  O_32
REMARK   11  A    between atoms: O_32  and  C_33
REMARK                            x       y       z     vdW  Elec       q    Type
REMARK                         _______ _______ _______ _____ _____    ______ ____
ROOT
ATOM      1  C   UNL     1      32.423  -8.321 -21.773  0.00  0.00    +0.024 C 
ATOM      2  C   UNL     1      31.955  -9.517 -22.316  0.00  0.00    -0.005 C 
ATOM      3  C   UNL     1      32.581  -8.191 -20.395  0.00  0.00    +0.135 C 
ATOM      4  C   UNL     1      31.645 -10.585 -21.477  0.00  0.00    -0.022 C 
ATOM      5  C   UNL     1      31.801 -10.457 -20.097  0.00  0.00    -0.022 C 
ATOM      6  C   UNL     1      32.270  -9.259 -19.556  0.00  0.00    +0.032 C 
ATOM      7  C   UNL     1      31.475 -11.589 -19.177  0.00  0.00    +0.031 C 
ENDROOT
BRANCH   1  11
ATOM      8  S   UNL     1      31.214  -6.448 -23.375  0.00  0.00    -0.130 S 
ATOM      9  C   UNL     1      33.726  -7.555 -23.833  0.00  0.00    +0.154 C 
ATOM     10  C   UNL     1      34.117  -6.389 -24.748  0.00  0.00    +0.166 C 
ATOM     11  C   UNL     1      32.756  -7.165 -22.704  0.00  0.00    +0.102 C 
ATOM     12  C   UNL     1      32.933  -5.659 -25.392  0.00  0.00    +0.152 C 
ATOM     13  C   UNL     1      31.933  -5.103 -24.372  0.00  0.00    +0.107 C 
BRANCH   9  14
ATOM     14  O   UNL     1      34.933  -8.058 -23.241  0.00  0.00    -0.381 OA
ATOM     15  H   UNL     1      35.315  -8.742 -23.814  0.00  0.00    +0.210 HD
ENDBRANCH   9  14
BRANCH  10  16
ATOM     16  O   UNL     1      34.929  -6.932 -25.799  0.00  0.00    -0.380 OA
ATOM     17  H   UNL     1      35.814  -6.536 -25.763  0.00  0.00    +0.211 HD
ENDBRANCH  10  16
BRANCH  12  18
ATOM     18  O   UNL     1      33.487  -4.571 -26.143  0.00  0.00    -0.381 OA
ATOM     19  H   UNL     1      33.755  -3.863 -25.537  0.00  0.00    +0.210 HD
ENDBRANCH  12  18
BRANCH  13  20
ATOM     20  C   UNL     1      30.782  -4.342 -25.034  0.00  0.00    +0.150 C 
BRANCH  20  21
ATOM     21  O   UNL     1      30.478  -3.212 -24.241  0.00  0.00    -0.381 OA
ATOM     22  H   UNL     1      31.286  -2.696 -24.089  0.00  0.00    +0.210 HD
ENDBRANCH  20  21
ENDBRANCH  13  20
ENDBRANCH   1  11
BRANCH   3  23
ATOM     23  O   UNL     1      33.037  -7.028 -19.852  0.00  0.00    -0.472 OA
ATOM     24  C   UNL     1      32.079  -5.991 -19.643  0.00  0.00    +0.252 C 
ENDBRANCH   3  23
BRANCH   4  25
ATOM     25  C   UNL     1      31.144 -11.858 -22.077  0.00  0.00    +0.052 C 
BRANCH  25  26
ATOM     26  C   UNL     1      32.239 -12.847 -22.418  0.00  0.00    -0.018 C 
ATOM     27  C   UNL     1      33.034 -12.618 -23.527  0.00  0.00    -0.001 C 
ATOM     28  C   UNL     1      32.419 -13.957 -21.612  0.00  0.00    -0.001 C 
ATOM     29  C   UNL     1      34.042 -13.530 -23.840  0.00  0.00    +0.037 C 
ATOM     30  C   UNL     1      33.428 -14.868 -21.925  0.00  0.00    +0.037 C 
ATOM     31  C   UNL     1      34.239 -14.654 -23.039  0.00  0.00    +0.139 C 
BRANCH  31  32
ATOM     32  O   UNL     1      35.224 -15.543 -23.346  0.00  0.00    -0.475 OA
BRANCH  32  33
ATOM     33  C   UNL     1      34.826 -16.884 -23.620  0.00  0.00    +0.206 C 
ATOM     34  C   UNL     1      34.598 -17.037 -25.108  0.00  0.00    +0.051 C 
ENDBRANCH  32  33
ENDBRANCH  31  32
ENDBRANCH  25  26
ENDBRANCH   4  25
TORSDOF 11
ENDMDL
MODEL 6
REMARK VINA RESULT:      -8.1      5.815     12.640
REMARK  Name = 11988953
REMARK  11 active torsions:
REMARK  status: ('A' for Active; 'I' for Inactive)
REMARK    1  A    between atoms: C_1  and  C_11
REMARK    2  A    between atoms: C_3  and  O_23
REMARK    3  A    between atoms: C_4  and  C_25
REMARK    4  A    between atoms: C_9  and  O_14
REMARK    5  A    between atoms: C_10  and  O_16
REMARK    6  A    between atoms: C_12  and  O_18
REMARK    7  A    between atoms: C_13  and  C_20
REMARK    8  A    between atoms: C_20  and  O_21
REMARK    9  A    between atoms: C_25  and  C_26
REMARK   10  A    between atoms: C_31  and  O_32
REMARK   11  A    between atoms: O_32  and  C_33
REMARK                            x       y       z     vdW  Elec       q    Type
REMARK                         _______ _______ _______ _____ _____    ______ ____
ROOT
ATOM      1  C   UNL     1      34.411 -23.589 -14.997  0.00  0.00    +0.024 C 
ATOM      2  C   UNL     1      34.375 -23.580 -16.390  0.00  0.00    -0.005 C 
ATOM      3  C   UNL     1      33.263 -23.295 -14.263  0.00  0.00    +0.135 C 
ATOM      4  C   UNL     1      33.186 -23.277 -17.052  0.00  0.00    -0.022 C 
ATOM      5  C   UNL     1      32.035 -22.982 -16.320  0.00  0.00    -0.022 C 
ATOM      6  C   UNL     1      32.075 -22.991 -14.925  0.00  0.00    +0.032 C 
ATOM      7  C   UNL     1      30.750 -22.654 -17.007  0.00  0.00    +0.031 C 
ENDROOT
BRANCH   1  11
ATOM      8  S   UNL     1      37.084 -23.955 -15.505  0.00  0.00    -0.130 S 
ATOM      9  C   UNL     1      35.655 -25.231 -13.486  0.00  0.00    +0.154 C 
ATOM     10  C   UNL     1      36.945 -25.554 -12.722  0.00  0.00    +0.166 C 
ATOM     11  C   UNL     1      35.716 -23.921 -14.291  0.00  0.00    +0.102 C 
ATOM     12  C   UNL     1      38.204 -25.610 -13.594  0.00  0.00    +0.152 C 
ATOM     13  C   UNL     1      38.465 -24.315 -14.372  0.00  0.00    +0.107 C 
BRANCH   9  14
ATOM     14  O   UNL     1      34.601 -25.119 -12.518  0.00  0.00    -0.381 OA
ATOM     15  H   UNL     1      34.937 -25.369 -11.642  0.00  0.00    +0.210 HD
ENDBRANCH   9  14
BRANCH  10  16
ATOM     16  O   UNL     1      36.765 -26.842 -12.118  0.00  0.00    -0.380 OA
ATOM     17  H   UNL     1      36.010 -27.291 -12.531  0.00  0.00    +0.211 HD
ENDBRANCH  10  16
BRANCH  12  18
ATOM     18  O   UNL     1      39.302 -25.848 -12.704  0.00  0.00    -0.381 OA
ATOM     19  H   UNL     1      38.967 -25.973 -11.803  0.00  0.00    +0.210 HD
ENDBRANCH  12  18
BRANCH  13  20
ATOM     20  C   UNL     1      39.748 -24.378 -15.201  0.00  0.00    +0.150 C 
BRANCH  20  21
ATOM     21  O   UNL     1      39.933 -25.710 -15.639  0.00  0.00    -0.381 OA
ATOM     22  H   UNL     1      39.077 -26.166 -15.658  0.00  0.00    +0.210 HD
ENDBRANCH  20  21
ENDBRANCH  13  20
ENDBRANCH   1  11
BRANCH   3  23
ATOM     23  O   UNL     1      33.285 -23.300 -12.901  0.00  0.00    -0.472 OA
ATOM     24  C   UNL     1      32.073 -22.952 -12.233  0.00  0.00    +0.252 C 
ENDBRANCH   3  23
BRANCH   4  25
ATOM     25  C   UNL     1      33.168 -23.271 -18.545  0.00  0.00    +0.052 C 
BRANCH  25  26
ATOM     26  C   UNL     1      33.946 -22.128 -19.163  0.00  0.00    -0.018 C 
ATOM     27  C   UNL     1      33.261 -21.132 -19.836  0.00  0.00    -0.001 C 
ATOM     28  C   UNL     1      35.324 -22.106 -19.039  0.00  0.00    -0.001 C 
ATOM     29  C   UNL     1      33.979 -20.079 -20.405  0.00  0.00    +0.037 C 
ATOM     30  C   UNL     1      36.041 -21.053 -19.607  0.00  0.00    +0.037 C 
ATOM     31  C   UNL     1      35.369 -20.040 -20.290  0.00  0.00    +0.139 C 
BRANCH  31  32
ATOM     32  O   UNL     1      36.067 -19.012 -20.845  0.00  0.00    -0.475 OA
BRANCH  32  33
ATOM     33  C   UNL     1      35.315 -18.004 -21.518  0.00  0.00    +0.206 C 
ATOM     34  C   UNL     1      35.562 -18.115 -23.006  0.00  0.00    +0.051 C 
ENDBRANCH  32  33
ENDBRANCH  31  32
ENDBRANCH  25  26
ENDBRANCH   4  25
TORSDOF 11
ENDMDL
MODEL 7
REMARK VINA RESULT:      -7.9      4.059      7.735
REMARK  Name = 11988953
REMARK  11 active torsions:
REMARK  status: ('A' for Active; 'I' for Inactive)
REMARK    1  A    between atoms: C_1  and  C_11
REMARK    2  A    between atoms: C_3  and  O_23
REMARK    3  A    between atoms: C_4  and  C_25
REMARK    4  A    between atoms: C_9  and  O_14
REMARK    5  A    between atoms: C_10  and  O_16
REMARK    6  A    between atoms: C_12  and  O_18
REMARK    7  A    between atoms: C_13  and  C_20
REMARK    8  A    between atoms: C_20  and  O_21
REMARK    9  A    between atoms: C_25  and  C_26
REMARK   10  A    between atoms: C_31  and  O_32
REMARK   11  A    between atoms: O_32  and  C_33
REMARK                            x       y       z     vdW  Elec       q    Type
REMARK                         _______ _______ _______ _____ _____    ______ ____
ROOT
ATOM      1  C   UNL     1      31.785  -8.162 -22.443  0.00  0.00    +0.024 C 
ATOM      2  C   UNL     1      31.376  -9.468 -22.704  0.00  0.00    -0.005 C 
ATOM      3  C   UNL     1      32.218  -7.803 -21.168  0.00  0.00    +0.135 C 
ATOM      4  C   UNL     1      31.401 -10.420 -21.686  0.00  0.00    -0.022 C 
ATOM      5  C   UNL     1      31.833 -10.064 -20.408  0.00  0.00    -0.022 C 
ATOM      6  C   UNL     1      32.242  -8.755 -20.150  0.00  0.00    +0.032 C 
ATOM      7  C   UNL     1      31.868 -11.066 -19.301  0.00  0.00    +0.031 C 
ENDROOT
BRANCH   1  11
ATOM      8  S   UNL     1      33.421  -6.950 -24.285  0.00  0.00    -0.130 S 
ATOM      9  C   UNL     1      31.179  -5.776 -23.127  0.00  0.00    +0.154 C 
ATOM     10  C   UNL     1      31.084  -4.746 -24.259  0.00  0.00    +0.166 C 
ATOM     11  C   UNL     1      31.751  -7.136 -23.565  0.00  0.00    +0.102 C 
ATOM     12  C   UNL     1      32.406  -4.475 -24.986  0.00  0.00    +0.152 C 
ATOM     13  C   UNL     1      33.039  -5.735 -25.588  0.00  0.00    +0.107 C 
BRANCH   9  14
ATOM     14  O   UNL     1      29.850  -5.984 -22.624  0.00  0.00    -0.381 OA
ATOM     15  H   UNL     1      29.507  -5.151 -22.262  0.00  0.00    +0.210 HD
ENDBRANCH   9  14
BRANCH  10  16
ATOM     16  O   UNL     1      30.640  -3.515 -23.672  0.00  0.00    -0.380 OA
ATOM     17  H   UNL     1      31.100  -2.771 -24.091  0.00  0.00    +0.211 HD
ENDBRANCH  10  16
BRANCH  12  18
ATOM     18  O   UNL     1      32.106  -3.554 -26.042  0.00  0.00    -0.381 OA
ATOM     19  H   UNL     1      32.845  -3.530 -26.670  0.00  0.00    +0.210 HD
ENDBRANCH  12  18
BRANCH  13  20
ATOM     20  C   UNL     1      34.334  -5.435 -26.345  0.00  0.00    +0.150 C 
BRANCH  20  21
ATOM     21  O   UNL     1      34.004  -4.783 -27.555  0.00  0.00    -0.381 OA
ATOM     22  H   UNL     1      33.149  -5.110 -27.877  0.00  0.00    +0.210 HD
ENDBRANCH  20  21
ENDBRANCH  13  20
ENDBRANCH   1  11
BRANCH   3  23
ATOM     23  O   UNL     1      32.619  -6.530 -20.899  0.00  0.00    -0.472 OA
ATOM     24  C   UNL     1      32.433  -6.059 -19.565  0.00  0.00    +0.252 C 
ENDBRANCH   3  23
BRANCH   4  25
ATOM     25  C   UNL     1      30.959 -11.814 -21.985  0.00  0.00    +0.052 C 
BRANCH  25  26
ATOM     26  C   UNL     1      32.094 -12.756 -22.330  0.00  0.00    -0.018 C 
ATOM     27  C   UNL     1      32.306 -13.873 -21.542  0.00  0.00    -0.001 C 
ATOM     28  C   UNL     1      32.892 -12.477 -23.426  0.00  0.00    -0.001 C 
ATOM     29  C   UNL     1      33.353 -14.740 -21.861  0.00  0.00    +0.037 C 
ATOM     30  C   UNL     1      33.936 -13.344 -23.744  0.00  0.00    +0.037 C 
ATOM     31  C   UNL     1      34.167 -14.475 -22.961  0.00  0.00    +0.139 C 
BRANCH  31  32
ATOM     32  O   UNL     1      35.187 -15.322 -23.271  0.00  0.00    -0.475 OA
BRANCH  32  33
ATOM     33  C   UNL     1      34.839 -16.670 -23.585  0.00  0.00    +0.206 C 
ATOM     34  C   UNL     1      34.757 -16.821 -25.088  0.00  0.00    +0.051 C 
ENDBRANCH  32  33
ENDBRANCH  31  32
ENDBRANCH  25  26
ENDBRANCH   4  25
TORSDOF 11
ENDMDL
MODEL 8
REMARK VINA RESULT:      -7.9      3.641     10.982
REMARK  Name = 11988953
REMARK  11 active torsions:
REMARK  status: ('A' for Active; 'I' for Inactive)
REMARK    1  A    between atoms: C_1  and  C_11
REMARK    2  A    between atoms: C_3  and  O_23
REMARK    3  A    between atoms: C_4  and  C_25
REMARK    4  A    between atoms: C_9  and  O_14
REMARK    5  A    between atoms: C_10  and  O_16
REMARK    6  A    between atoms: C_12  and  O_18
REMARK    7  A    between atoms: C_13  and  C_20
REMARK    8  A    between atoms: C_20  and  O_21
REMARK    9  A    between atoms: C_25  and  C_26
REMARK   10  A    between atoms: C_31  and  O_32
REMARK   11  A    between atoms: O_32  and  C_33
REMARK                            x       y       z     vdW  Elec       q    Type
REMARK                         _______ _______ _______ _____ _____    ______ ____
ROOT
ATOM      1  C   UNL     1      32.922 -10.951 -23.356  0.00  0.00    +0.024 C 
ATOM      2  C   UNL     1      33.820  -9.985 -23.805  0.00  0.00    -0.005 C 
ATOM      3  C   UNL     1      32.042 -10.662 -22.314  0.00  0.00    +0.135 C 
ATOM      4  C   UNL     1      33.837  -8.724 -23.211  0.00  0.00    -0.022 C 
ATOM      5  C   UNL     1      32.959  -8.431 -22.168  0.00  0.00    -0.022 C 
ATOM      6  C   UNL     1      32.061  -9.401 -21.720  0.00  0.00    +0.032 C 
ATOM      7  C   UNL     1      32.959  -7.088 -21.516  0.00  0.00    +0.031 C 
ENDROOT
BRANCH   1  11
ATOM      8  S   UNL     1      33.838 -13.511 -22.975  0.00  0.00    -0.130 S 
ATOM      9  C   UNL     1      33.459 -12.305 -25.454  0.00  0.00    +0.154 C 
ATOM     10  C   UNL     1      33.410 -13.669 -26.154  0.00  0.00    +0.166 C 
ATOM     11  C   UNL     1      32.917 -12.322 -24.014  0.00  0.00    +0.102 C 
ATOM     12  C   UNL     1      34.130 -14.796 -25.406  0.00  0.00    +0.152 C 
ATOM     13  C   UNL     1      33.607 -15.012 -23.981  0.00  0.00    +0.107 C 
BRANCH   9  14
ATOM     14  O   UNL     1      32.661 -11.397 -26.229  0.00  0.00    -0.381 OA
ATOM     15  H   UNL     1      31.783 -11.784 -26.378  0.00  0.00    +0.210 HD
ENDBRANCH   9  14
BRANCH  10  16
ATOM     16  O   UNL     1      34.042 -13.509 -27.432  0.00  0.00    -0.380 OA
ATOM     17  H   UNL     1      33.373 -13.559 -28.133  0.00  0.00    +0.211 HD
ENDBRANCH  10  16
BRANCH  12  18
ATOM     18  O   UNL     1      33.916 -15.990 -26.168  0.00  0.00    -0.381 OA
ATOM     19  H   UNL     1      34.772 -16.379 -26.407  0.00  0.00    +0.210 HD
ENDBRANCH  12  18
BRANCH  13  20
ATOM     20  C   UNL     1      34.311 -16.168 -23.268  0.00  0.00    +0.150 C 
BRANCH  20  21
ATOM     21  O   UNL     1      35.673 -16.166 -23.649  0.00  0.00    -0.381 OA
ATOM     22  H   UNL     1      35.957 -17.074 -23.841  0.00  0.00    +0.210 HD
ENDBRANCH  20  21
ENDBRANCH  13  20
ENDBRANCH   1  11
BRANCH   3  23
ATOM     23  O   UNL     1      31.159 -11.597 -21.865  0.00  0.00    -0.472 OA
ATOM     24  C   UNL     1      30.722 -11.478 -20.513  0.00  0.00    +0.252 C 
ENDBRANCH   3  23
BRANCH   4  25
ATOM     25  C   UNL     1      34.808  -7.703 -23.706  0.00  0.00    +0.052 C 
BRANCH  25  26
ATOM     26  C   UNL     1      34.211  -6.717 -24.690  0.00  0.00    -0.018 C 
ATOM     27  C   UNL     1      34.990  -6.251 -25.734  0.00  0.00    -0.001 C 
ATOM     28  C   UNL     1      32.900  -6.307 -24.521  0.00  0.00    -0.001 C 
ATOM     29  C   UNL     1      34.440  -5.343 -26.639  0.00  0.00    +0.037 C 
ATOM     30  C   UNL     1      32.351  -5.400 -25.427  0.00  0.00    +0.037 C 
ATOM     31  C   UNL     1      33.121  -4.918 -26.485  0.00  0.00    +0.139 C 
BRANCH  31  32
ATOM     32  O   UNL     1      32.585  -4.033 -27.370  0.00  0.00    -0.475 OA
BRANCH  32  33
ATOM     33  C   UNL     1      33.264  -3.867 -28.614  0.00  0.00    +0.206 C 
ATOM     34  C   UNL     1      32.460  -4.536 -29.708  0.00  0.00    +0.051 C 
ENDBRANCH  32  33
ENDBRANCH  31  32
ENDBRANCH  25  26
ENDBRANCH   4  25
TORSDOF 11
ENDMDL
MODEL 9
REMARK VINA RESULT:      -7.5      3.815     10.746
REMARK  Name = 11988953
REMARK  11 active torsions:
REMARK  status: ('A' for Active; 'I' for Inactive)
REMARK    1  A    between atoms: C_1  and  C_11
REMARK    2  A    between atoms: C_3  and  O_23
REMARK    3  A    between atoms: C_4  and  C_25
REMARK    4  A    between atoms: C_9  and  O_14
REMARK    5  A    between atoms: C_10  and  O_16
REMARK    6  A    between atoms: C_12  and  O_18
REMARK    7  A    between atoms: C_13  and  C_20
REMARK    8  A    between atoms: C_20  and  O_21
REMARK    9  A    between atoms: C_25  and  C_26
REMARK   10  A    between atoms: C_31  and  O_32
REMARK   11  A    between atoms: O_32  and  C_33
REMARK                            x       y       z     vdW  Elec       q    Type
REMARK                         _______ _______ _______ _____ _____    ______ ____
ROOT
ATOM      1  C   UNL     1      33.596 -11.181 -24.173  0.00  0.00    +0.024 C 
ATOM      2  C   UNL     1      32.817 -10.477 -23.257  0.00  0.00    -0.005 C 
ATOM      3  C   UNL     1      34.647 -10.548 -24.833  0.00  0.00    +0.135 C 
ATOM      4  C   UNL     1      33.091  -9.135 -22.999  0.00  0.00    -0.022 C 
ATOM      5  C   UNL     1      34.143  -8.498 -23.659  0.00  0.00    -0.022 C 
ATOM      6  C   UNL     1      34.921  -9.206 -24.576  0.00  0.00    +0.032 C 
ATOM      7  C   UNL     1      34.455  -7.061 -23.399  0.00  0.00    +0.031 C 
ENDROOT
BRANCH   1  11
ATOM      8  S   UNL     1      34.242 -13.704 -23.302  0.00  0.00    -0.130 S 
ATOM      9  C   UNL     1      33.512 -13.054 -25.908  0.00  0.00    +0.154 C 
ATOM     10  C   UNL     1      33.147 -14.512 -26.212  0.00  0.00    +0.166 C 
ATOM     11  C   UNL     1      33.282 -12.645 -24.443  0.00  0.00    +0.102 C 
ATOM     12  C   UNL     1      33.859 -15.544 -25.330  0.00  0.00    +0.152 C 
ATOM     13  C   UNL     1      33.620 -15.333 -23.831  0.00  0.00    +0.107 C 
BRANCH   9  14
ATOM     14  O   UNL     1      32.692 -12.225 -26.745  0.00  0.00    -0.381 OA
ATOM     15  H   UNL     1      33.252 -11.753 -27.382  0.00  0.00    +0.210 HD
ENDBRANCH   9  14
BRANCH  10  16
ATOM     16  O   UNL     1      33.516 -14.763 -27.576  0.00  0.00    -0.380 OA
ATOM     17  H   UNL     1      34.163 -15.485 -27.609  0.00  0.00    +0.211 HD
ENDBRANCH  10  16
BRANCH  12  18
ATOM     18  O   UNL     1      33.343 -16.826 -25.709  0.00  0.00    -0.381 OA
ATOM     19  H   UNL     1      32.438 -16.923 -25.373  0.00  0.00    +0.210 HD
ENDBRANCH  12  18
BRANCH  13  20
ATOM     20  C   UNL     1      34.305 -16.398 -22.973  0.00  0.00    +0.150 C 
BRANCH  20  21
ATOM     21  O   UNL     1      35.647 -16.523 -23.401  0.00  0.00    -0.381 OA
ATOM     22  H   UNL     1      36.105 -17.174 -22.847  0.00  0.00    +0.210 HD
ENDBRANCH  20  21
ENDBRANCH  13  20
ENDBRANCH   1  11
BRANCH   3  23
ATOM     23  O   UNL     1      35.416 -11.225 -25.731  0.00  0.00    -0.472 OA
ATOM     24  C   UNL     1      35.884 -10.494 -26.863  0.00  0.00    +0.252 C 
ENDBRANCH   3  23
BRANCH   4  25
ATOM     25  C   UNL     1      32.245  -8.398 -22.014  0.00  0.00    +0.052 C 
BRANCH  25  26
ATOM     26  C   UNL     1      31.741  -7.061 -22.520  0.00  0.00    -0.018 C 
ATOM     27  C   UNL     1      31.789  -5.962 -21.681  0.00  0.00    -0.001 C 
ATOM     28  C   UNL     1      31.245  -6.971 -23.808  0.00  0.00    -0.001 C 
ATOM     29  C   UNL     1      31.325  -4.731 -22.147  0.00  0.00    +0.037 C 
ATOM     30  C   UNL     1      30.782  -5.740 -24.274  0.00  0.00    +0.037 C 
ATOM     31  C   UNL     1      30.822  -4.621 -23.443  0.00  0.00    +0.139 C 
BRANCH  31  32
ATOM     32  O   UNL     1      30.370  -3.420 -23.896  0.00  0.00    -0.475 OA
BRANCH  32  33
ATOM     33  C   UNL     1      30.748  -3.041 -25.219  0.00  0.00    +0.206 C 
ATOM     34  C   UNL     1      32.043  -2.260 -25.158  0.00  0.00    +0.051 C 
ENDBRANCH  32  33
ENDBRANCH  31  32
ENDBRANCH  25  26
ENDBRANCH   4  25
TORSDOF 11
ENDMDL
