MODEL 1
REMARK VINA RESULT:      -6.8      0.000      0.000
REMARK  Name = 9796068
REMARK  2 active torsions:
REMARK  status: ('A' for Active; 'I' for Inactive)
REMARK    1  A    between atoms: C_2  and  C_10
REMARK    2  A    between atoms: C_3  and  N_15
REMARK                            x       y       z     vdW  Elec       q    Type
REMARK                         _______ _______ _______ _____ _____    ______ ____
ROOT
ATOM      1  I   UNL     1      34.248 -24.257 -13.273  0.00  0.00    -0.041 I 
ATOM      2  C   UNL     1      38.972 -25.210 -14.082  0.00  0.00    +0.055 C 
ATOM      3  C   UNL     1      37.264 -24.281 -12.648  0.00  0.00    +0.148 C 
ATOM      4  C   UNL     1      38.606 -24.564 -12.901  0.00  0.00    +0.029 C 
ATOM      5  C   UNL     1      37.996 -25.574 -15.009  0.00  0.00    +0.005 C 
ATOM      6  C   UNL     1      36.288 -24.645 -13.575  0.00  0.00    +0.052 C 
ATOM      7  C   UNL     1      36.654 -25.291 -14.756  0.00  0.00    +0.008 C 
ENDROOT
BRANCH   2  10
ATOM      8  O   UNL     1      41.172 -24.614 -14.676  0.00  0.00    -0.270 OA
ATOM      9  N   UNL     1      40.793 -26.825 -14.199  0.00  0.00    -0.325 N 
ATOM     10  C   UNL     1      40.371 -25.506 -14.346  0.00  0.00    +0.243 C 
ATOM     11  H   UNL     1      41.733 -27.063 -14.369  0.00  0.00    +0.145 HD
ATOM     12  H   UNL     1      40.151 -27.519 -13.925  0.00  0.00    +0.145 HD
ENDBRANCH   2  10
BRANCH   3  15
ATOM     13  O   UNL     1      37.124 -22.383 -11.346  0.00  0.00    -0.126 OA
ATOM     14  O   UNL     1      36.490 -24.297 -10.476  0.00  0.00    -0.126 OA
ATOM     15  N   UNL     1      36.943 -23.620 -11.428  0.00  0.00    +0.058 N 
ENDBRANCH   3  15
TORSDOF 2
ENDMDL
MODEL 2
REMARK VINA RESULT:      -6.8     12.291     12.974
REMARK  Name = 9796068
REMARK  2 active torsions:
REMARK  status: ('A' for Active; 'I' for Inactive)
REMARK    1  A    between atoms: C_2  and  C_10
REMARK    2  A    between atoms: C_3  and  N_15
REMARK                            x       y       z     vdW  Elec       q    Type
REMARK                         _______ _______ _______ _____ _____    ______ ____
ROOT
ATOM      1  I   UNL     1      33.391 -14.164 -23.997  0.00  0.00    -0.041 I 
ATOM      2  C   UNL     1      35.391 -17.971 -21.677  0.00  0.00    +0.055 C 
ATOM      3  C   UNL     1      34.639 -16.968 -23.743  0.00  0.00    +0.148 C 
ATOM      4  C   UNL     1      35.208 -18.042 -23.059  0.00  0.00    +0.029 C 
ATOM      5  C   UNL     1      35.005 -16.825 -20.981  0.00  0.00    +0.005 C 
ATOM      6  C   UNL     1      34.253 -15.823 -23.047  0.00  0.00    +0.052 C 
ATOM      7  C   UNL     1      34.436 -15.751 -21.665  0.00  0.00    +0.008 C 
ENDROOT
BRANCH   2  10
ATOM      8  O   UNL     1      37.218 -19.232 -20.891  0.00  0.00    -0.270 OA
ATOM      9  N   UNL     1      35.125 -19.993 -20.344  0.00  0.00    -0.325 N 
ATOM     10  C   UNL     1      35.985 -19.090 -20.964  0.00  0.00    +0.243 C 
ATOM     11  H   UNL     1      35.491 -20.763 -19.852  0.00  0.00    +0.145 HD
ATOM     12  H   UNL     1      34.151 -19.861 -20.400  0.00  0.00    +0.145 HD
ENDBRANCH   2  10
BRANCH   3  15
ATOM     13  O   UNL     1      35.237 -16.447 -25.908  0.00  0.00    -0.126 OA
ATOM     14  O   UNL     1      33.571 -17.841 -25.591  0.00  0.00    -0.126 OA
ATOM     15  N   UNL     1      34.474 -17.091 -25.152  0.00  0.00    +0.058 N 
ENDBRANCH   3  15
TORSDOF 2
ENDMDL
MODEL 3
REMARK VINA RESULT:      -6.8     13.559     14.246
REMARK  Name = 9796068
REMARK  2 active torsions:
REMARK  status: ('A' for Active; 'I' for Inactive)
REMARK    1  A    between atoms: C_2  and  C_10
REMARK    2  A    between atoms: C_3  and  N_15
REMARK                            x       y       z     vdW  Elec       q    Type
REMARK                         _______ _______ _______ _____ _____    ______ ____
ROOT
ATOM      1  I   UNL     1      35.437 -18.825 -21.365  0.00  0.00    -0.041 I 
ATOM      2  C   UNL     1      33.915 -15.686 -24.787  0.00  0.00    +0.055 C 
ATOM      3  C   UNL     1      34.163 -16.239 -22.447  0.00  0.00    +0.148 C 
ATOM      4  C   UNL     1      33.737 -15.359 -23.442  0.00  0.00    +0.029 C 
ATOM      5  C   UNL     1      34.519 -16.894 -25.135  0.00  0.00    +0.005 C 
ATOM      6  C   UNL     1      34.768 -17.446 -22.796  0.00  0.00    +0.052 C 
ATOM      7  C   UNL     1      34.946 -17.774 -24.141  0.00  0.00    +0.008 C 
ENDROOT
BRANCH   2  10
ATOM      8  O   UNL     1      33.431 -15.111 -27.019  0.00  0.00    -0.270 OA
ATOM      9  N   UNL     1      33.073 -13.494 -25.434  0.00  0.00    -0.325 N 
ATOM     10  C   UNL     1      33.471 -14.769 -25.824  0.00  0.00    +0.243 C 
ATOM     11  H   UNL     1      32.767 -12.845 -26.108  0.00  0.00    +0.145 HD
ATOM     12  H   UNL     1      33.098 -13.240 -24.482  0.00  0.00    +0.145 HD
ENDBRANCH   2  10
BRANCH   3  15
ATOM     13  O   UNL     1      34.924 -15.394 -20.441  0.00  0.00    -0.126 OA
ATOM     14  O   UNL     1      32.817 -15.995 -20.591  0.00  0.00    -0.126 OA
ATOM     15  N   UNL     1      33.958 -15.857 -21.091  0.00  0.00    +0.058 N 
ENDBRANCH   3  15
TORSDOF 2
ENDMDL
MODEL 4
REMARK VINA RESULT:      -6.7      5.404      6.330
REMARK  Name = 9796068
REMARK  2 active torsions:
REMARK  status: ('A' for Active; 'I' for Inactive)
REMARK    1  A    between atoms: C_2  and  C_10
REMARK    2  A    between atoms: C_3  and  N_15
REMARK                            x       y       z     vdW  Elec       q    Type
REMARK                         _______ _______ _______ _____ _____    ______ ____
ROOT
ATOM      1  I   UNL     1      36.159 -21.032 -19.924  0.00  0.00    -0.041 I 
ATOM      2  C   UNL     1      35.654 -23.088 -15.520  0.00  0.00    +0.055 C 
ATOM      3  C   UNL     1      34.766 -22.687 -17.732  0.00  0.00    +0.148 C 
ATOM      4  C   UNL     1      34.645 -23.264 -16.467  0.00  0.00    +0.029 C 
ATOM      5  C   UNL     1      36.784 -22.334 -15.837  0.00  0.00    +0.005 C 
ATOM      6  C   UNL     1      35.896 -21.933 -18.049  0.00  0.00    +0.052 C 
ATOM      7  C   UNL     1      36.906 -21.757 -17.101  0.00  0.00    +0.008 C 
ENDROOT
BRANCH   2  10
ATOM      8  O   UNL     1      36.098 -23.205 -13.210  0.00  0.00    -0.270 OA
ATOM      9  N   UNL     1      34.729 -24.824 -14.083  0.00  0.00    -0.325 N 
ATOM     10  C   UNL     1      35.528 -23.690 -14.202  0.00  0.00    +0.243 C 
ATOM     11  H   UNL     1      34.620 -25.260 -13.207  0.00  0.00    +0.145 HD
ATOM     12  H   UNL     1      34.273 -25.191 -14.875  0.00  0.00    +0.145 HD
ENDBRANCH   2  10
BRANCH   3  15
ATOM     13  O   UNL     1      32.687 -22.177 -18.587  0.00  0.00    -0.126 OA
ATOM     14  O   UNL     1      33.835 -23.795 -19.527  0.00  0.00    -0.126 OA
ATOM     15  N   UNL     1      33.709 -22.897 -18.662  0.00  0.00    +0.058 N 
ENDBRANCH   3  15
TORSDOF 2
ENDMDL
MODEL 5
REMARK VINA RESULT:      -6.6     13.690     14.281
REMARK  Name = 9796068
REMARK  2 active torsions:
REMARK  status: ('A' for Active; 'I' for Inactive)
REMARK    1  A    between atoms: C_2  and  C_10
REMARK    2  A    between atoms: C_3  and  N_15
REMARK                            x       y       z     vdW  Elec       q    Type
REMARK                         _______ _______ _______ _____ _____    ______ ____
ROOT
ATOM      1  I   UNL     1      32.934 -14.413 -26.540  0.00  0.00    -0.041 I 
ATOM      2  C   UNL     1      34.840 -16.723 -22.678  0.00  0.00    +0.055 C 
ATOM      3  C   UNL     1      33.763 -14.763 -23.595  0.00  0.00    +0.148 C 
ATOM      4  C   UNL     1      34.313 -15.442 -22.507  0.00  0.00    +0.029 C 
ATOM      5  C   UNL     1      34.817 -17.323 -23.937  0.00  0.00    +0.005 C 
ATOM      6  C   UNL     1      33.740 -15.364 -24.853  0.00  0.00    +0.052 C 
ATOM      7  C   UNL     1      34.268 -16.644 -25.025  0.00  0.00    +0.008 C 
ENDROOT
BRANCH   2  10
ATOM      8  O   UNL     1      35.342 -16.973 -20.391  0.00  0.00    -0.270 OA
ATOM      9  N   UNL     1      36.028 -18.655 -21.790  0.00  0.00    -0.325 N 
ATOM     10  C   UNL     1      35.412 -17.431 -21.545  0.00  0.00    +0.243 C 
ATOM     11  H   UNL     1      36.427 -19.164 -21.048  0.00  0.00    +0.145 HD
ATOM     12  H   UNL     1      36.065 -19.012 -22.708  0.00  0.00    +0.145 HD
ENDBRANCH   2  10
BRANCH   3  15
ATOM     13  O   UNL     1      32.082 -13.347 -22.899  0.00  0.00    -0.126 OA
ATOM     14  O   UNL     1      33.951 -12.465 -23.641  0.00  0.00    -0.126 OA
ATOM     15  N   UNL     1      33.238 -13.459 -23.367  0.00  0.00    +0.058 N 
ENDBRANCH   3  15
TORSDOF 2
ENDMDL
MODEL 6
REMARK VINA RESULT:      -6.5      2.832      4.732
REMARK  Name = 9796068
REMARK  2 active torsions:
REMARK  status: ('A' for Active; 'I' for Inactive)
REMARK    1  A    between atoms: C_2  and  C_10
REMARK    2  A    between atoms: C_3  and  N_15
REMARK                            x       y       z     vdW  Elec       q    Type
REMARK                         _______ _______ _______ _____ _____    ______ ____
ROOT
ATOM      1  I   UNL     1      39.301 -25.382 -14.318  0.00  0.00    -0.041 I 
ATOM      2  C   UNL     1      34.551 -24.311 -13.901  0.00  0.00    +0.055 C 
ATOM      3  C   UNL     1      36.785 -24.211 -12.983  0.00  0.00    +0.148 C 
ATOM      4  C   UNL     1      35.424 -23.917 -12.886  0.00  0.00    +0.029 C 
ATOM      5  C   UNL     1      35.039 -25.000 -15.012  0.00  0.00    +0.005 C 
ATOM      6  C   UNL     1      37.272 -24.900 -14.094  0.00  0.00    +0.052 C 
ATOM      7  C   UNL     1      36.399 -25.294 -15.109  0.00  0.00    +0.008 C 
ENDROOT
BRANCH   2  10
ATOM      8  O   UNL     1      32.338 -24.785 -13.251  0.00  0.00    -0.270 OA
ATOM      9  N   UNL     1      32.695 -22.792 -14.327  0.00  0.00    -0.325 N 
ATOM     10  C   UNL     1      33.134 -24.004 -13.801  0.00  0.00    +0.243 C 
ATOM     11  H   UNL     1      31.742 -22.549 -14.278  0.00  0.00    +0.145 HD
ATOM     12  H   UNL     1      33.339 -22.177 -14.749  0.00  0.00    +0.145 HD
ENDBRANCH   2  10
BRANCH   3  15
ATOM     13  O   UNL     1      38.081 -22.618 -11.936  0.00  0.00    -0.126 OA
ATOM     14  O   UNL     1      37.903 -24.597 -11.004  0.00  0.00    -0.126 OA
ATOM     15  N   UNL     1      37.633 -23.787 -11.921  0.00  0.00    +0.058 N 
ENDBRANCH   3  15
TORSDOF 2
ENDMDL
MODEL 7
REMARK VINA RESULT:      -6.5     13.790     14.344
REMARK  Name = 9796068
REMARK  2 active torsions:
REMARK  status: ('A' for Active; 'I' for Inactive)
REMARK    1  A    between atoms: C_2  and  C_10
REMARK    2  A    between atoms: C_3  and  N_15
REMARK                            x       y       z     vdW  Elec       q    Type
REMARK                         _______ _______ _______ _____ _____    ______ ____
ROOT
ATOM      1  I   UNL     1      31.767 -12.079 -21.853  0.00  0.00    -0.041 I 
ATOM      2  C   UNL     1      34.575 -16.078 -21.838  0.00  0.00    +0.055 C 
ATOM      3  C   UNL     1      33.601 -14.236 -23.063  0.00  0.00    +0.148 C 
ATOM      4  C   UNL     1      34.399 -15.381 -23.034  0.00  0.00    +0.029 C 
ATOM      5  C   UNL     1      33.953 -15.630 -20.673  0.00  0.00    +0.005 C 
ATOM      6  C   UNL     1      32.980 -13.789 -21.897  0.00  0.00    +0.052 C 
ATOM      7  C   UNL     1      33.157 -14.486 -20.701  0.00  0.00    +0.008 C 
ENDROOT
BRANCH   2  10
ATOM      8  O   UNL     1      35.564 -17.924 -20.762  0.00  0.00    -0.270 OA
ATOM      9  N   UNL     1      36.008 -17.671 -22.997  0.00  0.00    -0.325 N 
ATOM     10  C   UNL     1      35.406 -17.270 -21.807  0.00  0.00    +0.243 C 
ATOM     11  H   UNL     1      36.579 -18.473 -23.015  0.00  0.00    +0.145 HD
ATOM     12  H   UNL     1      35.864 -17.151 -23.821  0.00  0.00    +0.145 HD
ENDBRANCH   2  10
BRANCH   3  15
ATOM     13  O   UNL     1      32.730 -14.075 -25.192  0.00  0.00    -0.126 OA
ATOM     14  O   UNL     1      34.053 -12.474 -24.480  0.00  0.00    -0.126 OA
ATOM     15  N   UNL     1      33.454 -13.561 -24.309  0.00  0.00    +0.058 N 
ENDBRANCH   3  15
TORSDOF 2
ENDMDL
MODEL 8
REMARK VINA RESULT:      -6.5     13.785     14.785
REMARK  Name = 9796068
REMARK  2 active torsions:
REMARK  status: ('A' for Active; 'I' for Inactive)
REMARK    1  A    between atoms: C_2  and  C_10
REMARK    2  A    between atoms: C_3  and  N_15
REMARK                            x       y       z     vdW  Elec       q    Type
REMARK                         _______ _______ _______ _____ _____    ______ ____
ROOT
ATOM      1  I   UNL     1      34.766 -16.809 -24.253  0.00  0.00    -0.041 I 
ATOM      2  C   UNL     1      32.348 -13.354 -21.784  0.00  0.00    +0.055 C 
ATOM      3  C   UNL     1      33.564 -15.442 -21.768  0.00  0.00    +0.148 C 
ATOM      4  C   UNL     1      32.870 -14.443 -21.085  0.00  0.00    +0.029 C 
ATOM      5  C   UNL     1      32.521 -13.264 -23.165  0.00  0.00    +0.005 C 
ATOM      6  C   UNL     1      33.737 -15.352 -23.149  0.00  0.00    +0.052 C 
ATOM      7  C   UNL     1      33.215 -14.263 -23.848  0.00  0.00    +0.008 C 
ENDROOT
BRANCH   2  10
ATOM      8  O   UNL     1      31.860 -12.060 -19.877  0.00  0.00    -0.270 OA
ATOM      9  N   UNL     1      30.671 -11.587 -21.780  0.00  0.00    -0.325 N 
ATOM     10  C   UNL     1      31.626 -12.312 -21.072  0.00  0.00    +0.243 C 
ATOM     11  H   UNL     1      30.162 -10.874 -21.331  0.00  0.00    +0.145 HD
ATOM     12  H   UNL     1      30.505 -11.788 -22.730  0.00  0.00    +0.145 HD
ENDBRANCH   2  10
BRANCH   3  15
ATOM     13  O   UNL     1      35.142 -16.375 -20.369  0.00  0.00    -0.126 OA
ATOM     14  O   UNL     1      33.444 -17.614 -21.004  0.00  0.00    -0.126 OA
ATOM     15  N   UNL     1      34.077 -16.533 -21.009  0.00  0.00    +0.058 N 
ENDBRANCH   3  15
TORSDOF 2
ENDMDL
MODEL 9
REMARK VINA RESULT:      -6.5      6.839      8.554
REMARK  Name = 9796068
REMARK  2 active torsions:
REMARK  status: ('A' for Active; 'I' for Inactive)
REMARK    1  A    between atoms: C_2  and  C_10
REMARK    2  A    between atoms: C_3  and  N_15
REMARK                            x       y       z     vdW  Elec       q    Type
REMARK                         _______ _______ _______ _____ _____    ______ ____
ROOT
ATOM      1  I   UNL     1      35.256 -23.725 -15.062  0.00  0.00    -0.041 I 
ATOM      2  C   UNL     1      30.521 -22.866 -15.910  0.00  0.00    +0.055 C 
ATOM      3  C   UNL     1      32.759 -23.160 -16.773  0.00  0.00    +0.148 C 
ATOM      4  C   UNL     1      31.402 -22.917 -16.990  0.00  0.00    +0.029 C 
ATOM      5  C   UNL     1      30.997 -23.059 -14.613  0.00  0.00    +0.005 C 
ATOM      6  C   UNL     1      33.234 -23.353 -15.476  0.00  0.00    +0.052 C 
ATOM      7  C   UNL     1      32.352 -23.302 -14.396  0.00  0.00    +0.008 C 
ENDROOT
BRANCH   2  10
ATOM      8  O   UNL     1      28.429 -21.954 -15.328  0.00  0.00    -0.270 OA
ATOM      9  N   UNL     1      28.537 -23.117 -17.301  0.00  0.00    -0.325 N 
ATOM     10  C   UNL     1      29.107 -22.613 -16.136  0.00  0.00    +0.243 C 
ATOM     11  H   UNL     1      27.582 -22.966 -17.488  0.00  0.00    +0.145 HD
ATOM     12  H   UNL     1      29.090 -23.626 -17.939  0.00  0.00    +0.145 HD
ENDBRANCH   2  10
BRANCH   3  15
ATOM     13  O   UNL     1      34.276 -22.181 -18.206  0.00  0.00    -0.126 OA
ATOM     14  O   UNL     1      33.682 -24.262 -18.576  0.00  0.00    -0.126 OA
ATOM     15  N   UNL     1      33.616 -23.203 -17.910  0.00  0.00    +0.058 N 
ENDBRANCH   3  15
TORSDOF 2
ENDMDL
