MODEL 1
REMARK VINA RESULT:      -9.2      0.000      0.000
REMARK  Name = 15671
REMARK  6 active torsions:
REMARK  status: ('A' for Active; 'I' for Inactive)
REMARK    1  A    between atoms: C_7  and  C_22
REMARK    2  A    between atoms: C_12  and  S_16
REMARK    3  A    between atoms: S_16  and  N_19
REMARK    4  A    between atoms: C_22  and  S_23
REMARK    5  A    between atoms: S_23  and  C_24
REMARK    6  A    between atoms: C_24  and  C_28
REMARK                            x       y       z     vdW  Elec       q    Type
REMARK                         _______ _______ _______ _____ _____    ______ ____
ROOT
ATOM      1 CL   UNL     1      30.250 -23.764 -12.954  0.00  0.00    -0.081 Cl
ATOM      2  S   UNL     1      33.619 -22.883 -18.158  0.00  0.00    +0.063 S 
ATOM      3  O   UNL     1      33.053 -21.730 -18.828  0.00  0.00    -0.153 OA
ATOM      4  O   UNL     1      33.729 -24.170 -18.815  0.00  0.00    -0.153 OA
ATOM      5  N   UNL     1      35.136 -22.437 -17.508  0.00  0.00    -0.162 NA
ATOM      6  N   UNL     1      34.737 -23.398 -15.311  0.00  0.00    -0.319 N 
ATOM      7  C   UNL     1      35.644 -23.331 -16.442  0.00  0.00    +0.158 C 
ATOM      8  C   UNL     1      32.697 -23.160 -16.678  0.00  0.00    +0.136 C 
ATOM      9  C   UNL     1      33.358 -23.387 -15.460  0.00  0.00    +0.065 C 
ATOM     10  C   UNL     1      31.303 -23.121 -16.773  0.00  0.00    +0.042 C 
ATOM     11  C   UNL     1      32.552 -23.561 -14.323  0.00  0.00    +0.028 C 
ATOM     12  C   UNL     1      30.533 -23.311 -15.631  0.00  0.00    +0.134 C 
ATOM     13  C   UNL     1      31.156 -23.529 -14.405  0.00  0.00    +0.078 C 
ATOM     14  H   UNL     1      35.051 -21.498 -17.120  0.00  0.00    +0.151 HD
ATOM     15  H   UNL     1      35.115 -23.453 -14.403  0.00  0.00    +0.148 HD
ENDROOT
BRANCH  12  16
ATOM     16  S   UNL     1      28.789 -23.258 -15.793  0.00  0.00    +0.058 S 
ATOM     17  O   UNL     1      28.247 -24.491 -15.242  0.00  0.00    -0.153 OA
ATOM     18  O   UNL     1      28.323 -21.973 -15.298  0.00  0.00    -0.153 OA
BRANCH  16  19
ATOM     19  N   UNL     1      28.625 -23.290 -17.492  0.00  0.00    -0.203 NA
ATOM     20  H   UNL     1      28.403 -24.238 -17.794  0.00  0.00    +0.144 HD
ATOM     21  H   UNL     1      29.499 -22.992 -17.924  0.00  0.00    +0.144 HD
ENDBRANCH  16  19
ENDBRANCH  12  16
BRANCH   7  22
ATOM     22  C   UNL     1      37.000 -22.814 -15.979  0.00  0.00    +0.096 C 
BRANCH  22  23
ATOM     23  S   UNL     1      37.270 -23.227 -14.236  0.00  0.00    -0.128 S 
BRANCH  23  24
ATOM     24  C   UNL     1      38.007 -24.863 -14.462  0.00  0.00    +0.161 C 
BRANCH  24  28
ATOM     25  F   UNL     1      39.938 -25.862 -13.516  0.00  0.00    -0.169 F 
ATOM     26  F   UNL     1      38.953 -24.285 -12.365  0.00  0.00    -0.169 F 
ATOM     27  F   UNL     1      38.018 -26.243 -12.560  0.00  0.00    -0.169 F 
ATOM     28  C   UNL     1      38.743 -25.310 -13.220  0.00  0.00    +0.408 C 
ENDBRANCH  24  28
ENDBRANCH  23  24
ENDBRANCH  22  23
ENDBRANCH   7  22
TORSDOF 6
ENDMDL
MODEL 2
REMARK VINA RESULT:      -9.0      6.080      7.552
REMARK  Name = 15671
REMARK  6 active torsions:
REMARK  status: ('A' for Active; 'I' for Inactive)
REMARK    1  A    between atoms: C_7  and  C_22
REMARK    2  A    between atoms: C_12  and  S_16
REMARK    3  A    between atoms: S_16  and  N_19
REMARK    4  A    between atoms: C_22  and  S_23
REMARK    5  A    between atoms: S_23  and  C_24
REMARK    6  A    between atoms: C_24  and  C_28
REMARK                            x       y       z     vdW  Elec       q    Type
REMARK                         _______ _______ _______ _____ _____    ______ ____
ROOT
ATOM      1 CL   UNL     1      37.627 -22.894 -14.144  0.00  0.00    -0.081 Cl
ATOM      2  S   UNL     1      33.676 -22.446 -18.981  0.00  0.00    +0.063 S 
ATOM      3  O   UNL     1      32.373 -22.141 -18.425  0.00  0.00    -0.153 OA
ATOM      4  O   UNL     1      33.895 -23.610 -19.817  0.00  0.00    -0.153 OA
ATOM      5  N   UNL     1      34.265 -21.050 -19.772  0.00  0.00    -0.162 NA
ATOM      6  N   UNL     1      36.480 -21.136 -18.771  0.00  0.00    -0.319 N 
ATOM      7  C   UNL     1      35.727 -21.039 -20.008  0.00  0.00    +0.158 C 
ATOM      8  C   UNL     1      34.822 -22.574 -17.644  0.00  0.00    +0.136 C 
ATOM      9  C   UNL     1      36.063 -21.921 -17.706  0.00  0.00    +0.065 C 
ATOM     10  C   UNL     1      34.430 -23.327 -16.532  0.00  0.00    +0.042 C 
ATOM     11  C   UNL     1      36.902 -22.042 -16.586  0.00  0.00    +0.028 C 
ATOM     12  C   UNL     1      35.289 -23.438 -15.444  0.00  0.00    +0.134 C 
ATOM     13  C   UNL     1      36.523 -22.795 -15.469  0.00  0.00    +0.078 C 
ATOM     14  H   UNL     1      34.031 -20.239 -19.200  0.00  0.00    +0.151 HD
ATOM     15  H   UNL     1      37.316 -20.625 -18.684  0.00  0.00    +0.148 HD
ENDROOT
BRANCH  12  16
ATOM     16  S   UNL     1      34.763 -24.392 -14.072  0.00  0.00    +0.058 S 
ATOM     17  O   UNL     1      35.163 -23.697 -12.858  0.00  0.00    -0.153 OA
ATOM     18  O   UNL     1      33.370 -24.757 -14.277  0.00  0.00    -0.153 OA
BRANCH  16  19
ATOM     19  N   UNL     1      35.734 -25.784 -14.261  0.00  0.00    -0.203 NA
ATOM     20  H   UNL     1      35.188 -26.613 -14.023  0.00  0.00    +0.144 HD
ATOM     21  H   UNL     1      36.543 -25.721 -13.644  0.00  0.00    +0.144 HD
ENDBRANCH  16  19
ENDBRANCH  12  16
BRANCH   7  22
ATOM     22  C   UNL     1      36.093 -19.747 -20.728  0.00  0.00    +0.096 C 
BRANCH  22  23
ATOM     23  S   UNL     1      34.614 -18.984 -21.442  0.00  0.00    -0.128 S 
BRANCH  23  24
ATOM     24  C   UNL     1      35.341 -17.403 -21.935  0.00  0.00    +0.161 C 
BRANCH  24  28
ATOM     25  F   UNL     1      33.245 -16.477 -21.328  0.00  0.00    -0.169 F 
ATOM     26  F   UNL     1      34.974 -15.954 -20.094  0.00  0.00    -0.169 F 
ATOM     27  F   UNL     1      34.773 -15.130 -22.100  0.00  0.00    -0.169 F 
ATOM     28  C   UNL     1      34.573 -16.239 -21.353  0.00  0.00    +0.408 C 
ENDBRANCH  24  28
ENDBRANCH  23  24
ENDBRANCH  22  23
ENDBRANCH   7  22
TORSDOF 6
ENDMDL
MODEL 3
REMARK VINA RESULT:      -9.0      5.449      7.276
REMARK  Name = 15671
REMARK  6 active torsions:
REMARK  status: ('A' for Active; 'I' for Inactive)
REMARK    1  A    between atoms: C_7  and  C_22
REMARK    2  A    between atoms: C_12  and  S_16
REMARK    3  A    between atoms: S_16  and  N_19
REMARK    4  A    between atoms: C_22  and  S_23
REMARK    5  A    between atoms: S_23  and  C_24
REMARK    6  A    between atoms: C_24  and  C_28
REMARK                            x       y       z     vdW  Elec       q    Type
REMARK                         _______ _______ _______ _____ _____    ______ ____
ROOT
ATOM      1 CL   UNL     1      38.412 -24.439 -14.256  0.00  0.00    -0.081 Cl
ATOM      2  S   UNL     1      32.181 -23.819 -14.319  0.00  0.00    +0.063 S 
ATOM      3  O   UNL     1      31.829 -23.056 -13.139  0.00  0.00    -0.153 OA
ATOM      4  O   UNL     1      31.626 -25.134 -14.572  0.00  0.00    -0.153 OA
ATOM      5  N   UNL     1      31.953 -22.825 -15.691  0.00  0.00    -0.162 NA
ATOM      6  N   UNL     1      34.099 -23.343 -16.710  0.00  0.00    -0.319 N 
ATOM      7  C   UNL     1      32.663 -23.274 -16.911  0.00  0.00    +0.158 C 
ATOM      8  C   UNL     1      33.936 -24.010 -14.340  0.00  0.00    +0.136 C 
ATOM      9  C   UNL     1      34.665 -23.760 -15.514  0.00  0.00    +0.065 C 
ATOM     10  C   UNL     1      34.555 -24.393 -13.146  0.00  0.00    +0.042 C 
ATOM     11  C   UNL     1      36.060 -23.898 -15.437  0.00  0.00    +0.028 C 
ATOM     12  C   UNL     1      35.937 -24.534 -13.106  0.00  0.00    +0.134 C 
ATOM     13  C   UNL     1      36.691 -24.285 -14.250  0.00  0.00    +0.078 C 
ATOM     14  H   UNL     1      32.281 -21.888 -15.461  0.00  0.00    +0.151 HD
ATOM     15  H   UNL     1      34.694 -23.084 -17.450  0.00  0.00    +0.148 HD
ENDROOT
BRANCH  12  16
ATOM     16  S   UNL     1      36.674 -25.019 -11.593  0.00  0.00    +0.058 S 
ATOM     17  O   UNL     1      37.132 -26.393 -11.732  0.00  0.00    -0.153 OA
ATOM     18  O   UNL     1      37.606 -23.980 -11.184  0.00  0.00    -0.153 OA
BRANCH  16  19
ATOM     19  N   UNL     1      35.319 -24.988 -10.554  0.00  0.00    -0.203 NA
ATOM     20  H   UNL     1      34.466 -25.077 -11.105  0.00  0.00    +0.144 HD
ATOM     21  H   UNL     1      35.303 -24.106 -10.042  0.00  0.00    +0.144 HD
ENDBRANCH  16  19
ENDBRANCH  12  16
BRANCH   7  22
ATOM     22  C   UNL     1      32.352 -22.302 -18.041  0.00  0.00    +0.096 C 
BRANCH  22  23
ATOM     23  S   UNL     1      33.811 -22.066 -19.088  0.00  0.00    -0.128 S 
BRANCH  23  24
ATOM     24  C   UNL     1      33.213 -20.668 -20.067  0.00  0.00    +0.161 C 
BRANCH  24  28
ATOM     25  F   UNL     1      34.207 -18.569 -20.546  0.00  0.00    -0.169 F 
ATOM     26  F   UNL     1      35.546 -20.253 -20.150  0.00  0.00    -0.169 F 
ATOM     27  F   UNL     1      34.424 -20.164 -22.015  0.00  0.00    -0.169 F 
ATOM     28  C   UNL     1      34.358 -19.903 -20.690  0.00  0.00    +0.408 C 
ENDBRANCH  24  28
ENDBRANCH  23  24
ENDBRANCH  22  23
ENDBRANCH   7  22
TORSDOF 6
ENDMDL
MODEL 4
REMARK VINA RESULT:      -9.0      3.122      4.729
REMARK  Name = 15671
REMARK  6 active torsions:
REMARK  status: ('A' for Active; 'I' for Inactive)
REMARK    1  A    between atoms: C_7  and  C_22
REMARK    2  A    between atoms: C_12  and  S_16
REMARK    3  A    between atoms: S_16  and  N_19
REMARK    4  A    between atoms: C_22  and  S_23
REMARK    5  A    between atoms: S_23  and  C_24
REMARK    6  A    between atoms: C_24  and  C_28
REMARK                            x       y       z     vdW  Elec       q    Type
REMARK                         _______ _______ _______ _____ _____    ______ ____
ROOT
ATOM      1 CL   UNL     1      36.861 -21.654 -18.105  0.00  0.00    -0.081 Cl
ATOM      2  S   UNL     1      33.066 -24.176 -13.811  0.00  0.00    +0.063 S 
ATOM      3  O   UNL     1      32.455 -25.337 -14.428  0.00  0.00    -0.153 OA
ATOM      4  O   UNL     1      32.270 -23.097 -13.261  0.00  0.00    -0.153 OA
ATOM      5  N   UNL     1      34.189 -24.717 -12.641  0.00  0.00    -0.162 NA
ATOM      6  N   UNL     1      35.993 -23.254 -13.361  0.00  0.00    -0.319 N 
ATOM      7  C   UNL     1      35.198 -23.711 -12.236  0.00  0.00    +0.158 C 
ATOM      8  C   UNL     1      34.151 -23.439 -14.992  0.00  0.00    +0.136 C 
ATOM      9  C   UNL     1      35.455 -23.069 -14.626  0.00  0.00    +0.065 C 
ATOM     10  C   UNL     1      33.664 -23.267 -16.292  0.00  0.00    +0.042 C 
ATOM     11  C   UNL     1      36.267 -22.524 -15.634  0.00  0.00    +0.028 C 
ATOM     12  C   UNL     1      34.489 -22.712 -17.263  0.00  0.00    +0.134 C 
ATOM     13  C   UNL     1      35.791 -22.342 -16.937  0.00  0.00    +0.078 C 
ATOM     14  H   UNL     1      34.681 -25.523 -13.024  0.00  0.00    +0.151 HD
ATOM     15  H   UNL     1      36.949 -23.068 -13.221  0.00  0.00    +0.148 HD
ENDROOT
BRANCH  12  16
ATOM     16  S   UNL     1      33.841 -22.509 -18.878  0.00  0.00    +0.058 S 
ATOM     17  O   UNL     1      34.449 -21.325 -19.465  0.00  0.00    -0.153 OA
ATOM     18  O   UNL     1      33.924 -23.787 -19.568  0.00  0.00    -0.153 OA
BRANCH  16  19
ATOM     19  N   UNL     1      32.204 -22.175 -18.526  0.00  0.00    -0.203 NA
ATOM     20  H   UNL     1      32.151 -21.421 -17.841  0.00  0.00    +0.144 HD
ATOM     21  H   UNL     1      31.760 -23.011 -18.146  0.00  0.00    +0.144 HD
ENDBRANCH  16  19
ENDBRANCH  12  16
BRANCH   7  22
ATOM     22  C   UNL     1      36.110 -24.334 -11.187  0.00  0.00    +0.096 C 
BRANCH  22  23
ATOM     23  S   UNL     1      37.729 -24.714 -11.905  0.00  0.00    -0.128 S 
BRANCH  23  24
ATOM     24  C   UNL     1      37.325 -26.316 -12.639  0.00  0.00    +0.161 C 
BRANCH  24  28
ATOM     25  F   UNL     1      36.218 -26.187 -14.732  0.00  0.00    -0.169 F 
ATOM     26  F   UNL     1      38.176 -25.227 -14.566  0.00  0.00    -0.169 F 
ATOM     27  F   UNL     1      38.023 -27.399 -14.603  0.00  0.00    -0.169 F 
ATOM     28  C   UNL     1      37.431 -26.273 -14.146  0.00  0.00    +0.408 C 
ENDBRANCH  24  28
ENDBRANCH  23  24
ENDBRANCH  22  23
ENDBRANCH   7  22
TORSDOF 6
ENDMDL
MODEL 5
REMARK VINA RESULT:      -8.5      6.024      7.041
REMARK  Name = 15671
REMARK  6 active torsions:
REMARK  status: ('A' for Active; 'I' for Inactive)
REMARK    1  A    between atoms: C_7  and  C_22
REMARK    2  A    between atoms: C_12  and  S_16
REMARK    3  A    between atoms: S_16  and  N_19
REMARK    4  A    between atoms: C_22  and  S_23
REMARK    5  A    between atoms: S_23  and  C_24
REMARK    6  A    between atoms: C_24  and  C_28
REMARK                            x       y       z     vdW  Elec       q    Type
REMARK                         _______ _______ _______ _____ _____    ______ ____
ROOT
ATOM      1 CL   UNL     1      36.504 -23.170 -13.208  0.00  0.00    -0.081 Cl
ATOM      2  S   UNL     1      33.629 -22.648 -18.746  0.00  0.00    +0.063 S 
ATOM      3  O   UNL     1      32.299 -22.139 -18.476  0.00  0.00    -0.153 OA
ATOM      4  O   UNL     1      33.839 -23.896 -19.453  0.00  0.00    -0.153 OA
ATOM      5  N   UNL     1      34.541 -21.406 -19.486  0.00  0.00    -0.162 NA
ATOM      6  N   UNL     1      36.496 -21.679 -18.066  0.00  0.00    -0.319 N 
ATOM      7  C   UNL     1      36.009 -21.595 -19.431  0.00  0.00    +0.158 C 
ATOM      8  C   UNL     1      34.476 -22.803 -17.205  0.00  0.00    +0.136 C 
ATOM      9  C   UNL     1      35.784 -22.315 -17.060  0.00  0.00    +0.065 C 
ATOM     10  C   UNL     1      33.783 -23.405 -16.150  0.00  0.00    +0.042 C 
ATOM     11  C   UNL     1      36.373 -22.444 -15.791  0.00  0.00    +0.028 C 
ATOM     12  C   UNL     1      34.399 -23.529 -14.909  0.00  0.00    +0.134 C 
ATOM     13  C   UNL     1      35.693 -23.048 -14.728  0.00  0.00    +0.078 C 
ATOM     14  H   UNL     1      34.317 -20.528 -19.020  0.00  0.00    +0.151 HD
ATOM     15  H   UNL     1      37.363 -21.270 -17.846  0.00  0.00    +0.148 HD
ENDROOT
BRANCH  12  16
ATOM     16  S   UNL     1      33.500 -24.293 -13.614  0.00  0.00    +0.058 S 
ATOM     17  O   UNL     1      32.666 -25.334 -14.194  0.00  0.00    -0.153 OA
ATOM     18  O   UNL     1      34.429 -24.617 -12.543  0.00  0.00    -0.153 OA
BRANCH  16  19
ATOM     19  N   UNL     1      32.505 -23.000 -13.111  0.00  0.00    -0.203 NA
ATOM     20  H   UNL     1      31.694 -23.369 -12.615  0.00  0.00    +0.144 HD
ATOM     21  H   UNL     1      32.194 -22.473 -13.927  0.00  0.00    +0.144 HD
ENDBRANCH  16  19
ENDBRANCH  12  16
BRANCH   7  22
ATOM     22  C   UNL     1      36.677 -20.423 -20.139  0.00  0.00    +0.096 C 
BRANCH  22  23
ATOM     23  S   UNL     1      35.426 -19.287 -20.793  0.00  0.00    -0.128 S 
BRANCH  23  24
ATOM     24  C   UNL     1      36.236 -18.869 -22.354  0.00  0.00    +0.161 C 
BRANCH  24  28
ATOM     25  F   UNL     1      35.545 -17.739 -24.321  0.00  0.00    -0.169 F 
ATOM     26  F   UNL     1      35.147 -19.886 -24.199  0.00  0.00    -0.169 F 
ATOM     27  F   UNL     1      34.003 -18.491 -22.978  0.00  0.00    -0.169 F 
ATOM     28  C   UNL     1      35.234 -18.747 -23.478  0.00  0.00    +0.408 C 
ENDBRANCH  24  28
ENDBRANCH  23  24
ENDBRANCH  22  23
ENDBRANCH   7  22
TORSDOF 6
ENDMDL
MODEL 6
REMARK VINA RESULT:      -8.1      5.562      6.547
REMARK  Name = 15671
REMARK  6 active torsions:
REMARK  status: ('A' for Active; 'I' for Inactive)
REMARK    1  A    between atoms: C_7  and  C_22
REMARK    2  A    between atoms: C_12  and  S_16
REMARK    3  A    between atoms: S_16  and  N_19
REMARK    4  A    between atoms: C_22  and  S_23
REMARK    5  A    between atoms: S_23  and  C_24
REMARK    6  A    between atoms: C_24  and  C_28
REMARK                            x       y       z     vdW  Elec       q    Type
REMARK                         _______ _______ _______ _____ _____    ______ ____
ROOT
ATOM      1 CL   UNL     1      30.132 -23.544 -16.483  0.00  0.00    -0.081 Cl
ATOM      2  S   UNL     1      36.344 -22.851 -16.111  0.00  0.00    +0.063 S 
ATOM      3  O   UNL     1      36.874 -24.115 -15.640  0.00  0.00    -0.153 OA
ATOM      4  O   UNL     1      36.591 -21.609 -15.405  0.00  0.00    -0.153 OA
ATOM      5  N   UNL     1      36.764 -22.670 -17.758  0.00  0.00    -0.162 NA
ATOM      6  N   UNL     1      34.541 -22.014 -18.492  0.00  0.00    -0.319 N 
ATOM      7  C   UNL     1      35.954 -21.680 -18.502  0.00  0.00    +0.158 C 
ATOM      8  C   UNL     1      34.590 -23.009 -16.235  0.00  0.00    +0.136 C 
ATOM      9  C   UNL     1      33.916 -22.572 -17.387  0.00  0.00    +0.065 C 
ATOM     10  C   UNL     1      33.921 -23.601 -15.159  0.00  0.00    +0.042 C 
ATOM     11  C   UNL     1      32.526 -22.768 -17.422  0.00  0.00    +0.028 C 
ATOM     12  C   UNL     1      32.542 -23.769 -15.220  0.00  0.00    +0.134 C 
ATOM     13  C   UNL     1      31.844 -23.355 -16.351  0.00  0.00    +0.078 C 
ATOM     14  H   UNL     1      36.655 -23.576 -18.214  0.00  0.00    +0.151 HD
ATOM     15  H   UNL     1      34.007 -21.838 -19.300  0.00  0.00    +0.148 HD
ENDROOT
BRANCH  12  16
ATOM     16  S   UNL     1      31.740 -24.510 -13.850  0.00  0.00    +0.058 S 
ATOM     17  O   UNL     1      31.030 -23.469 -13.123  0.00  0.00    -0.153 OA
ATOM     18  O   UNL     1      31.024 -25.685 -14.322  0.00  0.00    -0.153 OA
BRANCH  16  19
ATOM     19  N   UNL     1      33.085 -25.015 -12.927  0.00  0.00    -0.203 NA
ATOM     20  H   UNL     1      32.803 -25.767 -12.300  0.00  0.00    +0.144 HD
ATOM     21  H   UNL     1      33.435 -24.229 -12.380  0.00  0.00    +0.144 HD
ENDBRANCH  16  19
ENDBRANCH  12  16
BRANCH   7  22
ATOM     22  C   UNL     1      36.454 -21.623 -19.939  0.00  0.00    +0.096 C 
BRANCH  22  23
ATOM     23  S   UNL     1      36.583 -19.903 -20.494  0.00  0.00    -0.128 S 
BRANCH  23  24
ATOM     24  C   UNL     1      34.999 -19.783 -21.358  0.00  0.00    +0.161 C 
BRANCH  24  28
ATOM     25  F   UNL     1      34.667 -19.419 -23.678  0.00  0.00    -0.169 F 
ATOM     26  F   UNL     1      34.347 -17.723 -22.334  0.00  0.00    -0.169 F 
ATOM     27  F   UNL     1      36.365 -18.444 -22.722  0.00  0.00    -0.169 F 
ATOM     28  C   UNL     1      35.084 -18.837 -22.534  0.00  0.00    +0.408 C 
ENDBRANCH  24  28
ENDBRANCH  23  24
ENDBRANCH  22  23
ENDBRANCH   7  22
TORSDOF 6
ENDMDL
MODEL 7
REMARK VINA RESULT:      -7.9     12.863     14.556
REMARK  Name = 15671
REMARK  6 active torsions:
REMARK  status: ('A' for Active; 'I' for Inactive)
REMARK    1  A    between atoms: C_7  and  C_22
REMARK    2  A    between atoms: C_12  and  S_16
REMARK    3  A    between atoms: S_16  and  N_19
REMARK    4  A    between atoms: C_22  and  S_23
REMARK    5  A    between atoms: S_23  and  C_24
REMARK    6  A    between atoms: C_24  and  C_28
REMARK                            x       y       z     vdW  Elec       q    Type
REMARK                         _______ _______ _______ _____ _____    ______ ____
ROOT
ATOM      1 CL   UNL     1      33.200 -14.610 -26.763  0.00  0.00    -0.081 Cl
ATOM      2  S   UNL     1      33.086 -14.804 -20.506  0.00  0.00    +0.063 S 
ATOM      3  O   UNL     1      34.441 -15.086 -20.075  0.00  0.00    -0.153 OA
ATOM      4  O   UNL     1      31.974 -15.653 -20.127  0.00  0.00    -0.153 OA
ATOM      5  N   UNL     1      32.726 -13.178 -20.122  0.00  0.00    -0.162 NA
ATOM      6  N   UNL     1      31.794 -12.630 -22.300  0.00  0.00    -0.319 N 
ATOM      7  C   UNL     1      31.581 -12.602 -20.865  0.00  0.00    +0.158 C 
ATOM      8  C   UNL     1      33.079 -14.735 -22.270  0.00  0.00    +0.136 C 
ATOM      9  C   UNL     1      32.439 -13.679 -22.937  0.00  0.00    +0.065 C 
ATOM     10  C   UNL     1      33.749 -15.754 -22.955  0.00  0.00    +0.042 C 
ATOM     11  C   UNL     1      32.511 -13.678 -24.340  0.00  0.00    +0.028 C 
ATOM     12  C   UNL     1      33.791 -15.730 -24.344  0.00  0.00    +0.134 C 
ATOM     13  C   UNL     1      33.174 -14.693 -25.038  0.00  0.00    +0.078 C 
ATOM     14  H   UNL     1      33.551 -12.614 -20.326  0.00  0.00    +0.151 HD
ATOM     15  H   UNL     1      31.469 -11.874 -22.842  0.00  0.00    +0.148 HD
ENDROOT
BRANCH  12  16
ATOM     16  S   UNL     1      34.637 -17.026 -25.166  0.00  0.00    +0.058 S 
ATOM     17  O   UNL     1      33.649 -17.984 -25.639  0.00  0.00    -0.153 OA
ATOM     18  O   UNL     1      35.581 -16.434 -26.101  0.00  0.00    -0.153 OA
BRANCH  16  19
ATOM     19  N   UNL     1      35.503 -17.717 -23.867  0.00  0.00    -0.203 NA
ATOM     20  H   UNL     1      35.190 -17.300 -22.990  0.00  0.00    +0.144 HD
ATOM     21  H   UNL     1      36.499 -17.541 -23.991  0.00  0.00    +0.144 HD
ENDBRANCH  16  19
ENDBRANCH  12  16
BRANCH   7  22
ATOM     22  C   UNL     1      31.378 -11.164 -20.406  0.00  0.00    +0.096 C 
BRANCH  22  23
ATOM     23  S   UNL     1      31.876 -10.010 -21.711  0.00  0.00    -0.128 S 
BRANCH  23  24
ATOM     24  C   UNL     1      32.329  -8.606 -20.666  0.00  0.00    +0.161 C 
BRANCH  24  28
ATOM     25  F   UNL     1      32.199  -6.240 -20.600  0.00  0.00    -0.169 F 
ATOM     26  F   UNL     1      33.300  -7.144 -22.260  0.00  0.00    -0.169 F 
ATOM     27  F   UNL     1      31.127  -7.279 -22.187  0.00  0.00    -0.169 F 
ATOM     28  C   UNL     1      32.248  -7.304 -21.429  0.00  0.00    +0.408 C 
ENDBRANCH  24  28
ENDBRANCH  23  24
ENDBRANCH  22  23
ENDBRANCH   7  22
TORSDOF 6
ENDMDL
MODEL 8
REMARK VINA RESULT:      -7.7     13.878     15.036
REMARK  Name = 15671
REMARK  6 active torsions:
REMARK  status: ('A' for Active; 'I' for Inactive)
REMARK    1  A    between atoms: C_7  and  C_22
REMARK    2  A    between atoms: C_12  and  S_16
REMARK    3  A    between atoms: S_16  and  N_19
REMARK    4  A    between atoms: C_22  and  S_23
REMARK    5  A    between atoms: S_23  and  C_24
REMARK    6  A    between atoms: C_24  and  C_28
REMARK                            x       y       z     vdW  Elec       q    Type
REMARK                         _______ _______ _______ _____ _____    ______ ____
ROOT
ATOM      1 CL   UNL     1      34.587  -7.100 -24.565  0.00  0.00    -0.081 Cl
ATOM      2  S   UNL     1      31.586 -11.809 -21.733  0.00  0.00    +0.063 S 
ATOM      3  O   UNL     1      30.169 -11.536 -21.864  0.00  0.00    -0.153 OA
ATOM      4  O   UNL     1      32.211 -11.993 -20.438  0.00  0.00    -0.153 OA
ATOM      5  N   UNL     1      31.978 -13.123 -22.753  0.00  0.00    -0.162 NA
ATOM      6  N   UNL     1      33.934 -12.071 -23.742  0.00  0.00    -0.319 N 
ATOM      7  C   UNL     1      33.417 -13.253 -23.076  0.00  0.00    +0.158 C 
ATOM      8  C   UNL     1      32.468 -10.502 -22.528  0.00  0.00    +0.136 C 
ATOM      9  C   UNL     1      33.519 -10.789 -23.412  0.00  0.00    +0.065 C 
ATOM     10  C   UNL     1      32.061  -9.193 -22.253  0.00  0.00    +0.042 C 
ATOM     11  C   UNL     1      34.145  -9.695 -24.032  0.00  0.00    +0.028 C 
ATOM     12  C   UNL     1      32.710  -8.131 -22.873  0.00  0.00    +0.134 C 
ATOM     13  C   UNL     1      33.750  -8.380 -23.763  0.00  0.00    +0.078 C 
ATOM     14  H   UNL     1      31.466 -13.009 -23.627  0.00  0.00    +0.151 HD
ATOM     15  H   UNL     1      34.603 -12.184 -24.455  0.00  0.00    +0.148 HD
ENDROOT
BRANCH  12  16
ATOM     16  S   UNL     1      32.172  -6.505 -22.500  0.00  0.00    +0.058 S 
ATOM     17  O   UNL     1      32.414  -6.261 -21.087  0.00  0.00    -0.153 OA
ATOM     18  O   UNL     1      32.722  -5.603 -23.499  0.00  0.00    -0.153 OA
BRANCH  16  19
ATOM     19  N   UNL     1      30.491  -6.658 -22.758  0.00  0.00    -0.203 NA
ATOM     20  H   UNL     1      29.990  -6.112 -22.057  0.00  0.00    +0.144 HD
ATOM     21  H   UNL     1      30.223  -7.638 -22.680  0.00  0.00    +0.144 HD
ENDBRANCH  16  19
ENDBRANCH  12  16
BRANCH   7  22
ATOM     22  C   UNL     1      33.606 -14.468 -23.974  0.00  0.00    +0.096 C 
BRANCH  22  23
ATOM     23  S   UNL     1      34.579 -15.736 -23.121  0.00  0.00    -0.128 S 
BRANCH  23  24
ATOM     24  C   UNL     1      34.625 -16.970 -24.441  0.00  0.00    +0.161 C 
BRANCH  24  28
ATOM     25  F   UNL     1      36.205 -18.541 -23.630  0.00  0.00    -0.169 F 
ATOM     26  F   UNL     1      34.201 -18.585 -22.757  0.00  0.00    -0.169 F 
ATOM     27  F   UNL     1      34.522 -19.291 -24.792  0.00  0.00    -0.169 F 
ATOM     28  C   UNL     1      34.895 -18.353 -23.892  0.00  0.00    +0.408 C 
ENDBRANCH  24  28
ENDBRANCH  23  24
ENDBRANCH  22  23
ENDBRANCH   7  22
TORSDOF 6
ENDMDL
MODEL 9
REMARK VINA RESULT:      -7.7     10.923     12.075
REMARK  Name = 15671
REMARK  6 active torsions:
REMARK  status: ('A' for Active; 'I' for Inactive)
REMARK    1  A    between atoms: C_7  and  C_22
REMARK    2  A    between atoms: C_12  and  S_16
REMARK    3  A    between atoms: S_16  and  N_19
REMARK    4  A    between atoms: C_22  and  S_23
REMARK    5  A    between atoms: S_23  and  C_24
REMARK    6  A    between atoms: C_24  and  C_28
REMARK                            x       y       z     vdW  Elec       q    Type
REMARK                         _______ _______ _______ _____ _____    ______ ____
ROOT
ATOM      1 CL   UNL     1      33.053  -9.999 -24.418  0.00  0.00    -0.081 Cl
ATOM      2  S   UNL     1      33.158 -15.444 -21.328  0.00  0.00    +0.063 S 
ATOM      3  O   UNL     1      31.794 -15.716 -20.921  0.00  0.00    -0.153 OA
ATOM      4  O   UNL     1      34.240 -15.366 -20.366  0.00  0.00    -0.153 OA
ATOM      5  N   UNL     1      33.576 -16.534 -22.576  0.00  0.00    -0.162 NA
ATOM      6  N   UNL     1      34.528 -14.847 -24.046  0.00  0.00    -0.319 N 
ATOM      7  C   UNL     1      34.741 -16.127 -23.395  0.00  0.00    +0.158 C 
ATOM      8  C   UNL     1      33.169 -13.915 -22.211  0.00  0.00    +0.136 C 
ATOM      9  C   UNL     1      33.846 -13.805 -23.435  0.00  0.00    +0.065 C 
ATOM     10  C   UNL     1      32.463 -12.846 -21.650  0.00  0.00    +0.042 C 
ATOM     11  C   UNL     1      33.774 -12.566 -24.092  0.00  0.00    +0.028 C 
ATOM     12  C   UNL     1      32.423 -11.627 -22.319  0.00  0.00    +0.134 C 
ATOM     13  C   UNL     1      33.076 -11.487 -23.540  0.00  0.00    +0.078 C 
ATOM     14  H   UNL     1      32.772 -16.630 -23.195  0.00  0.00    +0.151 HD
ATOM     15  H   UNL     1      34.879 -14.714 -24.956  0.00  0.00    +0.148 HD
ENDROOT
BRANCH  12  16
ATOM     16  S   UNL     1      31.532 -10.311 -21.583  0.00  0.00    +0.058 S 
ATOM     17  O   UNL     1      32.490  -9.325 -21.108  0.00  0.00    -0.153 OA
ATOM     18  O   UNL     1      30.470  -9.913 -22.493  0.00  0.00    -0.153 OA
BRANCH  16  19
ATOM     19  N   UNL     1      30.840 -11.105 -20.239  0.00  0.00    -0.203 NA
ATOM     20  H   UNL     1      31.525 -11.156 -19.485  0.00  0.00    +0.144 HD
ATOM     21  H   UNL     1      30.560 -12.048 -20.508  0.00  0.00    +0.144 HD
ENDBRANCH  16  19
ENDBRANCH  12  16
BRANCH   7  22
ATOM     22  C   UNL     1      34.995 -17.199 -24.447  0.00  0.00    +0.096 C 
BRANCH  22  23
ATOM     23  S   UNL     1      35.082 -18.834 -23.671  0.00  0.00    -0.128 S 
BRANCH  23  24
ATOM     24  C   UNL     1      36.469 -18.525 -22.553  0.00  0.00    +0.161 C 
BRANCH  24  28
ATOM     25  F   UNL     1      37.140 -19.481 -20.490  0.00  0.00    -0.169 F 
ATOM     26  F   UNL     1      35.758 -17.788 -20.414  0.00  0.00    -0.169 F 
ATOM     27  F   UNL     1      35.066 -19.733 -21.107  0.00  0.00    -0.169 F 
ATOM     28  C   UNL     1      36.114 -18.879 -21.127  0.00  0.00    +0.408 C 
ENDBRANCH  24  28
ENDBRANCH  23  24
ENDBRANCH  22  23
ENDBRANCH   7  22
TORSDOF 6
ENDMDL
