MODEL 1
REMARK VINA RESULT:     -10.6      0.000      0.000
REMARK  Name = 9947999
REMARK  2 active torsions:
REMARK  status: ('A' for Active; 'I' for Inactive)
REMARK    1  A    between atoms: C_1  and  C_13
REMARK    2  A    between atoms: C_4  and  N_19
REMARK                            x       y       z     vdW  Elec       q    Type
REMARK                         _______ _______ _______ _____ _____    ______ ____
ROOT
ATOM      1  C   UNL     1      35.104 -17.127 -21.613  0.00  0.00    +0.044 C 
ATOM      2  C   UNL     1      34.530 -16.056 -20.668  0.00  0.00    +0.007 C 
ATOM      3  C   UNL     1      34.695 -14.672 -21.273  0.00  0.00    -0.017 C 
ATOM      4  C   UNL     1      33.867 -14.556 -22.558  0.00  0.00    -0.043 C 
ATOM      5  C   UNL     1      34.684 -16.928 -23.067  0.00  0.00    -0.024 C 
ATOM      6  C   UNL     1      34.108 -15.716 -23.513  0.00  0.00    -0.046 C 
ATOM      7  C   UNL     1      34.933 -17.950 -24.006  0.00  0.00    -0.004 C 
ATOM      8  C   UNL     1      33.698 -15.616 -24.857  0.00  0.00    -0.007 C 
ATOM      9  C   UNL     1      34.551 -17.816 -25.339  0.00  0.00    -0.000 C 
ATOM     10  C   UNL     1      33.921 -16.655 -25.761  0.00  0.00    -0.000 C 
ENDROOT
BRANCH   1  13
ATOM     11 CL   UNL     1      36.848 -21.623 -19.686  0.00  0.00    -0.081 Cl
ATOM     12 CL   UNL     1      33.768 -22.567 -19.373  0.00  0.00    -0.081 Cl
ATOM     13  C   UNL     1      34.783 -18.506 -21.045  0.00  0.00    -0.018 C 
ATOM     14  C   UNL     1      35.818 -19.351 -20.664  0.00  0.00    +0.008 C 
ATOM     15  C   UNL     1      33.457 -18.903 -20.916  0.00  0.00    -0.003 C 
ATOM     16  C   UNL     1      35.524 -20.611 -20.144  0.00  0.00    +0.068 C 
ATOM     17  C   UNL     1      33.164 -20.164 -20.396  0.00  0.00    +0.012 C 
ATOM     18  C   UNL     1      34.196 -21.018 -20.010  0.00  0.00    +0.068 C 
ENDBRANCH   1  13
BRANCH   4  19
ATOM     19  N   UNL     1      34.165 -13.238 -23.129  0.00  0.00    +0.384 N 
ATOM     20  H   UNL     1      33.396 -12.947 -23.733  0.00  0.00    -0.089 HD
ATOM     21  H   UNL     1      35.025 -13.291 -23.675  0.00  0.00    -0.089 HD
ATOM     22  H   UNL     1      34.282 -12.559 -22.377  0.00  0.00    -0.089 HD
ENDBRANCH   4  19
TORSDOF 2
ENDMDL
MODEL 2
REMARK VINA RESULT:     -10.5      1.389      3.242
REMARK  Name = 9947999
REMARK  2 active torsions:
REMARK  status: ('A' for Active; 'I' for Inactive)
REMARK    1  A    between atoms: C_1  and  C_13
REMARK    2  A    between atoms: C_4  and  N_19
REMARK                            x       y       z     vdW  Elec       q    Type
REMARK                         _______ _______ _______ _____ _____    ______ ____
ROOT
ATOM      1  C   UNL     1      34.267 -18.801 -22.413  0.00  0.00    +0.044 C 
ATOM      2  C   UNL     1      34.898 -19.220 -23.753  0.00  0.00    +0.007 C 
ATOM      3  C   UNL     1      34.393 -18.332 -24.877  0.00  0.00    -0.017 C 
ATOM      4  C   UNL     1      34.852 -16.885 -24.654  0.00  0.00    -0.043 C 
ATOM      5  C   UNL     1      34.281 -17.290 -22.192  0.00  0.00    -0.024 C 
ATOM      6  C   UNL     1      34.549 -16.389 -23.247  0.00  0.00    -0.046 C 
ATOM      7  C   UNL     1      33.955 -16.774 -20.921  0.00  0.00    -0.004 C 
ATOM      8  C   UNL     1      34.595 -15.010 -22.964  0.00  0.00    -0.007 C 
ATOM      9  C   UNL     1      33.972 -15.403 -20.671  0.00  0.00    -0.000 C 
ATOM     10  C   UNL     1      34.306 -14.523 -21.690  0.00  0.00    -0.000 C 
ENDROOT
BRANCH   1  13
ATOM     11 CL   UNL     1      33.728 -22.336 -18.646  0.00  0.00    -0.081 Cl
ATOM     12 CL   UNL     1      36.877 -21.972 -17.994  0.00  0.00    -0.081 Cl
ATOM     13  C   UNL     1      34.912 -19.610 -21.292  0.00  0.00    -0.018 C 
ATOM     14  C   UNL     1      34.140 -20.501 -20.556  0.00  0.00    +0.008 C 
ATOM     15  C   UNL     1      36.265 -19.447 -21.019  0.00  0.00    -0.003 C 
ATOM     16  C   UNL     1      34.731 -21.241 -19.531  0.00  0.00    +0.068 C 
ATOM     17  C   UNL     1      36.854 -20.187 -19.994  0.00  0.00    +0.012 C 
ATOM     18  C   UNL     1      36.088 -21.084 -19.250  0.00  0.00    +0.068 C 
ENDBRANCH   1  13
BRANCH   4  19
ATOM     19  N   UNL     1      34.236 -16.083 -25.717  0.00  0.00    +0.384 N 
ATOM     20  H   UNL     1      33.679 -16.689 -26.321  0.00  0.00    -0.089 HD
ATOM     21  H   UNL     1      34.966 -15.632 -26.269  0.00  0.00    -0.089 HD
ATOM     22  H   UNL     1      33.635 -15.372 -25.302  0.00  0.00    -0.089 HD
ENDBRANCH   4  19
TORSDOF 2
ENDMDL
MODEL 3
REMARK VINA RESULT:      -9.8      0.821      1.645
REMARK  Name = 9947999
REMARK  2 active torsions:
REMARK  status: ('A' for Active; 'I' for Inactive)
REMARK    1  A    between atoms: C_1  and  C_13
REMARK    2  A    between atoms: C_4  and  N_19
REMARK                            x       y       z     vdW  Elec       q    Type
REMARK                         _______ _______ _______ _____ _____    ______ ____
ROOT
ATOM      1  C   UNL     1      35.317 -16.746 -21.766  0.00  0.00    +0.044 C 
ATOM      2  C   UNL     1      34.635 -15.809 -20.754  0.00  0.00    +0.007 C 
ATOM      3  C   UNL     1      34.509 -14.408 -21.330  0.00  0.00    -0.017 C 
ATOM      4  C   UNL     1      33.581 -14.421 -22.551  0.00  0.00    -0.043 C 
ATOM      5  C   UNL     1      34.763 -16.602 -23.182  0.00  0.00    -0.024 C 
ATOM      6  C   UNL     1      33.953 -15.505 -23.552  0.00  0.00    -0.046 C 
ATOM      7  C   UNL     1      35.119 -17.550 -24.164  0.00  0.00    -0.004 C 
ATOM      8  C   UNL     1      33.434 -15.459 -24.862  0.00  0.00    -0.007 C 
ATOM      9  C   UNL     1      34.623 -17.465 -25.463  0.00  0.00    -0.000 C 
ATOM     10  C   UNL     1      33.769 -16.428 -25.807  0.00  0.00    -0.000 C 
ENDROOT
BRANCH   1  13
ATOM     11 CL   UNL     1      32.493 -20.820 -20.216  0.00  0.00    -0.081 Cl
ATOM     12 CL   UNL     1      35.263 -22.373 -19.591  0.00  0.00    -0.081 Cl
ATOM     13  C   UNL     1      35.286 -18.169 -21.216  0.00  0.00    -0.018 C 
ATOM     14  C   UNL     1      34.065 -18.791 -20.986  0.00  0.00    +0.008 C 
ATOM     15  C   UNL     1      36.481 -18.827 -20.949  0.00  0.00    -0.003 C 
ATOM     16  C   UNL     1      34.038 -20.092 -20.484  0.00  0.00    +0.068 C 
ATOM     17  C   UNL     1      36.453 -20.128 -20.447  0.00  0.00    +0.012 C 
ATOM     18  C   UNL     1      35.232 -20.760 -20.214  0.00  0.00    +0.068 C 
ENDBRANCH   1  13
BRANCH   4  19
ATOM     19  N   UNL     1      33.601 -13.063 -23.104  0.00  0.00    +0.384 N 
ATOM     20  H   UNL     1      34.540 -12.673 -23.015  0.00  0.00    -0.089 HD
ATOM     21  H   UNL     1      32.940 -12.477 -22.593  0.00  0.00    -0.089 HD
ATOM     22  H   UNL     1      33.337 -13.092 -24.089  0.00  0.00    -0.089 HD
ENDBRANCH   4  19
TORSDOF 2
ENDMDL
MODEL 4
REMARK VINA RESULT:      -9.4      1.182      3.141
REMARK  Name = 9947999
REMARK  2 active torsions:
REMARK  status: ('A' for Active; 'I' for Inactive)
REMARK    1  A    between atoms: C_1  and  C_13
REMARK    2  A    between atoms: C_4  and  N_19
REMARK                            x       y       z     vdW  Elec       q    Type
REMARK                         _______ _______ _______ _____ _____    ______ ____
ROOT
ATOM      1  C   UNL     1      34.069 -18.004 -22.627  0.00  0.00    +0.044 C 
ATOM      2  C   UNL     1      34.922 -17.968 -23.908  0.00  0.00    +0.007 C 
ATOM      3  C   UNL     1      34.375 -16.937 -24.881  0.00  0.00    -0.017 C 
ATOM      4  C   UNL     1      34.496 -15.530 -24.282  0.00  0.00    -0.043 C 
ATOM      5  C   UNL     1      33.744 -16.613 -22.087  0.00  0.00    -0.024 C 
ATOM      6  C   UNL     1      33.938 -15.451 -22.868  0.00  0.00    -0.046 C 
ATOM      7  C   UNL     1      33.174 -16.485 -20.803  0.00  0.00    -0.004 C 
ATOM      8  C   UNL     1      33.664 -14.195 -22.291  0.00  0.00    -0.007 C 
ATOM      9  C   UNL     1      32.878 -15.234 -20.266  0.00  0.00    -0.000 C 
ATOM     10  C   UNL     1      33.136 -14.089 -21.005  0.00  0.00    -0.000 C 
ENDROOT
BRANCH   1  13
ATOM     11 CL   UNL     1      33.594 -21.915 -19.243  0.00  0.00    -0.081 Cl
ATOM     12 CL   UNL     1      36.765 -21.652 -18.651  0.00  0.00    -0.081 Cl
ATOM     13  C   UNL     1      34.736 -18.934 -21.619  0.00  0.00    -0.018 C 
ATOM     14  C   UNL     1      33.975 -19.891 -20.959  0.00  0.00    +0.008 C 
ATOM     15  C   UNL     1      36.098 -18.813 -21.370  0.00  0.00    -0.003 C 
ATOM     16  C   UNL     1      34.585 -20.742 -20.036  0.00  0.00    +0.068 C 
ATOM     17  C   UNL     1      36.708 -19.664 -20.447  0.00  0.00    +0.012 C 
ATOM     18  C   UNL     1      35.952 -20.628 -19.781  0.00  0.00    +0.068 C 
ENDBRANCH   1  13
BRANCH   4  19
ATOM     19  N   UNL     1      33.852 -14.616 -25.232  0.00  0.00    +0.384 N 
ATOM     20  H   UNL     1      34.285 -13.695 -25.164  0.00  0.00    -0.089 HD
ATOM     21  H   UNL     1      32.859 -14.542 -25.013  0.00  0.00    -0.089 HD
ATOM     22  H   UNL     1      33.965 -14.975 -26.180  0.00  0.00    -0.089 HD
ENDBRANCH   4  19
TORSDOF 2
ENDMDL
MODEL 5
REMARK VINA RESULT:      -9.3      3.920      6.208
REMARK  Name = 9947999
REMARK  2 active torsions:
REMARK  status: ('A' for Active; 'I' for Inactive)
REMARK    1  A    between atoms: C_1  and  C_13
REMARK    2  A    between atoms: C_4  and  N_19
REMARK                            x       y       z     vdW  Elec       q    Type
REMARK                         _______ _______ _______ _____ _____    ______ ____
ROOT
ATOM      1  C   UNL     1      35.502 -18.090 -21.463  0.00  0.00    +0.044 C 
ATOM      2  C   UNL     1      36.903 -18.654 -21.759  0.00  0.00    +0.007 C 
ATOM      3  C   UNL     1      37.386 -19.510 -20.600  0.00  0.00    -0.017 C 
ATOM      4  C   UNL     1      36.485 -20.741 -20.443  0.00  0.00    -0.043 C 
ATOM      5  C   UNL     1      34.543 -19.137 -20.900  0.00  0.00    -0.024 C 
ATOM      6  C   UNL     1      35.006 -20.381 -20.414  0.00  0.00    -0.046 C 
ATOM      7  C   UNL     1      33.169 -18.834 -20.799  0.00  0.00    -0.004 C 
ATOM      8  C   UNL     1      34.063 -21.321 -19.954  0.00  0.00    -0.007 C 
ATOM      9  C   UNL     1      32.258 -19.766 -20.308  0.00  0.00    -0.000 C 
ATOM     10  C   UNL     1      32.704 -21.014 -19.898  0.00  0.00    -0.000 C 
ENDROOT
BRANCH   1  13
ATOM     11 CL   UNL     1      33.804 -13.681 -23.621  0.00  0.00    -0.081 Cl
ATOM     12 CL   UNL     1      33.487 -15.290 -26.411  0.00  0.00    -0.081 Cl
ATOM     13  C   UNL     1      34.991 -17.367 -22.705  0.00  0.00    -0.018 C 
ATOM     14  C   UNL     1      34.664 -16.019 -22.630  0.00  0.00    +0.008 C 
ATOM     15  C   UNL     1      34.856 -18.067 -23.899  0.00  0.00    -0.003 C 
ATOM     16  C   UNL     1      34.197 -15.358 -23.767  0.00  0.00    +0.068 C 
ATOM     17  C   UNL     1      34.389 -17.405 -25.035  0.00  0.00    +0.012 C 
ATOM     18  C   UNL     1      34.060 -16.052 -24.969  0.00  0.00    +0.068 C 
ENDBRANCH   1  13
BRANCH   4  19
ATOM     19  N   UNL     1      36.952 -21.450 -19.247  0.00  0.00    +0.384 N 
ATOM     20  H   UNL     1      36.317 -21.262 -18.471  0.00  0.00    -0.089 HD
ATOM     21  H   UNL     1      37.889 -21.129 -19.005  0.00  0.00    -0.089 HD
ATOM     22  H   UNL     1      36.974 -22.453 -19.432  0.00  0.00    -0.089 HD
ENDBRANCH   4  19
TORSDOF 2
ENDMDL
MODEL 6
REMARK VINA RESULT:      -9.0      5.163      7.279
REMARK  Name = 9947999
REMARK  2 active torsions:
REMARK  status: ('A' for Active; 'I' for Inactive)
REMARK    1  A    between atoms: C_1  and  C_13
REMARK    2  A    between atoms: C_4  and  N_19
REMARK                            x       y       z     vdW  Elec       q    Type
REMARK                         _______ _______ _______ _____ _____    ______ ____
ROOT
ATOM      1  C   UNL     1      32.662 -13.972 -22.408  0.00  0.00    +0.044 C 
ATOM      2  C   UNL     1      33.214 -14.151 -20.982  0.00  0.00    +0.007 C 
ATOM      3  C   UNL     1      33.328 -15.626 -20.639  0.00  0.00    -0.017 C 
ATOM      4  C   UNL     1      34.357 -16.303 -21.553  0.00  0.00    -0.043 C 
ATOM      5  C   UNL     1      33.328 -14.895 -23.427  0.00  0.00    -0.024 C 
ATOM      6  C   UNL     1      34.120 -15.994 -23.024  0.00  0.00    -0.046 C 
ATOM      7  C   UNL     1      33.098 -14.686 -24.802  0.00  0.00    -0.004 C 
ATOM      8  C   UNL     1      34.746 -16.776 -24.016  0.00  0.00    -0.007 C 
ATOM      9  C   UNL     1      33.700 -15.493 -25.765  0.00  0.00    -0.000 C 
ATOM     10  C   UNL     1      34.535 -16.529 -25.372  0.00  0.00    -0.000 C 
ENDROOT
BRANCH   1  13
ATOM     11 CL   UNL     1      34.991 -10.136 -25.020  0.00  0.00    -0.081 Cl
ATOM     12 CL   UNL     1      32.786  -8.105 -23.802  0.00  0.00    -0.081 Cl
ATOM     13  C   UNL     1      32.707 -12.492 -22.770  0.00  0.00    -0.018 C 
ATOM     14  C   UNL     1      33.698 -12.022 -23.624  0.00  0.00    +0.008 C 
ATOM     15  C   UNL     1      31.756 -11.626 -22.241  0.00  0.00    -0.003 C 
ATOM     16  C   UNL     1      33.739 -10.668 -23.955  0.00  0.00    +0.068 C 
ATOM     17  C   UNL     1      31.798 -10.272 -22.573  0.00  0.00    +0.012 C 
ATOM     18  C   UNL     1      32.788  -9.793 -23.429  0.00  0.00    +0.068 C 
ENDBRANCH   1  13
BRANCH   4  19
ATOM     19  N   UNL     1      34.326 -17.734 -21.229  0.00  0.00    +0.384 N 
ATOM     20  H   UNL     1      33.478 -17.945 -20.702  0.00  0.00    -0.089 HD
ATOM     21  H   UNL     1      35.143 -17.973 -20.668  0.00  0.00    -0.089 HD
ATOM     22  H   UNL     1      34.334 -18.279 -22.091  0.00  0.00    -0.089 HD
ENDBRANCH   4  19
TORSDOF 2
ENDMDL
MODEL 7
REMARK VINA RESULT:      -8.9      8.609     10.904
REMARK  Name = 9947999
REMARK  2 active torsions:
REMARK  status: ('A' for Active; 'I' for Inactive)
REMARK    1  A    between atoms: C_1  and  C_13
REMARK    2  A    between atoms: C_4  and  N_19
REMARK                            x       y       z     vdW  Elec       q    Type
REMARK                         _______ _______ _______ _____ _____    ______ ____
ROOT
ATOM      1  C   UNL     1      32.860  -7.141 -22.682  0.00  0.00    +0.044 C 
ATOM      2  C   UNL     1      31.717  -7.170 -21.652  0.00  0.00    +0.007 C 
ATOM      3  C   UNL     1      31.297  -5.756 -21.286  0.00  0.00    -0.017 C 
ATOM      4  C   UNL     1      30.711  -5.046 -22.513  0.00  0.00    -0.043 C 
ATOM      5  C   UNL     1      32.615  -6.151 -23.818  0.00  0.00    -0.024 C 
ATOM      6  C   UNL     1      31.609  -5.162 -23.736  0.00  0.00    -0.046 C 
ATOM      7  C   UNL     1      33.453  -6.179 -24.953  0.00  0.00    -0.004 C 
ATOM      8  C   UNL     1      31.403  -4.312 -24.841  0.00  0.00    -0.007 C 
ATOM      9  C   UNL     1      33.254  -5.305 -26.019  0.00  0.00    -0.000 C 
ATOM     10  C   UNL     1      32.220  -4.381 -25.969  0.00  0.00    -0.000 C 
ENDROOT
BRANCH   1  13
ATOM     11 CL   UNL     1      35.710 -10.354 -25.601  0.00  0.00    -0.081 Cl
ATOM     12 CL   UNL     1      33.947 -12.808 -24.441  0.00  0.00    -0.081 Cl
ATOM     13  C   UNL     1      33.147  -8.568 -23.137  0.00  0.00    -0.018 C 
ATOM     14  C   UNL     1      34.168  -8.807 -24.049  0.00  0.00    +0.008 C 
ATOM     15  C   UNL     1      32.384  -9.616 -22.634  0.00  0.00    -0.003 C 
ATOM     16  C   UNL     1      34.430 -10.112 -24.465  0.00  0.00    +0.068 C 
ATOM     17  C   UNL     1      32.647 -10.921 -23.050  0.00  0.00    +0.012 C 
ATOM     18  C   UNL     1      33.670 -11.169 -23.965  0.00  0.00    +0.068 C 
ENDBRANCH   1  13
BRANCH   4  19
ATOM     19  N   UNL     1      30.433  -3.665 -22.102  0.00  0.00    +0.384 N 
ATOM     20  H   UNL     1      31.276  -3.254 -21.700  0.00  0.00    -0.089 HD
ATOM     21  H   UNL     1      29.688  -3.661 -21.406  0.00  0.00    -0.089 HD
ATOM     22  H   UNL     1      30.143  -3.120 -22.914  0.00  0.00    -0.089 HD
ENDBRANCH   4  19
TORSDOF 2
ENDMDL
MODEL 8
REMARK VINA RESULT:      -8.9      4.636      8.018
REMARK  Name = 9947999
REMARK  2 active torsions:
REMARK  status: ('A' for Active; 'I' for Inactive)
REMARK    1  A    between atoms: C_1  and  C_13
REMARK    2  A    between atoms: C_4  and  N_19
REMARK                            x       y       z     vdW  Elec       q    Type
REMARK                         _______ _______ _______ _____ _____    ______ ____
ROOT
ATOM      1  C   UNL     1      34.233 -22.518 -18.468  0.00  0.00    +0.044 C 
ATOM      2  C   UNL     1      32.786 -22.625 -17.953  0.00  0.00    +0.007 C 
ATOM      3  C   UNL     1      32.687 -23.679 -16.864  0.00  0.00    -0.017 C 
ATOM      4  C   UNL     1      33.515 -23.257 -15.644  0.00  0.00    -0.043 C 
ATOM      5  C   UNL     1      35.266 -22.484 -17.344  0.00  0.00    -0.024 C 
ATOM      6  C   UNL     1      34.930 -22.838 -16.018  0.00  0.00    -0.046 C 
ATOM      7  C   UNL     1      36.604 -22.155 -17.644  0.00  0.00    -0.004 C 
ATOM      8  C   UNL     1      35.920 -22.738 -15.019  0.00  0.00    -0.007 C 
ATOM      9  C   UNL     1      37.575 -22.096 -16.647  0.00  0.00    -0.000 C 
ATOM     10  C   UNL     1      37.229 -22.374 -15.332  0.00  0.00    -0.000 C 
ENDROOT
BRANCH   1  13
ATOM     11 CL   UNL     1      37.221 -19.238 -21.167  0.00  0.00    -0.081 Cl
ATOM     12 CL   UNL     1      34.517 -17.896 -22.333  0.00  0.00    -0.081 Cl
ATOM     13  C   UNL     1      34.322 -21.350 -19.444  0.00  0.00    -0.018 C 
ATOM     14  C   UNL     1      35.567 -20.868 -19.829  0.00  0.00    +0.008 C 
ATOM     15  C   UNL     1      33.155 -20.779 -19.939  0.00  0.00    -0.003 C 
ATOM     16  C   UNL     1      35.648 -19.800 -20.722  0.00  0.00    +0.068 C 
ATOM     17  C   UNL     1      33.236 -19.710 -20.832  0.00  0.00    +0.012 C 
ATOM     18  C   UNL     1      34.482 -19.221 -21.224  0.00  0.00    +0.068 C 
ENDBRANCH   1  13
BRANCH   4  19
ATOM     19  N   UNL     1      33.452 -24.371 -14.691  0.00  0.00    +0.384 N 
ATOM     20  H   UNL     1      33.274 -25.240 -15.195  0.00  0.00    -0.089 HD
ATOM     21  H   UNL     1      32.700 -24.205 -14.023  0.00  0.00    -0.089 HD
ATOM     22  H   UNL     1      34.339 -24.443 -14.192  0.00  0.00    -0.089 HD
ENDBRANCH   4  19
TORSDOF 2
ENDMDL
MODEL 9
REMARK VINA RESULT:      -8.6      8.693     10.917
REMARK  Name = 9947999
REMARK  2 active torsions:
REMARK  status: ('A' for Active; 'I' for Inactive)
REMARK    1  A    between atoms: C_1  and  C_13
REMARK    2  A    between atoms: C_4  and  N_19
REMARK                            x       y       z     vdW  Elec       q    Type
REMARK                         _______ _______ _______ _____ _____    ______ ____
ROOT
ATOM      1  C   UNL     1      32.078  -6.580 -22.335  0.00  0.00    +0.044 C 
ATOM      2  C   UNL     1      30.679  -5.945 -22.244  0.00  0.00    +0.007 C 
ATOM      3  C   UNL     1      30.725  -4.494 -22.693  0.00  0.00    -0.017 C 
ATOM      4  C   UNL     1      31.105  -4.413 -24.177  0.00  0.00    -0.043 C 
ATOM      5  C   UNL     1      32.796  -6.260 -23.645  0.00  0.00    -0.024 C 
ATOM      6  C   UNL     1      32.342  -5.236 -24.507  0.00  0.00    -0.046 C 
ATOM      7  C   UNL     1      33.978  -6.955 -23.974  0.00  0.00    -0.004 C 
ATOM      8  C   UNL     1      33.021  -5.025 -25.724  0.00  0.00    -0.007 C 
ATOM      9  C   UNL     1      34.654  -6.706 -25.166  0.00  0.00    -0.000 C 
ATOM     10  C   UNL     1      34.167  -5.750 -26.047  0.00  0.00    -0.000 C 
ENDROOT
BRANCH   1  13
ATOM     11 CL   UNL     1      31.869 -10.343 -18.762  0.00  0.00    -0.081 Cl
ATOM     12 CL   UNL     1      31.617 -12.482 -21.177  0.00  0.00    -0.081 Cl
ATOM     13  C   UNL     1      31.962  -8.069 -22.026  0.00  0.00    -0.018 C 
ATOM     14  C   UNL     1      31.966  -8.499 -20.704  0.00  0.00    +0.008 C 
ATOM     15  C   UNL     1      31.856  -8.981 -23.070  0.00  0.00    -0.003 C 
ATOM     16  C   UNL     1      31.860  -9.861 -20.421  0.00  0.00    +0.068 C 
ATOM     17  C   UNL     1      31.750 -10.343 -22.786  0.00  0.00    +0.012 C 
ATOM     18  C   UNL     1      31.752 -10.783 -21.463  0.00  0.00    +0.068 C 
ENDBRANCH   1  13
BRANCH   4  19
ATOM     19  N   UNL     1      31.231  -2.987 -24.498  0.00  0.00    +0.384 N 
ATOM     20  H   UNL     1      32.177  -2.672 -24.282  0.00  0.00    -0.089 HD
ATOM     21  H   UNL     1      30.560  -2.453 -23.946  0.00  0.00    -0.089 HD
ATOM     22  H   UNL     1      31.044  -2.843 -25.491  0.00  0.00    -0.089 HD
ENDBRANCH   4  19
TORSDOF 2
ENDMDL
