MODEL 1
REMARK VINA RESULT:      -9.7      0.000      0.000
REMARK  Name = 11567473
REMARK  5 active torsions:
REMARK  status: ('A' for Active; 'I' for Inactive)
REMARK    1  A    between atoms: N_3  and  C_24
REMARK    2  A    between atoms: C_4  and  N_14
REMARK    3  A    between atoms: C_6  and  C_32
REMARK    4  A    between atoms: C_11  and  C_28
REMARK    5  A    between atoms: C_28  and  O_29
REMARK                            x       y       z     vdW  Elec       q    Type
REMARK                         _______ _______ _______ _____ _____    ______ ____
ROOT
ATOM      1  F   UNL     1      34.634 -12.143 -25.924  0.00  0.00    -0.203 F 
ATOM      2  O   UNL     1      33.087  -7.656 -24.250  0.00  0.00    -0.286 OA
ATOM      3  N   UNL     1      31.820 -10.335 -21.449  0.00  0.00    -0.287 N 
ATOM      4  C   UNL     1      33.520 -12.634 -23.885  0.00  0.00    +0.087 C 
ATOM      5  C   UNL     1      32.534 -10.826 -22.579  0.00  0.00    +0.066 C 
ATOM      6  C   UNL     1      32.815 -12.190 -22.763  0.00  0.00    +0.098 C 
ATOM      7  C   UNL     1      32.985  -9.921 -23.564  0.00  0.00    +0.056 C 
ATOM      8  C   UNL     1      31.577  -8.980 -21.332  0.00  0.00    +0.075 C 
ATOM      9  C   UNL     1      33.956 -11.725 -24.845  0.00  0.00    +0.154 C 
ATOM     10  C   UNL     1      33.691 -10.367 -24.688  0.00  0.00    +0.035 C 
ATOM     11  C   UNL     1      31.959  -8.040 -22.205  0.00  0.00    +0.129 C 
ATOM     12  C   UNL     1      32.711  -8.468 -23.413  0.00  0.00    +0.204 C 
ENDROOT
BRANCH   4  14
ATOM     13  O   UNL     1      33.514 -17.210 -25.622  0.00  0.00    -0.359 OA
ATOM     14  N   UNL     1      33.804 -13.967 -24.079  0.00  0.00    -0.305 N 
ATOM     15  N   UNL     1      35.393 -17.209 -23.442  0.00  0.00    +0.390 N 
ATOM     16  C   UNL     1      34.384 -16.182 -23.645  0.00  0.00    -0.012 C 
ATOM     17  C   UNL     1      34.126 -16.027 -25.138  0.00  0.00    +0.117 C 
ATOM     18  C   UNL     1      34.721 -14.750 -23.237  0.00  0.00    +0.072 C 
ATOM     19  C   UNL     1      33.248 -14.780 -25.170  0.00  0.00    +0.118 C 
ATOM     20  C   UNL     1      34.880 -18.470 -24.002  0.00  0.00    -0.049 C 
ATOM     21  C   UNL     1      34.427 -18.310 -25.462  0.00  0.00    +0.119 C 
ATOM     22  H   UNL     1      35.576 -17.322 -22.445  0.00  0.00    -0.084 HD
ATOM     23  H   UNL     1      36.265 -16.945 -23.903  0.00  0.00    -0.084 HD
ENDBRANCH   4  14
BRANCH   3  24
ATOM     24  C   UNL     1      31.290 -11.171 -20.344  0.00  0.00    +0.077 C 
ATOM     25  C   UNL     1      31.802 -11.005 -18.954  0.00  0.00    +0.022 C 
ATOM     26  C   UNL     1      30.406 -10.581 -19.300  0.00  0.00    +0.022 C 
ENDBRANCH   3  24
BRANCH  11  28
ATOM     27  O   UNL     1      31.934  -6.043 -20.915  0.00  0.00    -0.245 OA
ATOM     28  C   UNL     1      31.613  -6.645 -21.923  0.00  0.00    +0.342 C 
BRANCH  28  29
ATOM     29  O   UNL     1      30.890  -6.143 -22.947  0.00  0.00    -0.477 OA
ATOM     30  H   UNL     1      29.964  -6.280 -22.979  0.00  0.00    +0.295 HD
ENDBRANCH  28  29
ENDBRANCH  11  28
BRANCH   6  32
ATOM     31  N   UNL     1      32.094 -14.045 -21.105  0.00  0.00    -0.191 NA
ATOM     32  C   UNL     1      32.415 -13.217 -21.844  0.00  0.00    +0.103 C 
ENDBRANCH   6  32
TORSDOF 5
ENDMDL
MODEL 2
REMARK VINA RESULT:      -8.7      3.578      6.129
REMARK  Name = 11567473
REMARK  5 active torsions:
REMARK  status: ('A' for Active; 'I' for Inactive)
REMARK    1  A    between atoms: N_3  and  C_24
REMARK    2  A    between atoms: C_4  and  N_14
REMARK    3  A    between atoms: C_6  and  C_32
REMARK    4  A    between atoms: C_11  and  C_28
REMARK    5  A    between atoms: C_28  and  O_29
REMARK                            x       y       z     vdW  Elec       q    Type
REMARK                         _______ _______ _______ _____ _____    ______ ____
ROOT
ATOM      1  F   UNL     1      34.901 -19.534 -24.481  0.00  0.00    -0.203 F 
ATOM      2  O   UNL     1      33.761 -15.347 -27.030  0.00  0.00    -0.286 OA
ATOM      3  N   UNL     1      33.680 -14.260 -23.101  0.00  0.00    -0.287 N 
ATOM      4  C   UNL     1      34.578 -17.894 -22.794  0.00  0.00    +0.087 C 
ATOM      5  C   UNL     1      33.994 -15.611 -23.422  0.00  0.00    +0.066 C 
ATOM      6  C   UNL     1      34.273 -16.577 -22.441  0.00  0.00    +0.098 C 
ATOM      7  C   UNL     1      34.030 -16.016 -24.773  0.00  0.00    +0.056 C 
ATOM      8  C   UNL     1      33.414 -13.362 -24.117  0.00  0.00    +0.075 C 
ATOM      9  C   UNL     1      34.609 -18.272 -24.134  0.00  0.00    +0.154 C 
ATOM     10  C   UNL     1      34.335 -17.335 -25.127  0.00  0.00    +0.035 C 
ATOM     11  C   UNL     1      33.422 -13.640 -25.427  0.00  0.00    +0.129 C 
ATOM     12  C   UNL     1      33.740 -15.029 -25.847  0.00  0.00    +0.204 C 
ENDROOT
BRANCH   4  14
ATOM     13  O   UNL     1      34.097 -21.314 -19.325  0.00  0.00    -0.359 OA
ATOM     14  N   UNL     1      34.855 -18.851 -21.844  0.00  0.00    -0.305 N 
ATOM     15  N   UNL     1      36.932 -20.976 -19.695  0.00  0.00    +0.390 N 
ATOM     16  C   UNL     1      35.934 -20.014 -20.137  0.00  0.00    -0.012 C 
ATOM     17  C   UNL     1      34.656 -20.756 -20.502  0.00  0.00    +0.117 C 
ATOM     18  C   UNL     1      36.211 -19.224 -21.413  0.00  0.00    +0.072 C 
ATOM     19  C   UNL     1      33.833 -19.649 -21.152  0.00  0.00    +0.118 C 
ATOM     20  C   UNL     1      36.397 -21.678 -18.517  0.00  0.00    -0.049 C 
ATOM     21  C   UNL     1      35.012 -22.284 -18.786  0.00  0.00    +0.119 C 
ATOM     22  H   UNL     1      37.794 -20.490 -19.448  0.00  0.00    -0.084 HD
ATOM     23  H   UNL     1      37.137 -21.641 -20.441  0.00  0.00    -0.084 HD
ENDBRANCH   4  14
BRANCH   3  24
ATOM     24  C   UNL     1      33.607 -13.702 -21.728  0.00  0.00    +0.077 C 
ATOM     25  C   UNL     1      32.897 -12.419 -21.467  0.00  0.00    +0.022 C 
ATOM     26  C   UNL     1      32.324 -13.712 -20.971  0.00  0.00    +0.022 C 
ENDBRANCH   3  24
BRANCH  11  28
ATOM     27  O   UNL     1      33.473 -11.407 -26.240  0.00  0.00    -0.245 OA
ATOM     28  C   UNL     1      33.112 -12.563 -26.369  0.00  0.00    +0.342 C 
BRANCH  28  29
ATOM     29  O   UNL     1      32.374 -13.052 -27.388  0.00  0.00    -0.477 OA
ATOM     30  H   UNL     1      31.773 -13.753 -27.237  0.00  0.00    +0.295 HD
ENDBRANCH  28  29
ENDBRANCH  11  28
BRANCH   6  32
ATOM     31  N   UNL     1      34.267 -16.088 -19.896  0.00  0.00    -0.191 NA
ATOM     32  C   UNL     1      34.270 -16.306 -21.031  0.00  0.00    +0.103 C 
ENDBRANCH   6  32
TORSDOF 5
ENDMDL
MODEL 3
REMARK VINA RESULT:      -8.1      2.800      4.389
REMARK  Name = 11567473
REMARK  5 active torsions:
REMARK  status: ('A' for Active; 'I' for Inactive)
REMARK    1  A    between atoms: N_3  and  C_24
REMARK    2  A    between atoms: C_4  and  N_14
REMARK    3  A    between atoms: C_6  and  C_32
REMARK    4  A    between atoms: C_11  and  C_28
REMARK    5  A    between atoms: C_28  and  O_29
REMARK                            x       y       z     vdW  Elec       q    Type
REMARK                         _______ _______ _______ _____ _____    ______ ____
ROOT
ATOM      1  F   UNL     1      32.218 -15.056 -19.205  0.00  0.00    -0.203 F 
ATOM      2  O   UNL     1      31.035 -10.375 -20.627  0.00  0.00    -0.286 OA
ATOM      3  N   UNL     1      33.276 -11.884 -23.681  0.00  0.00    -0.287 N 
ATOM      4  C   UNL     1      33.247 -14.815 -21.332  0.00  0.00    +0.087 C 
ATOM      5  C   UNL     1      33.024 -12.716 -22.554  0.00  0.00    +0.066 C 
ATOM      6  C   UNL     1      33.516 -14.028 -22.455  0.00  0.00    +0.098 C 
ATOM      7  C   UNL     1      32.250 -12.220 -21.482  0.00  0.00    +0.056 C 
ATOM      8  C   UNL     1      32.761 -10.602 -23.712  0.00  0.00    +0.075 C 
ATOM      9  C   UNL     1      32.481 -14.307 -20.285  0.00  0.00    +0.154 C 
ATOM     10  C   UNL     1      31.981 -13.009 -20.357  0.00  0.00    +0.035 C 
ATOM     11  C   UNL     1      32.018 -10.036 -22.753  0.00  0.00    +0.129 C 
ATOM     12  C   UNL     1      31.708 -10.837 -21.541  0.00  0.00    +0.204 C 
ENDROOT
BRANCH   4  14
ATOM     13  O   UNL     1      33.496 -19.682 -20.882  0.00  0.00    -0.359 OA
ATOM     14  N   UNL     1      33.722 -16.102 -21.221  0.00  0.00    -0.305 N 
ATOM     15  N   UNL     1      36.225 -18.767 -20.942  0.00  0.00    +0.390 N 
ATOM     16  C   UNL     1      35.086 -17.907 -20.663  0.00  0.00    -0.012 C 
ATOM     17  C   UNL     1      33.873 -18.427 -21.422  0.00  0.00    +0.117 C 
ATOM     18  C   UNL     1      35.147 -16.455 -21.129  0.00  0.00    +0.072 C 
ATOM     19  C   UNL     1      32.869 -17.299 -21.207  0.00  0.00    +0.118 C 
ATOM     20  C   UNL     1      35.890 -20.128 -20.494  0.00  0.00    -0.049 C 
ATOM     21  C   UNL     1      34.564 -20.623 -21.093  0.00  0.00    +0.119 C 
ATOM     22  H   UNL     1      37.045 -18.428 -20.439  0.00  0.00    -0.084 HD
ATOM     23  H   UNL     1      36.434 -18.764 -21.941  0.00  0.00    -0.084 HD
ENDBRANCH   4  14
BRANCH   3  24
ATOM     24  C   UNL     1      34.070 -12.277 -24.872  0.00  0.00    +0.077 C 
ATOM     25  C   UNL     1      33.493 -12.159 -26.240  0.00  0.00    +0.022 C 
ATOM     26  C   UNL     1      34.599 -11.244 -25.806  0.00  0.00    +0.022 C 
ENDBRANCH   3  24
BRANCH  11  28
ATOM     27  O   UNL     1      31.118  -8.222 -23.998  0.00  0.00    -0.245 OA
ATOM     28  C   UNL     1      31.557  -8.661 -22.950  0.00  0.00    +0.342 C 
BRANCH  28  29
ATOM     29  O   UNL     1      31.694  -7.968 -21.800  0.00  0.00    -0.477 OA
ATOM     30  H   UNL     1      31.211  -7.176 -21.669  0.00  0.00    +0.295 HD
ENDBRANCH  28  29
ENDBRANCH  11  28
BRANCH   6  32
ATOM     31  N   UNL     1      34.960 -15.165 -24.281  0.00  0.00    -0.191 NA
ATOM     32  C   UNL     1      34.316 -14.657 -23.467  0.00  0.00    +0.103 C 
ENDBRANCH   6  32
TORSDOF 5
ENDMDL
MODEL 4
REMARK VINA RESULT:      -7.6      2.796      7.996
REMARK  Name = 11567473
REMARK  5 active torsions:
REMARK  status: ('A' for Active; 'I' for Inactive)
REMARK    1  A    between atoms: N_3  and  C_24
REMARK    2  A    between atoms: C_4  and  N_14
REMARK    3  A    between atoms: C_6  and  C_32
REMARK    4  A    between atoms: C_11  and  C_28
REMARK    5  A    between atoms: C_28  and  O_29
REMARK                            x       y       z     vdW  Elec       q    Type
REMARK                         _______ _______ _______ _____ _____    ______ ____
ROOT
ATOM      1  F   UNL     1      31.519 -10.438 -20.323  0.00  0.00    -0.203 F 
ATOM      2  O   UNL     1      32.326 -15.338 -19.506  0.00  0.00    -0.286 OA
ATOM      3  N   UNL     1      33.574 -14.675 -23.330  0.00  0.00    -0.287 N 
ATOM      4  C   UNL     1      32.441 -11.226 -22.365  0.00  0.00    +0.087 C 
ATOM      5  C   UNL     1      33.055 -13.575 -22.589  0.00  0.00    +0.066 C 
ATOM      6  C   UNL     1      32.956 -12.280 -23.124  0.00  0.00    +0.098 C 
ATOM      7  C   UNL     1      32.616 -13.775 -21.263  0.00  0.00    +0.056 C 
ATOM      8  C   UNL     1      33.642 -15.923 -22.742  0.00  0.00    +0.075 C 
ATOM      9  C   UNL     1      32.013 -11.445 -21.058  0.00  0.00    +0.154 C 
ATOM     10  C   UNL     1      32.099 -12.719 -20.502  0.00  0.00    +0.035 C 
ATOM     11  C   UNL     1      33.255 -16.220 -21.495  0.00  0.00    +0.129 C 
ATOM     12  C   UNL     1      32.700 -15.129 -20.653  0.00  0.00    +0.204 C 
ENDROOT
BRANCH   4  14
ATOM     13  O   UNL     1      30.677  -7.107 -24.335  0.00  0.00    -0.359 OA
ATOM     14  N   UNL     1      32.338  -9.951 -22.875  0.00  0.00    -0.305 N 
ATOM     15  N   UNL     1      33.495  -6.647 -23.967  0.00  0.00    +0.390 N 
ATOM     16  C   UNL     1      32.880  -7.965 -23.967  0.00  0.00    -0.012 C 
ATOM     17  C   UNL     1      31.463  -7.852 -23.421  0.00  0.00    +0.117 C 
ATOM     18  C   UNL     1      33.478  -9.040 -23.064  0.00  0.00    +0.072 C 
ATOM     19  C   UNL     1      31.073  -9.320 -23.275  0.00  0.00    +0.118 C 
ATOM     20  C   UNL     1      32.687  -5.767 -24.827  0.00  0.00    -0.049 C 
ATOM     21  C   UNL     1      31.204  -5.771 -24.425  0.00  0.00    +0.119 C 
ATOM     22  H   UNL     1      34.446  -6.709 -24.330  0.00  0.00    -0.084 HD
ATOM     23  H   UNL     1      33.534  -6.276 -23.017  0.00  0.00    -0.084 HD
ENDBRANCH   4  14
BRANCH   3  24
ATOM     24  C   UNL     1      34.069 -14.605 -24.727  0.00  0.00    +0.077 C 
ATOM     25  C   UNL     1      34.492 -15.840 -25.445  0.00  0.00    +0.022 C 
ATOM     26  C   UNL     1      33.240 -15.122 -25.853  0.00  0.00    +0.022 C 
ENDBRANCH   3  24
BRANCH  11  28
ATOM     27  O   UNL     1      34.444 -18.222 -21.014  0.00  0.00    -0.245 OA
ATOM     28  C   UNL     1      33.395 -17.603 -21.034  0.00  0.00    +0.342 C 
BRANCH  28  29
ATOM     29  O   UNL     1      32.192 -18.073 -20.640  0.00  0.00    -0.477 OA
ATOM     30  H   UNL     1      32.123 -18.586 -19.860  0.00  0.00    +0.295 HD
ENDBRANCH  28  29
ENDBRANCH  11  28
BRANCH   6  32
ATOM     31  N   UNL     1      33.688 -11.656 -25.529  0.00  0.00    -0.191 NA
ATOM     32  C   UNL     1      33.362 -11.935 -24.457  0.00  0.00    +0.103 C 
ENDBRANCH   6  32
TORSDOF 5
ENDMDL
MODEL 5
REMARK VINA RESULT:      -7.6      1.858      3.432
REMARK  Name = 11567473
REMARK  5 active torsions:
REMARK  status: ('A' for Active; 'I' for Inactive)
REMARK    1  A    between atoms: N_3  and  C_24
REMARK    2  A    between atoms: C_4  and  N_14
REMARK    3  A    between atoms: C_6  and  C_32
REMARK    4  A    between atoms: C_11  and  C_28
REMARK    5  A    between atoms: C_28  and  O_29
REMARK                            x       y       z     vdW  Elec       q    Type
REMARK                         _______ _______ _______ _____ _____    ______ ____
ROOT
ATOM      1  F   UNL     1      31.945 -13.661 -20.867  0.00  0.00    -0.203 F 
ATOM      2  O   UNL     1      31.034  -8.881 -19.584  0.00  0.00    -0.286 OA
ATOM      3  N   UNL     1      33.133  -8.668 -23.073  0.00  0.00    -0.287 N 
ATOM      4  C   UNL     1      32.956 -12.390 -22.599  0.00  0.00    +0.087 C 
ATOM      5  C   UNL     1      32.846  -9.954 -22.535  0.00  0.00    +0.066 C 
ATOM      6  C   UNL     1      33.258 -11.145 -23.157  0.00  0.00    +0.098 C 
ATOM      7  C   UNL     1      32.120 -10.059 -21.329  0.00  0.00    +0.056 C 
ATOM      8  C   UNL     1      32.698  -7.538 -22.408  0.00  0.00    +0.075 C 
ATOM      9  C   UNL     1      32.239 -12.471 -21.408  0.00  0.00    +0.154 C 
ATOM     10  C   UNL     1      31.819 -11.306 -20.770  0.00  0.00    +0.035 C 
ATOM     11  C   UNL     1      32.006  -7.525 -21.262  0.00  0.00    +0.129 C 
ATOM     12  C   UNL     1      31.664  -8.826 -20.633  0.00  0.00    +0.204 C 
ENDROOT
BRANCH   4  14
ATOM     13  O   UNL     1      33.227 -16.246 -25.602  0.00  0.00    -0.359 OA
ATOM     14  N   UNL     1      33.352 -13.565 -23.198  0.00  0.00    -0.305 N 
ATOM     15  N   UNL     1      35.325 -16.620 -23.665  0.00  0.00    +0.390 N 
ATOM     16  C   UNL     1      34.200 -15.717 -23.480  0.00  0.00    -0.012 C 
ATOM     17  C   UNL     1      33.765 -15.180 -24.837  0.00  0.00    +0.117 C 
ATOM     18  C   UNL     1      34.431 -14.429 -22.695  0.00  0.00    +0.072 C 
ATOM     19  C   UNL     1      32.766 -14.100 -24.435  0.00  0.00    +0.118 C 
ATOM     20  C   UNL     1      34.884 -17.726 -24.532  0.00  0.00    -0.049 C 
ATOM     21  C   UNL     1      34.260 -17.218 -25.841  0.00  0.00    +0.119 C 
ATOM     22  H   UNL     1      35.626 -16.986 -22.762  0.00  0.00    -0.084 HD
ATOM     23  H   UNL     1      36.109 -16.126 -24.092  0.00  0.00    -0.084 HD
ENDBRANCH   4  14
BRANCH   3  24
ATOM     24  C   UNL     1      33.884  -8.415 -24.328  0.00  0.00    +0.077 C 
ATOM     25  C   UNL     1      33.979  -7.039 -24.891  0.00  0.00    +0.022 C 
ATOM     26  C   UNL     1      35.190  -7.698 -24.300  0.00  0.00    +0.022 C 
ENDBRANCH   3  24
BRANCH  11  28
ATOM     27  O   UNL     1      30.739  -5.518 -21.123  0.00  0.00    -0.245 OA
ATOM     28  C   UNL     1      31.628  -6.230 -20.692  0.00  0.00    +0.342 C 
BRANCH  28  29
ATOM     29  O   UNL     1      32.412  -5.958 -19.628  0.00  0.00    -0.477 OA
ATOM     30  H   UNL     1      32.202  -5.242 -19.061  0.00  0.00    +0.295 HD
ENDBRANCH  28  29
ENDBRANCH  11  28
BRANCH   6  32
ATOM     31  N   UNL     1      34.602 -11.221 -25.371  0.00  0.00    -0.191 NA
ATOM     32  C   UNL     1      34.003 -11.187 -24.384  0.00  0.00    +0.103 C 
ENDBRANCH   6  32
TORSDOF 5
ENDMDL
MODEL 6
REMARK VINA RESULT:      -7.5      7.583     12.040
REMARK  Name = 11567473
REMARK  5 active torsions:
REMARK  status: ('A' for Active; 'I' for Inactive)
REMARK    1  A    between atoms: N_3  and  C_24
REMARK    2  A    between atoms: C_4  and  N_14
REMARK    3  A    between atoms: C_6  and  C_32
REMARK    4  A    between atoms: C_11  and  C_28
REMARK    5  A    between atoms: C_28  and  O_29
REMARK                            x       y       z     vdW  Elec       q    Type
REMARK                         _______ _______ _______ _____ _____    ______ ____
ROOT
ATOM      1  F   UNL     1      37.901 -19.728 -20.060  0.00  0.00    -0.203 F 
ATOM      2  O   UNL     1      37.967 -22.654 -15.966  0.00  0.00    -0.286 OA
ATOM      3  N   UNL     1      34.130 -22.821 -17.335  0.00  0.00    -0.287 N 
ATOM      4  C   UNL     1      35.672 -20.526 -19.878  0.00  0.00    +0.087 C 
ATOM      5  C   UNL     1      35.068 -22.024 -18.051  0.00  0.00    +0.066 C 
ATOM      6  C   UNL     1      34.723 -21.298 -19.202  0.00  0.00    +0.098 C 
ATOM      7  C   UNL     1      36.404 -21.948 -17.600  0.00  0.00    +0.056 C 
ATOM      8  C   UNL     1      34.539 -23.510 -16.210  0.00  0.00    +0.075 C 
ATOM      9  C   UNL     1      36.985 -20.465 -19.417  0.00  0.00    +0.154 C 
ATOM     10  C   UNL     1      37.355 -21.175 -18.277  0.00  0.00    +0.035 C 
ATOM     11  C   UNL     1      35.776 -23.507 -15.699  0.00  0.00    +0.129 C 
ATOM     12  C   UNL     1      36.817 -22.699 -16.385  0.00  0.00    +0.204 C 
ENDROOT
BRANCH   4  14
ATOM     13  O   UNL     1      34.785 -19.278 -24.527  0.00  0.00    -0.359 OA
ATOM     14  N   UNL     1      35.349 -19.809 -21.008  0.00  0.00    -0.305 N 
ATOM     15  N   UNL     1      34.427 -16.868 -22.994  0.00  0.00    +0.390 N 
ATOM     16  C   UNL     1      35.139 -18.040 -22.510  0.00  0.00    -0.012 C 
ATOM     17  C   UNL     1      34.525 -19.287 -23.134  0.00  0.00    +0.117 C 
ATOM     18  C   UNL     1      35.063 -18.366 -21.021  0.00  0.00    +0.072 C 
ATOM     19  C   UNL     1      35.220 -20.396 -22.350  0.00  0.00    +0.118 C 
ATOM     20  C   UNL     1      34.563 -16.824 -24.459  0.00  0.00    -0.049 C 
ATOM     21  C   UNL     1      34.130 -18.142 -25.118  0.00  0.00    +0.119 C 
ATOM     22  H   UNL     1      34.829 -16.025 -22.582  0.00  0.00    -0.084 HD
ATOM     23  H   UNL     1      33.442 -16.919 -22.731  0.00  0.00    -0.084 HD
ENDBRANCH   4  14
BRANCH   3  24
ATOM     24  C   UNL     1      32.701 -22.989 -17.697  0.00  0.00    +0.077 C 
ATOM     25  C   UNL     1      31.836 -23.945 -16.950  0.00  0.00    +0.022 C 
ATOM     26  C   UNL     1      31.626 -22.467 -16.808  0.00  0.00    +0.022 C 
ENDBRANCH   3  24
BRANCH  11  28
ATOM     27  O   UNL     1      35.433 -24.161 -13.439  0.00  0.00    -0.245 OA
ATOM     28  C   UNL     1      36.033 -24.294 -14.491  0.00  0.00    +0.342 C 
BRANCH  28  29
ATOM     29  O   UNL     1      37.025 -25.178 -14.729  0.00  0.00    -0.477 OA
ATOM     30  H   UNL     1      37.371 -25.272 -15.594  0.00  0.00    +0.295 HD
ENDBRANCH  28  29
ENDBRANCH  11  28
BRANCH   6  32
ATOM     31  N   UNL     1      32.343 -21.270 -20.226  0.00  0.00    -0.191 NA
ATOM     32  C   UNL     1      33.404 -21.282 -19.769  0.00  0.00    +0.103 C 
ENDBRANCH   6  32
TORSDOF 5
ENDMDL
MODEL 7
REMARK VINA RESULT:      -7.2      2.400      3.230
REMARK  Name = 11567473
REMARK  5 active torsions:
REMARK  status: ('A' for Active; 'I' for Inactive)
REMARK    1  A    between atoms: N_3  and  C_24
REMARK    2  A    between atoms: C_4  and  N_14
REMARK    3  A    between atoms: C_6  and  C_32
REMARK    4  A    between atoms: C_11  and  C_28
REMARK    5  A    between atoms: C_28  and  O_29
REMARK                            x       y       z     vdW  Elec       q    Type
REMARK                         _______ _______ _______ _____ _____    ______ ____
ROOT
ATOM      1  F   UNL     1      34.981 -15.759 -24.448  0.00  0.00    -0.203 F 
ATOM      2  O   UNL     1      33.750 -10.951 -25.283  0.00  0.00    -0.286 OA
ATOM      3  N   UNL     1      32.280 -11.801 -21.576  0.00  0.00    -0.287 N 
ATOM      4  C   UNL     1      33.824 -15.103 -22.481  0.00  0.00    +0.087 C 
ATOM      5  C   UNL     1      32.963 -12.830 -22.284  0.00  0.00    +0.066 C 
ATOM      6  C   UNL     1      33.147 -14.119 -21.756  0.00  0.00    +0.098 C 
ATOM      7  C   UNL     1      33.483 -12.564 -23.569  0.00  0.00    +0.056 C 
ATOM      8  C   UNL     1      32.134 -10.555 -22.156  0.00  0.00    +0.075 C 
ATOM      9  C   UNL     1      34.330 -14.820 -23.747  0.00  0.00    +0.154 C 
ATOM     10  C   UNL     1      34.161 -13.551 -24.295  0.00  0.00    +0.035 C 
ATOM     11  C   UNL     1      32.587 -10.199 -23.364  0.00  0.00    +0.129 C 
ATOM     12  C   UNL     1      33.312 -11.215 -24.170  0.00  0.00    +0.204 C 
ENDROOT
BRANCH   4  14
ATOM     13  O   UNL     1      33.037 -19.524 -20.533  0.00  0.00    -0.359 OA
ATOM     14  N   UNL     1      34.013 -16.370 -21.976  0.00  0.00    -0.305 N 
ATOM     15  N   UNL     1      35.887 -19.330 -20.894  0.00  0.00    +0.390 N 
ATOM     16  C   UNL     1      34.989 -18.186 -20.890  0.00  0.00    -0.012 C 
ATOM     17  C   UNL     1      33.636 -18.615 -21.441  0.00  0.00    +0.117 C 
ATOM     18  C   UNL     1      35.329 -17.000 -21.787  0.00  0.00    +0.072 C 
ATOM     19  C   UNL     1      32.923 -17.274 -21.583  0.00  0.00    +0.118 C 
ATOM     20  C   UNL     1      35.298 -20.375 -20.040  0.00  0.00    -0.049 C 
ATOM     21  C   UNL     1      33.854 -20.706 -20.446  0.00  0.00    +0.119 C 
ATOM     22  H   UNL     1      36.798 -19.055 -20.527  0.00  0.00    -0.084 HD
ATOM     23  H   UNL     1      36.012 -19.678 -21.845  0.00  0.00    -0.084 HD
ENDBRANCH   4  14
BRANCH   3  24
ATOM     24  C   UNL     1      31.686 -11.943 -20.224  0.00  0.00    +0.077 C 
ATOM     25  C   UNL     1      31.919 -10.906 -19.180  0.00  0.00    +0.022 C 
ATOM     26  C   UNL     1      30.560 -11.069 -19.792  0.00  0.00    +0.022 C 
ENDBRANCH   3  24
BRANCH  11  28
ATOM     27  O   UNL     1      31.234  -8.353 -24.006  0.00  0.00    -0.245 OA
ATOM     28  C   UNL     1      32.340  -8.832 -23.825  0.00  0.00    +0.342 C 
BRANCH  28  29
ATOM     29  O   UNL     1      33.516  -8.197 -24.015  0.00  0.00    -0.477 OA
ATOM     30  H   UNL     1      34.091  -8.050 -23.291  0.00  0.00    +0.295 HD
ENDBRANCH  28  29
ENDBRANCH  11  28
BRANCH   6  32
ATOM     31  N   UNL     1      32.286 -14.855 -19.426  0.00  0.00    -0.191 NA
ATOM     32  C   UNL     1      32.670 -14.527 -20.465  0.00  0.00    +0.103 C 
ENDBRANCH   6  32
TORSDOF 5
ENDMDL
MODEL 8
REMARK VINA RESULT:      -6.8      1.976      3.556
REMARK  Name = 11567473
REMARK  5 active torsions:
REMARK  status: ('A' for Active; 'I' for Inactive)
REMARK    1  A    between atoms: N_3  and  C_24
REMARK    2  A    between atoms: C_4  and  N_14
REMARK    3  A    between atoms: C_6  and  C_32
REMARK    4  A    between atoms: C_11  and  C_28
REMARK    5  A    between atoms: C_28  and  O_29
REMARK                            x       y       z     vdW  Elec       q    Type
REMARK                         _______ _______ _______ _____ _____    ______ ____
ROOT
ATOM      1  F   UNL     1      32.196 -14.389 -20.485  0.00  0.00    -0.203 F 
ATOM      2  O   UNL     1      31.212  -9.620 -19.214  0.00  0.00    -0.286 OA
ATOM      3  N   UNL     1      33.057  -9.399 -22.844  0.00  0.00    -0.287 N 
ATOM      4  C   UNL     1      33.041 -13.116 -22.302  0.00  0.00    +0.087 C 
ATOM      5  C   UNL     1      32.852 -10.685 -22.268  0.00  0.00    +0.066 C 
ATOM      6  C   UNL     1      33.260 -11.872 -22.899  0.00  0.00    +0.098 C 
ATOM      7  C   UNL     1      32.215 -10.791 -21.013  0.00  0.00    +0.056 C 
ATOM      8  C   UNL     1      32.631  -8.272 -22.167  0.00  0.00    +0.075 C 
ATOM      9  C   UNL     1      32.410 -13.199 -21.063  0.00  0.00    +0.154 C 
ATOM     10  C   UNL     1      31.996 -12.038 -20.415  0.00  0.00    +0.035 C 
ATOM     11  C   UNL     1      32.019  -8.262 -20.976  0.00  0.00    +0.129 C 
ATOM     12  C   UNL     1      31.767  -9.563 -20.306  0.00  0.00    +0.204 C 
ENDROOT
BRANCH   4  14
ATOM     13  O   UNL     1      35.336 -17.323 -23.297  0.00  0.00    -0.359 OA
ATOM     14  N   UNL     1      33.434 -14.288 -22.909  0.00  0.00    -0.305 N 
ATOM     15  N   UNL     1      33.513 -16.896 -25.484  0.00  0.00    +0.390 N 
ATOM     16  C   UNL     1      33.932 -15.854 -24.560  0.00  0.00    -0.012 C 
ATOM     17  C   UNL     1      34.203 -16.477 -23.198  0.00  0.00    +0.117 C 
ATOM     18  C   UNL     1      32.931 -14.758 -24.208  0.00  0.00    +0.072 C 
ATOM     19  C   UNL     1      34.391 -15.239 -22.326  0.00  0.00    +0.118 C 
ATOM     20  C   UNL     1      34.602 -17.883 -25.583  0.00  0.00    -0.049 C 
ATOM     21  C   UNL     1      35.039 -18.399 -24.203  0.00  0.00    +0.119 C 
ATOM     22  H   UNL     1      33.328 -16.491 -26.401  0.00  0.00    -0.084 HD
ATOM     23  H   UNL     1      32.660 -17.344 -25.149  0.00  0.00    -0.084 HD
ENDBRANCH   4  14
BRANCH   3  24
ATOM     24  C   UNL     1      33.711  -9.144 -24.151  0.00  0.00    +0.077 C 
ATOM     25  C   UNL     1      34.131  -7.766 -24.533  0.00  0.00    +0.022 C 
ATOM     26  C   UNL     1      35.161  -8.811 -24.224  0.00  0.00    +0.022 C 
ENDBRANCH   3  24
BRANCH  11  28
ATOM     27  O   UNL     1      31.051  -6.091 -21.006  0.00  0.00    -0.245 OA
ATOM     28  C   UNL     1      31.638  -6.971 -20.401  0.00  0.00    +0.342 C 
BRANCH  28  29
ATOM     29  O   UNL     1      32.035  -6.914 -19.112  0.00  0.00    -0.477 OA
ATOM     30  H   UNL     1      31.453  -7.183 -18.430  0.00  0.00    +0.295 HD
ENDBRANCH  28  29
ENDBRANCH  11  28
BRANCH   6  32
ATOM     31  N   UNL     1      34.450 -11.942 -25.199  0.00  0.00    -0.191 NA
ATOM     32  C   UNL     1      33.920 -11.911 -24.173  0.00  0.00    +0.103 C 
ENDBRANCH   6  32
TORSDOF 5
ENDMDL
