MODEL 1
REMARK VINA RESULT:      -9.1      0.000      0.000
REMARK  Name = 242493
REMARK  2 active torsions:
REMARK  status: ('A' for Active; 'I' for Inactive)
REMARK    1  A    between atoms: C_7  and  O_21
REMARK    2  A    between atoms: C_19  and  O_23
REMARK                            x       y       z     vdW  Elec       q    Type
REMARK                         _______ _______ _______ _____ _____    ______ ____
ROOT
ATOM      1  C   UNL     1      34.182 -23.390 -15.307  0.00  0.00    +0.000 C 
ATOM      2  C   UNL     1      32.745 -23.635 -15.788  0.00  0.00    +0.002 C 
ATOM      3  C   UNL     1      34.599 -24.556 -14.352  0.00  0.00    +0.000 C 
ATOM      4  C   UNL     1      31.724 -23.711 -14.632  0.00  0.00    +0.023 C 
ATOM      5  C   UNL     1      36.084 -24.407 -13.854  0.00  0.00    +0.000 C 
ATOM      6  C   UNL     1      36.993 -24.320 -15.122  0.00  0.00    +0.002 C 
ATOM      7  C   UNL     1      30.391 -23.837 -15.433  0.00  0.00    +0.088 C 
ATOM      8  C   UNL     1      33.562 -24.779 -13.220  0.00  0.00    +0.000 C 
ATOM      9  C   UNL     1      32.115 -24.900 -13.738  0.00  0.00    +0.002 C 
ATOM     10  C   UNL     1      35.155 -23.263 -16.488  0.00  0.00    +0.000 C 
ATOM     11  C   UNL     1      32.120 -22.630 -16.749  0.00  0.00    +0.002 C 
ATOM     12  C   UNL     1      36.610 -23.151 -16.036  0.00  0.00    +0.000 C 
ATOM     13  C   UNL     1      30.603 -22.868 -16.627  0.00  0.00    +0.027 C 
ATOM     14  C   UNL     1      36.521 -25.662 -13.047  0.00  0.00    +0.002 C 
ATOM     15  C   UNL     1      38.494 -24.298 -14.784  0.00  0.00    +0.029 C 
ATOM     16  C   UNL     1      31.680 -22.424 -13.758  0.00  0.00    +0.002 C 
ATOM     17  C   UNL     1      36.235 -23.163 -12.943  0.00  0.00    +0.000 C 
ATOM     18  C   UNL     1      38.018 -25.689 -12.714  0.00  0.00    +0.029 C 
ATOM     19  C   UNL     1      38.901 -25.511 -13.947  0.00  0.00    +0.111 C 
ATOM     20  C   UNL     1      30.056 -25.248 -15.933  0.00  0.00    +0.029 C 
ENDROOT
BRANCH   7  21
ATOM     21  O   UNL     1      29.280 -23.407 -14.650  0.00  0.00    -0.387 OA
ATOM     22  H   UNL     1      28.459 -23.749 -15.039  0.00  0.00    +0.210 HD
ENDBRANCH   7  21
BRANCH  19  23
ATOM     23  O   UNL     1      38.815 -26.677 -14.765  0.00  0.00    -0.384 OA
ATOM     24  H   UNL     1      38.219 -27.320 -14.349  0.00  0.00    +0.210 HD
ENDBRANCH  19  23
TORSDOF 2
ENDMDL
MODEL 2
REMARK VINA RESULT:      -8.3     10.734     13.344
REMARK  Name = 242493
REMARK  2 active torsions:
REMARK  status: ('A' for Active; 'I' for Inactive)
REMARK    1  A    between atoms: C_7  and  O_21
REMARK    2  A    between atoms: C_19  and  O_23
REMARK                            x       y       z     vdW  Elec       q    Type
REMARK                         _______ _______ _______ _____ _____    ______ ____
ROOT
ATOM      1  C   UNL     1      33.945 -16.279 -23.847  0.00  0.00    +0.000 C 
ATOM      2  C   UNL     1      34.756 -17.444 -23.265  0.00  0.00    +0.002 C 
ATOM      3  C   UNL     1      34.379 -14.958 -23.135  0.00  0.00    +0.000 C 
ATOM      4  C   UNL     1      34.560 -17.620 -21.743  0.00  0.00    +0.023 C 
ATOM      5  C   UNL     1      33.627 -13.702 -23.714  0.00  0.00    +0.000 C 
ATOM      6  C   UNL     1      33.897 -13.667 -25.252  0.00  0.00    +0.002 C 
ATOM      7  C   UNL     1      35.392 -18.916 -21.493  0.00  0.00    +0.088 C 
ATOM      8  C   UNL     1      34.321 -15.084 -21.589  0.00  0.00    +0.000 C 
ATOM      9  C   UNL     1      35.048 -16.334 -21.056  0.00  0.00    +0.002 C 
ATOM     10  C   UNL     1      34.123 -16.176 -25.369  0.00  0.00    +0.000 C 
ATOM     11  C   UNL     1      34.517 -18.845 -23.819  0.00  0.00    +0.002 C 
ATOM     12  C   UNL     1      33.431 -14.947 -25.956  0.00  0.00    +0.000 C 
ATOM     13  C   UNL     1      35.067 -19.791 -22.734  0.00  0.00    +0.027 C 
ATOM     14  C   UNL     1      34.201 -12.391 -23.105  0.00  0.00    +0.002 C 
ATOM     15  C   UNL     1      33.322 -12.413 -25.933  0.00  0.00    +0.029 C 
ATOM     16  C   UNL     1      33.079 -17.871 -21.335  0.00  0.00    +0.002 C 
ATOM     17  C   UNL     1      32.113 -13.771 -23.389  0.00  0.00    +0.000 C 
ATOM     18  C   UNL     1      33.669 -11.118 -23.778  0.00  0.00    +0.029 C 
ATOM     19  C   UNL     1      33.853 -11.130 -25.293  0.00  0.00    +0.111 C 
ATOM     20  C   UNL     1      36.905 -18.709 -21.357  0.00  0.00    +0.029 C 
ENDROOT
BRANCH   7  21
ATOM     21  O   UNL     1      34.962 -19.578 -20.306  0.00  0.00    -0.387 OA
ATOM     22  H   UNL     1      35.722 -19.709 -19.716  0.00  0.00    +0.210 HD
ENDBRANCH   7  21
BRANCH  19  23
ATOM     23  O   UNL     1      35.241 -11.008 -25.605  0.00  0.00    -0.384 OA
ATOM     24  H   UNL     1      35.512 -10.081 -25.514  0.00  0.00    +0.210 HD
ENDBRANCH  19  23
TORSDOF 2
ENDMDL
MODEL 3
REMARK VINA RESULT:      -7.3     19.759     22.097
REMARK  Name = 242493
REMARK  2 active torsions:
REMARK  status: ('A' for Active; 'I' for Inactive)
REMARK    1  A    between atoms: C_7  and  O_21
REMARK    2  A    between atoms: C_19  and  O_23
REMARK                            x       y       z     vdW  Elec       q    Type
REMARK                         _______ _______ _______ _____ _____    ______ ____
ROOT
ATOM      1  C   UNL     1      32.116  -4.480 -24.927  0.00  0.00    +0.000 C 
ATOM      2  C   UNL     1      32.846  -3.490 -25.844  0.00  0.00    +0.002 C 
ATOM      3  C   UNL     1      33.136  -5.557 -24.435  0.00  0.00    +0.000 C 
ATOM      4  C   UNL     1      33.480  -4.165 -27.080  0.00  0.00    +0.023 C 
ATOM      5  C   UNL     1      32.475  -6.585 -23.442  0.00  0.00    +0.000 C 
ATOM      6  C   UNL     1      31.860  -5.763 -22.264  0.00  0.00    +0.002 C 
ATOM      7  C   UNL     1      34.018  -2.916 -27.845  0.00  0.00    +0.088 C 
ATOM      8  C   UNL     1      33.906  -6.209 -25.613  0.00  0.00    +0.000 C 
ATOM      9  C   UNL     1      34.523  -5.177 -26.578  0.00  0.00    +0.002 C 
ATOM     10  C   UNL     1      31.450  -3.762 -23.743  0.00  0.00    +0.000 C 
ATOM     11  C   UNL     1      32.053  -2.331 -26.440  0.00  0.00    +0.002 C 
ATOM     12  C   UNL     1      30.829  -4.736 -22.744  0.00  0.00    +0.000 C 
ATOM     13  C   UNL     1      32.893  -1.866 -27.645  0.00  0.00    +0.027 C 
ATOM     14  C   UNL     1      33.549  -7.536 -22.843  0.00  0.00    +0.002 C 
ATOM     15  C   UNL     1      31.286  -6.653 -21.148  0.00  0.00    +0.029 C 
ATOM     16  C   UNL     1      32.450  -4.913 -27.975  0.00  0.00    +0.002 C 
ATOM     17  C   UNL     1      31.411  -7.444 -24.170  0.00  0.00    +0.000 C 
ATOM     18  C   UNL     1      33.019  -8.422 -21.707  0.00  0.00    +0.029 C 
ATOM     19  C   UNL     1      32.337  -7.620 -20.601  0.00  0.00    +0.111 C 
ATOM     20  C   UNL     1      35.363  -2.370 -27.350  0.00  0.00    +0.029 C 
ENDROOT
BRANCH   7  21
ATOM     21  O   UNL     1      34.179  -3.196 -29.234  0.00  0.00    -0.387 OA
ATOM     22  H   UNL     1      33.763  -2.491 -29.757  0.00  0.00    +0.210 HD
ENDBRANCH   7  21
BRANCH  19  23
ATOM     23  O   UNL     1      33.318  -6.869 -19.886  0.00  0.00    -0.384 OA
ATOM     24  H   UNL     1      33.761  -6.255 -20.493  0.00  0.00    +0.210 HD
ENDBRANCH  19  23
TORSDOF 2
ENDMDL
MODEL 4
REMARK VINA RESULT:      -7.2      1.384      6.491
REMARK  Name = 242493
REMARK  2 active torsions:
REMARK  status: ('A' for Active; 'I' for Inactive)
REMARK    1  A    between atoms: C_7  and  O_21
REMARK    2  A    between atoms: C_19  and  O_23
REMARK                            x       y       z     vdW  Elec       q    Type
REMARK                         _______ _______ _______ _____ _____    ______ ____
ROOT
ATOM      1  C   UNL     1      33.766 -23.643 -15.790  0.00  0.00    +0.000 C 
ATOM      2  C   UNL     1      35.133 -23.335 -15.166  0.00  0.00    +0.002 C 
ATOM      3  C   UNL     1      32.705 -23.760 -14.648  0.00  0.00    +0.000 C 
ATOM      4  C   UNL     1      35.602 -24.417 -14.169  0.00  0.00    +0.023 C 
ATOM      5  C   UNL     1      31.259 -24.025 -15.212  0.00  0.00    +0.000 C 
ATOM      6  C   UNL     1      30.933 -22.872 -16.215  0.00  0.00    +0.002 C 
ATOM      7  C   UNL     1      37.027 -23.887 -13.819  0.00  0.00    +0.088 C 
ATOM      8  C   UNL     1      33.152 -24.747 -13.538  0.00  0.00    +0.000 C 
ATOM      9  C   UNL     1      34.578 -24.474 -13.023  0.00  0.00    +0.002 C 
ATOM     10  C   UNL     1      33.364 -22.574 -16.817  0.00  0.00    +0.000 C 
ATOM     11  C   UNL     1      36.332 -23.160 -16.091  0.00  0.00    +0.002 C 
ATOM     12  C   UNL     1      31.950 -22.786 -17.358  0.00  0.00    +0.000 C 
ATOM     13  C   UNL     1      37.558 -23.370 -15.182  0.00  0.00    +0.027 C 
ATOM     14  C   UNL     1      30.206 -23.967 -14.069  0.00  0.00    +0.002 C 
ATOM     15  C   UNL     1      29.492 -22.935 -16.752  0.00  0.00    +0.029 C 
ATOM     16  C   UNL     1      35.720 -25.834 -14.802  0.00  0.00    +0.002 C 
ATOM     17  C   UNL     1      31.179 -25.420 -15.882  0.00  0.00    +0.000 C 
ATOM     18  C   UNL     1      28.755 -24.001 -14.568  0.00  0.00    +0.029 C 
ATOM     19  C   UNL     1      28.467 -22.929 -15.617  0.00  0.00    +0.111 C 
ATOM     20  C   UNL     1      37.074 -22.776 -12.762  0.00  0.00    +0.029 C 
ENDROOT
BRANCH   7  21
ATOM     21  O   UNL     1      37.861 -24.939 -13.340  0.00  0.00    -0.387 OA
ATOM     22  H   UNL     1      37.870 -24.930 -12.370  0.00  0.00    +0.210 HD
ENDBRANCH   7  21
BRANCH  19  23
ATOM     23  O   UNL     1      28.481 -21.643 -14.998  0.00  0.00    -0.384 OA
ATOM     24  H   UNL     1      27.641 -21.191 -15.174  0.00  0.00    +0.210 HD
ENDBRANCH  19  23
TORSDOF 2
ENDMDL
MODEL 5
REMARK VINA RESULT:      -7.1      3.268      6.462
REMARK  Name = 242493
REMARK  2 active torsions:
REMARK  status: ('A' for Active; 'I' for Inactive)
REMARK    1  A    between atoms: C_7  and  O_21
REMARK    2  A    between atoms: C_19  and  O_23
REMARK                            x       y       z     vdW  Elec       q    Type
REMARK                         _______ _______ _______ _____ _____    ______ ____
ROOT
ATOM      1  C   UNL     1      36.115 -22.825 -17.174  0.00  0.00    +0.000 C 
ATOM      2  C   UNL     1      36.320 -23.058 -15.671  0.00  0.00    +0.002 C 
ATOM      3  C   UNL     1      34.648 -22.343 -17.414  0.00  0.00    +0.000 C 
ATOM      4  C   UNL     1      35.355 -24.112 -15.084  0.00  0.00    +0.023 C 
ATOM      5  C   UNL     1      34.371 -22.031 -18.932  0.00  0.00    +0.000 C 
ATOM      6  C   UNL     1      35.429 -20.975 -19.389  0.00  0.00    +0.002 C 
ATOM      7  C   UNL     1      35.885 -24.203 -13.619  0.00  0.00    +0.088 C 
ATOM      8  C   UNL     1      33.610 -23.289 -16.754  0.00  0.00    +0.000 C 
ATOM      9  C   UNL     1      33.920 -23.592 -15.275  0.00  0.00    +0.002 C 
ATOM     10  C   UNL     1      37.131 -21.816 -17.729  0.00  0.00    +0.000 C 
ATOM     11  C   UNL     1      37.690 -23.521 -15.187  0.00  0.00    +0.002 C 
ATOM     12  C   UNL     1      36.867 -21.466 -19.193  0.00  0.00    +0.000 C 
ATOM     13  C   UNL     1      37.425 -24.125 -13.795  0.00  0.00    +0.027 C 
ATOM     14  C   UNL     1      32.963 -21.396 -19.113  0.00  0.00    +0.002 C 
ATOM     15  C   UNL     1      35.198 -20.480 -20.827  0.00  0.00    +0.029 C 
ATOM     16  C   UNL     1      35.474 -25.507 -15.763  0.00  0.00    +0.002 C 
ATOM     17  C   UNL     1      34.437 -23.326 -19.779  0.00  0.00    +0.000 C 
ATOM     18  C   UNL     1      32.706 -20.866 -20.530  0.00  0.00    +0.029 C 
ATOM     19  C   UNL     1      33.792 -19.905 -21.007  0.00  0.00    +0.111 C 
ATOM     20  C   UNL     1      35.391 -23.103 -12.672  0.00  0.00    +0.029 C 
ENDROOT
BRANCH   7  21
ATOM     21  O   UNL     1      35.526 -25.447 -13.022  0.00  0.00    -0.387 OA
ATOM     22  H   UNL     1      36.156 -26.132 -13.298  0.00  0.00    +0.210 HD
ENDBRANCH   7  21
BRANCH  19  23
ATOM     23  O   UNL     1      33.703 -18.684 -20.272  0.00  0.00    -0.384 OA
ATOM     24  H   UNL     1      33.705 -18.879 -19.322  0.00  0.00    +0.210 HD
ENDBRANCH  19  23
TORSDOF 2
ENDMDL
MODEL 6
REMARK VINA RESULT:      -6.8     13.314     15.638
REMARK  Name = 242493
REMARK  2 active torsions:
REMARK  status: ('A' for Active; 'I' for Inactive)
REMARK    1  A    between atoms: C_7  and  O_21
REMARK    2  A    between atoms: C_19  and  O_23
REMARK                            x       y       z     vdW  Elec       q    Type
REMARK                         _______ _______ _______ _____ _____    ______ ____
ROOT
ATOM      1  C   UNL     1      32.347 -11.038 -22.183  0.00  0.00    +0.000 C 
ATOM      2  C   UNL     1      32.765  -9.563 -22.228  0.00  0.00    +0.002 C 
ATOM      3  C   UNL     1      33.508 -11.908 -22.765  0.00  0.00    +0.000 C 
ATOM      4  C   UNL     1      33.082  -9.066 -23.655  0.00  0.00    +0.023 C 
ATOM      5  C   UNL     1      33.178 -13.447 -22.706  0.00  0.00    +0.000 C 
ATOM      6  C   UNL     1      32.859 -13.796 -21.217  0.00  0.00    +0.002 C 
ATOM      7  C   UNL     1      33.343  -7.552 -23.382  0.00  0.00    +0.088 C 
ATOM      8  C   UNL     1      33.969 -11.405 -24.158  0.00  0.00    +0.000 C 
ATOM      9  C   UNL     1      34.264  -9.892 -24.188  0.00  0.00    +0.002 C 
ATOM     10  C   UNL     1      31.986 -11.476 -20.756  0.00  0.00    +0.000 C 
ATOM     11  C   UNL     1      31.794  -8.515 -21.694  0.00  0.00    +0.002 C 
ATOM     12  C   UNL     1      31.693 -12.972 -20.660  0.00  0.00    +0.000 C 
ATOM     13  C   UNL     1      32.264  -7.191 -22.326  0.00  0.00    +0.027 C 
ATOM     14  C   UNL     1      34.413 -14.289 -23.133  0.00  0.00    +0.002 C 
ATOM     15  C   UNL     1      32.640 -15.302 -20.988  0.00  0.00    +0.029 C 
ATOM     16  C   UNL     1      31.887  -9.213 -24.642  0.00  0.00    +0.002 C 
ATOM     17  C   UNL     1      31.999 -13.791 -23.650  0.00  0.00    +0.000 C 
ATOM     18  C   UNL     1      34.241 -15.795 -22.896  0.00  0.00    +0.029 C 
ATOM     19  C   UNL     1      33.840 -16.125 -21.460  0.00  0.00    +0.111 C 
ATOM     20  C   UNL     1      34.745  -7.210 -22.863  0.00  0.00    +0.029 C 
ENDROOT
BRANCH   7  21
ATOM     21  O   UNL     1      33.145  -6.777 -24.562  0.00  0.00    -0.387 OA
ATOM     22  H   UNL     1      33.981  -6.354 -24.815  0.00  0.00    +0.210 HD
ENDBRANCH   7  21
BRANCH  19  23
ATOM     23  O   UNL     1      34.939 -15.865 -20.587  0.00  0.00    -0.384 OA
ATOM     24  H   UNL     1      34.787 -15.032 -20.115  0.00  0.00    +0.210 HD
ENDBRANCH  19  23
TORSDOF 2
ENDMDL
