MODEL 1
REMARK VINA RESULT:      -7.8      0.000      0.000
REMARK  Name = 469717
REMARK  3 active torsions:
REMARK  status: ('A' for Active; 'I' for Inactive)
REMARK    1  A    between atoms: N_3  and  C_13
REMARK    2  A    between atoms: C_14  and  C_17
REMARK    3  A    between atoms: C_17  and  O_18
REMARK                            x       y       z     vdW  Elec       q    Type
REMARK                         _______ _______ _______ _____ _____    ______ ____
ROOT
ATOM      1  F   UNL     1      33.225 -15.052 -25.236  0.00  0.00    -0.199 F 
ATOM      2  O   UNL     1      34.930 -15.502 -20.183  0.00  0.00    -0.193 OA
ATOM      3  N   UNL     1      34.790 -16.426 -22.293  0.00  0.00    -0.174 N 
ATOM      4  N   UNL     1      33.840 -14.284 -21.760  0.00  0.00    -0.304 NA
ATOM      5  N   UNL     1      32.725 -13.044 -23.387  0.00  0.00    -0.330 N 
ATOM      6  C   UNL     1      34.351 -16.306 -23.591  0.00  0.00    +0.113 C 
ATOM      7  C   UNL     1      34.541 -15.409 -21.349  0.00  0.00    +0.276 C 
ATOM      8  C   UNL     1      33.680 -15.229 -23.985  0.00  0.00    +0.200 C 
ATOM      9  C   UNL     1      33.420 -14.164 -22.993  0.00  0.00    +0.220 C 
ATOM     10  H   UNL     1      32.543 -12.326 -22.740  0.00  0.00    +0.145 HD
ATOM     11  H   UNL     1      32.412 -12.961 -24.317  0.00  0.00    +0.145 HD
ENDROOT
BRANCH   3  13
ATOM     12  O   UNL     1      34.905 -18.180 -20.716  0.00  0.00    -0.329 OA
ATOM     13  C   UNL     1      35.524 -17.619 -21.888  0.00  0.00    +0.230 C 
ATOM     14  C   UNL     1      34.458 -19.516 -21.031  0.00  0.00    +0.168 C 
ATOM     15  C   UNL     1      35.436 -18.660 -22.938  0.00  0.00    +0.023 C 
ATOM     16  C   UNL     1      34.831 -19.741 -22.452  0.00  0.00    +0.005 C 
BRANCH  14  17
ATOM     17  C   UNL     1      32.960 -19.602 -20.789  0.00  0.00    +0.171 C 
BRANCH  17  18
ATOM     18  O   UNL     1      32.718 -20.528 -19.743  0.00  0.00    -0.379 OA
ATOM     19  H   UNL     1      33.399 -21.220 -19.760  0.00  0.00    +0.211 HD
ENDBRANCH  17  18
ENDBRANCH  14  17
ENDBRANCH   3  13
TORSDOF 3
ENDMDL
MODEL 2
REMARK VINA RESULT:      -7.7      2.727      5.087
REMARK  Name = 469717
REMARK  3 active torsions:
REMARK  status: ('A' for Active; 'I' for Inactive)
REMARK    1  A    between atoms: N_3  and  C_13
REMARK    2  A    between atoms: C_14  and  C_17
REMARK    3  A    between atoms: C_17  and  O_18
REMARK                            x       y       z     vdW  Elec       q    Type
REMARK                         _______ _______ _______ _____ _____    ______ ____
ROOT
ATOM      1  F   UNL     1      34.866 -19.284 -23.926  0.00  0.00    -0.199 F 
ATOM      2  O   UNL     1      34.895 -15.508 -20.133  0.00  0.00    -0.193 OA
ATOM      3  N   UNL     1      34.648 -16.041 -22.365  0.00  0.00    -0.174 N 
ATOM      4  N   UNL     1      35.115 -17.698 -20.689  0.00  0.00    -0.304 NA
ATOM      5  N   UNL     1      35.339 -19.943 -21.272  0.00  0.00    -0.330 N 
ATOM      6  C   UNL     1      34.641 -17.015 -23.336  0.00  0.00    +0.113 C 
ATOM      7  C   UNL     1      34.886 -16.369 -21.014  0.00  0.00    +0.276 C 
ATOM      8  C   UNL     1      34.860 -18.287 -23.025  0.00  0.00    +0.200 C 
ATOM      9  C   UNL     1      35.110 -18.629 -21.608  0.00  0.00    +0.220 C 
ATOM     10  H   UNL     1      35.508 -20.188 -20.335  0.00  0.00    +0.145 HD
ATOM     11  H   UNL     1      35.334 -20.638 -21.970  0.00  0.00    +0.145 HD
ENDROOT
BRANCH   3  13
ATOM     12  O   UNL     1      34.614 -14.496 -24.150  0.00  0.00    -0.329 OA
ATOM     13  C   UNL     1      34.405 -14.651 -22.735  0.00  0.00    +0.230 C 
ATOM     14  C   UNL     1      33.377 -14.052 -24.748  0.00  0.00    +0.168 C 
ATOM     15  C   UNL     1      32.990 -14.292 -22.485  0.00  0.00    +0.023 C 
ATOM     16  C   UNL     1      32.404 -13.948 -23.629  0.00  0.00    +0.005 C 
BRANCH  14  17
ATOM     17  C   UNL     1      32.957 -15.055 -25.810  0.00  0.00    +0.171 C 
BRANCH  17  18
ATOM     18  O   UNL     1      33.643 -14.759 -27.015  0.00  0.00    -0.379 OA
ATOM     19  H   UNL     1      34.417 -15.337 -27.097  0.00  0.00    +0.211 HD
ENDBRANCH  17  18
ENDBRANCH  14  17
ENDBRANCH   3  13
TORSDOF 3
ENDMDL
MODEL 3
REMARK VINA RESULT:      -7.7      2.282      2.947
REMARK  Name = 469717
REMARK  3 active torsions:
REMARK  status: ('A' for Active; 'I' for Inactive)
REMARK    1  A    between atoms: N_3  and  C_13
REMARK    2  A    between atoms: C_14  and  C_17
REMARK    3  A    between atoms: C_17  and  O_18
REMARK                            x       y       z     vdW  Elec       q    Type
REMARK                         _______ _______ _______ _____ _____    ______ ____
ROOT
ATOM      1  F   UNL     1      32.923 -14.425 -20.364  0.00  0.00    -0.199 F 
ATOM      2  O   UNL     1      33.622 -14.715 -25.662  0.00  0.00    -0.193 OA
ATOM      3  N   UNL     1      34.146 -15.534 -23.570  0.00  0.00    -0.174 N 
ATOM      4  N   UNL     1      32.614 -13.712 -23.892  0.00  0.00    -0.304 NA
ATOM      5  N   UNL     1      31.585 -12.691 -22.068  0.00  0.00    -0.330 N 
ATOM      6  C   UNL     1      33.963 -15.457 -22.208  0.00  0.00    +0.113 C 
ATOM      7  C   UNL     1      33.469 -14.656 -24.441  0.00  0.00    +0.276 C 
ATOM      8  C   UNL     1      33.145 -14.552 -21.683  0.00  0.00    +0.200 C 
ATOM      9  C   UNL     1      32.435 -13.633 -22.599  0.00  0.00    +0.220 C 
ATOM     10  H   UNL     1      31.106 -12.071 -22.662  0.00  0.00    +0.145 HD
ATOM     11  H   UNL     1      31.456 -12.637 -21.093  0.00  0.00    +0.145 HD
ENDROOT
BRANCH   3  13
ATOM     12  O   UNL     1      35.772 -17.163 -23.042  0.00  0.00    -0.329 OA
ATOM     13  C   UNL     1      35.051 -16.536 -24.119  0.00  0.00    +0.230 C 
ATOM     14  C   UNL     1      35.463 -18.574 -23.048  0.00  0.00    +0.168 C 
ATOM     15  C   UNL     1      34.284 -17.614 -24.784  0.00  0.00    +0.023 C 
ATOM     16  C   UNL     1      34.518 -18.775 -24.178  0.00  0.00    +0.005 C 
BRANCH  14  17
ATOM     17  C   UNL     1      34.870 -18.952 -21.702  0.00  0.00    +0.171 C 
BRANCH  17  18
ATOM     18  O   UNL     1      35.599 -18.294 -20.679  0.00  0.00    -0.379 OA
ATOM     19  H   UNL     1      36.544 -18.487 -20.781  0.00  0.00    +0.211 HD
ENDBRANCH  17  18
ENDBRANCH  14  17
ENDBRANCH   3  13
TORSDOF 3
ENDMDL
MODEL 4
REMARK VINA RESULT:      -7.5      3.437      5.484
REMARK  Name = 469717
REMARK  3 active torsions:
REMARK  status: ('A' for Active; 'I' for Inactive)
REMARK    1  A    between atoms: N_3  and  C_13
REMARK    2  A    between atoms: C_14  and  C_17
REMARK    3  A    between atoms: C_17  and  O_18
REMARK                            x       y       z     vdW  Elec       q    Type
REMARK                         _______ _______ _______ _____ _____    ______ ____
ROOT
ATOM      1  F   UNL     1      31.830 -20.425 -21.027  0.00  0.00    -0.199 F 
ATOM      2  O   UNL     1      37.043 -19.836 -19.965  0.00  0.00    -0.193 OA
ATOM      3  N   UNL     1      35.143 -19.003 -20.976  0.00  0.00    -0.174 N 
ATOM      4  N   UNL     1      35.147 -21.067 -19.747  0.00  0.00    -0.304 NA
ATOM      5  N   UNL     1      33.196 -22.322 -19.531  0.00  0.00    -0.330 N 
ATOM      6  C   UNL     1      33.803 -19.157 -21.246  0.00  0.00    +0.113 C 
ATOM      7  C   UNL     1      35.842 -19.962 -20.215  0.00  0.00    +0.276 C 
ATOM      8  C   UNL     1      33.137 -20.215 -20.798  0.00  0.00    +0.200 C 
ATOM      9  C   UNL     1      33.873 -21.221 -20.000  0.00  0.00    +0.220 C 
ATOM     10  H   UNL     1      33.670 -23.000 -19.000  0.00  0.00    +0.145 HD
ATOM     11  H   UNL     1      32.237 -22.430 -19.726  0.00  0.00    +0.145 HD
ENDROOT
BRANCH   3  13
ATOM     12  O   UNL     1      36.119 -18.010 -22.884  0.00  0.00    -0.329 OA
ATOM     13  C   UNL     1      35.849 -17.831 -21.481  0.00  0.00    +0.230 C 
ATOM     14  C   UNL     1      35.457 -16.954 -23.613  0.00  0.00    +0.168 C 
ATOM     15  C   UNL     1      34.992 -16.628 -21.376  0.00  0.00    +0.023 C 
ATOM     16  C   UNL     1      34.769 -16.126 -22.588  0.00  0.00    +0.005 C 
BRANCH  14  17
ATOM     17  C   UNL     1      34.499 -17.575 -24.616  0.00  0.00    +0.171 C 
BRANCH  17  18
ATOM     18  O   UNL     1      34.700 -16.965 -25.880  0.00  0.00    -0.379 OA
ATOM     19  H   UNL     1      34.059 -17.319 -26.515  0.00  0.00    +0.211 HD
ENDBRANCH  17  18
ENDBRANCH  14  17
ENDBRANCH   3  13
TORSDOF 3
ENDMDL
MODEL 5
REMARK VINA RESULT:      -7.5      9.246     10.928
REMARK  Name = 469717
REMARK  3 active torsions:
REMARK  status: ('A' for Active; 'I' for Inactive)
REMARK    1  A    between atoms: N_3  and  C_13
REMARK    2  A    between atoms: C_14  and  C_17
REMARK    3  A    between atoms: C_17  and  O_18
REMARK                            x       y       z     vdW  Elec       q    Type
REMARK                         _______ _______ _______ _____ _____    ______ ____
ROOT
ATOM      1  F   UNL     1      32.664 -23.969 -15.100  0.00  0.00    -0.199 F 
ATOM      2  O   UNL     1      37.651 -22.481 -16.352  0.00  0.00    -0.193 OA
ATOM      3  N   UNL     1      36.182 -23.260 -14.751  0.00  0.00    -0.174 N 
ATOM      4  N   UNL     1      35.499 -22.790 -17.006  0.00  0.00    -0.304 NA
ATOM      5  N   UNL     1      33.287 -23.112 -17.665  0.00  0.00    -0.330 N 
ATOM      6  C   UNL     1      34.900 -23.642 -14.434  0.00  0.00    +0.113 C 
ATOM      7  C   UNL     1      36.506 -22.825 -16.053  0.00  0.00    +0.276 C 
ATOM      8  C   UNL     1      33.935 -23.609 -15.346  0.00  0.00    +0.200 C 
ATOM      9  C   UNL     1      34.277 -23.153 -16.711  0.00  0.00    +0.220 C 
ATOM     10  H   UNL     1      33.496 -22.811 -18.578  0.00  0.00    +0.145 HD
ATOM     11  H   UNL     1      32.370 -23.386 -17.435  0.00  0.00    +0.145 HD
ENDROOT
BRANCH   3  13
ATOM     12  O   UNL     1      36.641 -22.992 -12.450  0.00  0.00    -0.329 OA
ATOM     13  C   UNL     1      37.222 -23.306 -13.729  0.00  0.00    +0.230 C 
ATOM     14  C   UNL     1      36.825 -24.125 -11.575  0.00  0.00    +0.168 C 
ATOM     15  C   UNL     1      37.765 -24.679 -13.609  0.00  0.00    +0.023 C 
ATOM     16  C   UNL     1      37.543 -25.146 -12.383  0.00  0.00    +0.005 C 
BRANCH  14  17
ATOM     17  C   UNL     1      35.465 -24.598 -11.091  0.00  0.00    +0.171 C 
BRANCH  17  18
ATOM     18  O   UNL     1      35.432 -24.525  -9.676  0.00  0.00    -0.379 OA
ATOM     19  H   UNL     1      36.190 -25.007  -9.310  0.00  0.00    +0.211 HD
ENDBRANCH  17  18
ENDBRANCH  14  17
ENDBRANCH   3  13
TORSDOF 3
ENDMDL
MODEL 6
REMARK VINA RESULT:      -7.5      8.628     10.188
REMARK  Name = 469717
REMARK  3 active torsions:
REMARK  status: ('A' for Active; 'I' for Inactive)
REMARK    1  A    between atoms: N_3  and  C_13
REMARK    2  A    between atoms: C_14  and  C_17
REMARK    3  A    between atoms: C_17  and  O_18
REMARK                            x       y       z     vdW  Elec       q    Type
REMARK                         _______ _______ _______ _____ _____    ______ ____
ROOT
ATOM      1  F   UNL     1      30.782 -23.242 -14.195  0.00  0.00    -0.199 F 
ATOM      2  O   UNL     1      34.362 -23.098 -18.172  0.00  0.00    -0.193 OA
ATOM      3  N   UNL     1      33.945 -23.385 -15.920  0.00  0.00    -0.174 N 
ATOM      4  N   UNL     1      32.199 -22.919 -17.503  0.00  0.00    -0.304 NA
ATOM      5  N   UNL     1      29.983 -22.740 -16.805  0.00  0.00    -0.330 N 
ATOM      6  C   UNL     1      33.021 -23.423 -14.901  0.00  0.00    +0.113 C 
ATOM      7  C   UNL     1      33.545 -23.132 -17.249  0.00  0.00    +0.276 C 
ATOM      8  C   UNL     1      31.732 -23.219 -15.145  0.00  0.00    +0.200 C 
ATOM      9  C   UNL     1      31.315 -22.953 -16.539  0.00  0.00    +0.220 C 
ATOM     10  H   UNL     1      29.689 -22.561 -17.727  0.00  0.00    +0.145 HD
ATOM     11  H   UNL     1      29.324 -22.766 -16.074  0.00  0.00    +0.145 HD
ENDROOT
BRANCH   3  13
ATOM     12  O   UNL     1      35.708 -22.892 -14.429  0.00  0.00    -0.329 OA
ATOM     13  C   UNL     1      35.355 -23.612 -15.623  0.00  0.00    +0.230 C 
ATOM     14  C   UNL     1      36.154 -23.843 -13.438  0.00  0.00    +0.168 C 
ATOM     15  C   UNL     1      35.595 -25.044 -15.328  0.00  0.00    +0.023 C 
ATOM     16  C   UNL     1      36.052 -25.177 -14.085  0.00  0.00    +0.005 C 
BRANCH  14  17
ATOM     17  C   UNL     1      35.278 -23.712 -12.203  0.00  0.00    +0.171 C 
BRANCH  17  18
ATOM     18  O   UNL     1      34.805 -24.999 -11.841  0.00  0.00    -0.379 OA
ATOM     19  H   UNL     1      34.034 -25.224 -12.385  0.00  0.00    +0.211 HD
ENDBRANCH  17  18
ENDBRANCH  14  17
ENDBRANCH   3  13
TORSDOF 3
ENDMDL
MODEL 7
REMARK VINA RESULT:      -7.5      8.926     10.351
REMARK  Name = 469717
REMARK  3 active torsions:
REMARK  status: ('A' for Active; 'I' for Inactive)
REMARK    1  A    between atoms: N_3  and  C_13
REMARK    2  A    between atoms: C_14  and  C_17
REMARK    3  A    between atoms: C_17  and  O_18
REMARK                            x       y       z     vdW  Elec       q    Type
REMARK                         _______ _______ _______ _____ _____    ______ ____
ROOT
ATOM      1  F   UNL     1      33.079 -22.771 -18.335  0.00  0.00    -0.199 F 
ATOM      2  O   UNL     1      33.082 -23.876 -13.098  0.00  0.00    -0.193 OA
ATOM      3  N   UNL     1      31.864 -23.546 -15.030  0.00  0.00    -0.174 N 
ATOM      4  N   UNL     1      34.261 -23.401 -14.980  0.00  0.00    -0.304 NA
ATOM      5  N   UNL     1      35.460 -22.913 -16.917  0.00  0.00    -0.330 N 
ATOM      6  C   UNL     1      31.868 -23.263 -16.376  0.00  0.00    +0.113 C 
ATOM      7  C   UNL     1      33.070 -23.622 -14.304  0.00  0.00    +0.276 C 
ATOM      8  C   UNL     1      33.008 -23.052 -17.023  0.00  0.00    +0.200 C 
ATOM      9  C   UNL     1      34.272 -23.131 -16.260  0.00  0.00    +0.220 C 
ATOM     10  H   UNL     1      36.311 -22.961 -16.424  0.00  0.00    +0.145 HD
ATOM     11  H   UNL     1      35.460 -22.710 -17.880  0.00  0.00    +0.145 HD
ENDROOT
BRANCH   3  13
ATOM     12  O   UNL     1      29.614 -22.850 -14.850  0.00  0.00    -0.329 OA
ATOM     13  C   UNL     1      30.596 -23.774 -14.346  0.00  0.00    +0.230 C 
ATOM     14  C   UNL     1      28.535 -23.609 -15.437  0.00  0.00    +0.168 C 
ATOM     15  C   UNL     1      30.082 -25.129 -14.650  0.00  0.00    +0.023 C 
ATOM     16  C   UNL     1      28.908 -25.038 -15.269  0.00  0.00    +0.005 C 
BRANCH  14  17
ATOM     17  C   UNL     1      28.383 -23.201 -16.893  0.00  0.00    +0.171 C 
BRANCH  17  18
ATOM     18  O   UNL     1      27.704 -24.232 -17.588  0.00  0.00    -0.379 OA
ATOM     19  H   UNL     1      27.481 -24.947 -16.971  0.00  0.00    +0.211 HD
ENDBRANCH  17  18
ENDBRANCH  14  17
ENDBRANCH   3  13
TORSDOF 3
ENDMDL
MODEL 8
REMARK VINA RESULT:      -7.5     10.746     12.129
REMARK  Name = 469717
REMARK  3 active torsions:
REMARK  status: ('A' for Active; 'I' for Inactive)
REMARK    1  A    between atoms: N_3  and  C_13
REMARK    2  A    between atoms: C_14  and  C_17
REMARK    3  A    between atoms: C_17  and  O_18
REMARK                            x       y       z     vdW  Elec       q    Type
REMARK                         _______ _______ _______ _____ _____    ______ ____
ROOT
ATOM      1  F   UNL     1      34.668 -23.715 -16.408  0.00  0.00    -0.199 F 
ATOM      2  O   UNL     1      35.000 -24.918 -11.203  0.00  0.00    -0.193 OA
ATOM      3  N   UNL     1      35.960 -25.008 -13.300  0.00  0.00    -0.174 N 
ATOM      4  N   UNL     1      33.830 -23.970 -12.903  0.00  0.00    -0.304 NA
ATOM      5  N   UNL     1      32.639 -23.000 -14.655  0.00  0.00    -0.330 N 
ATOM      6  C   UNL     1      35.871 -24.696 -14.637  0.00  0.00    +0.113 C 
ATOM      7  C   UNL     1      34.933 -24.646 -12.404  0.00  0.00    +0.276 C 
ATOM      8  C   UNL     1      34.815 -24.049 -15.115  0.00  0.00    +0.200 C 
ATOM      9  C   UNL     1      33.739 -23.670 -14.173  0.00  0.00    +0.220 C 
ATOM     10  H   UNL     1      31.914 -22.742 -14.043  0.00  0.00    +0.145 HD
ATOM     11  H   UNL     1      32.578 -22.779 -15.612  0.00  0.00    +0.145 HD
ENDROOT
BRANCH   3  13
ATOM     12  O   UNL     1      37.837 -26.304 -13.913  0.00  0.00    -0.329 OA
ATOM     13  C   UNL     1      37.131 -25.720 -12.802  0.00  0.00    +0.230 C 
ATOM     14  C   UNL     1      39.167 -25.743 -13.953  0.00  0.00    +0.168 C 
ATOM     15  C   UNL     1      38.076 -24.775 -12.164  0.00  0.00    +0.023 C 
ATOM     16  C   UNL     1      39.236 -24.788 -12.816  0.00  0.00    +0.005 C 
BRANCH  14  17
ATOM     17  C   UNL     1      39.378 -25.077 -15.303  0.00  0.00    +0.171 C 
BRANCH  17  18
ATOM     18  O   UNL     1      40.299 -25.850 -16.055  0.00  0.00    -0.379 OA
ATOM     19  H   UNL     1      40.901 -25.259 -16.533  0.00  0.00    +0.211 HD
ENDBRANCH  17  18
ENDBRANCH  14  17
ENDBRANCH   3  13
TORSDOF 3
ENDMDL
MODEL 9
REMARK VINA RESULT:      -7.4      2.363      3.457
REMARK  Name = 469717
REMARK  3 active torsions:
REMARK  status: ('A' for Active; 'I' for Inactive)
REMARK    1  A    between atoms: N_3  and  C_13
REMARK    2  A    between atoms: C_14  and  C_17
REMARK    3  A    between atoms: C_17  and  O_18
REMARK                            x       y       z     vdW  Elec       q    Type
REMARK                         _______ _______ _______ _____ _____    ______ ____
ROOT
ATOM      1  F   UNL     1      32.953 -13.052 -24.290  0.00  0.00    -0.199 F 
ATOM      2  O   UNL     1      34.494 -17.943 -25.826  0.00  0.00    -0.193 OA
ATOM      3  N   UNL     1      34.478 -16.318 -24.187  0.00  0.00    -0.174 N 
ATOM      4  N   UNL     1      33.406 -16.010 -26.315  0.00  0.00    -0.304 NA
ATOM      5  N   UNL     1      32.293 -14.023 -26.805  0.00  0.00    -0.330 N 
ATOM      6  C   UNL     1      34.080 -15.061 -23.796  0.00  0.00    +0.113 C 
ATOM      7  C   UNL     1      34.144 -16.818 -25.462  0.00  0.00    +0.276 C 
ATOM      8  C   UNL     1      33.372 -14.287 -24.612  0.00  0.00    +0.200 C 
ATOM      9  C   UNL     1      33.024 -14.814 -25.949  0.00  0.00    +0.220 C 
ATOM     10  H   UNL     1      32.053 -14.357 -27.698  0.00  0.00    +0.145 HD
ATOM     11  H   UNL     1      32.009 -13.123 -26.522  0.00  0.00    +0.145 HD
ENDROOT
BRANCH   3  13
ATOM     12  O   UNL     1      35.664 -16.347 -22.145  0.00  0.00    -0.329 OA
ATOM     13  C   UNL     1      35.254 -17.145 -23.270  0.00  0.00    +0.230 C 
ATOM     14  C   UNL     1      35.101 -16.925 -20.947  0.00  0.00    +0.168 C 
ATOM     15  C   UNL     1      34.413 -18.233 -22.720  0.00  0.00    +0.023 C 
ATOM     16  C   UNL     1      34.326 -18.111 -21.398  0.00  0.00    +0.005 C 
BRANCH  14  17
ATOM     17  C   UNL     1      34.241 -15.881 -20.256  0.00  0.00    +0.171 C 
BRANCH  17  18
ATOM     18  O   UNL     1      34.865 -14.615 -20.387  0.00  0.00    -0.379 OA
ATOM     19  H   UNL     1      34.827 -14.146 -19.538  0.00  0.00    +0.211 HD
ENDBRANCH  17  18
ENDBRANCH  14  17
ENDBRANCH   3  13
TORSDOF 3
ENDMDL
