MODEL 1
REMARK VINA RESULT:     -10.0      0.000      0.000
REMARK  Name = 118414016
REMARK  6 active torsions:
REMARK  status: ('A' for Active; 'I' for Inactive)
REMARK    1  A    between atoms: C_2  and  O_18
REMARK    2  A    between atoms: C_8  and  O_16
REMARK    3  A    between atoms: C_9  and  C_13
REMARK    4  A    between atoms: O_18  and  C_19
REMARK    5  A    between atoms: C_19  and  C_24
REMARK    6  A    between atoms: C_23  and  C_28
REMARK                            x       y       z     vdW  Elec       q    Type
REMARK                         _______ _______ _______ _____ _____    ______ ____
ROOT
ATOM      1  N   UNL     1      35.508 -22.829 -17.202  0.00  0.00    -0.210 NA
ATOM      2  C   UNL     1      34.738 -23.114 -16.128  0.00  0.00    +0.225 C 
ATOM      3  C   UNL     1      33.342 -23.084 -16.126  0.00  0.00    +0.056 C 
ATOM      4  C   UNL     1      32.697 -22.731 -17.329  0.00  0.00    +0.006 C 
ATOM      5  C   UNL     1      32.578 -23.388 -14.986  0.00  0.00    +0.042 C 
ATOM      6  C   UNL     1      31.294 -22.688 -17.365  0.00  0.00    +0.008 C 
ATOM      7  C   UNL     1      33.477 -22.432 -18.453  0.00  0.00    +0.021 C 
ATOM      8  C   UNL     1      31.185 -23.341 -15.041  0.00  0.00    +0.143 C 
ATOM      9  C   UNL     1      30.545 -22.992 -16.227  0.00  0.00    +0.087 C 
ATOM     10  C   UNL     1      34.857 -22.495 -18.336  0.00  0.00    +0.102 C 
ENDROOT
BRANCH   9  13
ATOM     11  O   UNL     1      28.500 -21.912 -16.675  0.00  0.00    -0.270 OA
ATOM     12  N   UNL     1      28.384 -24.088 -15.961  0.00  0.00    -0.325 N 
ATOM     13  C   UNL     1      29.091 -22.940 -16.303  0.00  0.00    +0.246 C 
ATOM     14  H   UNL     1      27.401 -24.091 -15.999  0.00  0.00    +0.145 HD
ATOM     15  H   UNL     1      28.869 -24.898 -15.680  0.00  0.00    +0.145 HD
ENDBRANCH   9  13
BRANCH   8  16
ATOM     16  O   UNL     1      30.468 -23.641 -13.921  0.00  0.00    -0.471 OA
ATOM     17  C   UNL     1      30.751 -24.888 -13.288  0.00  0.00    +0.252 C 
ENDBRANCH   8  16
BRANCH   2  18
ATOM     18  O   UNL     1      35.423 -23.453 -14.987  0.00  0.00    -0.458 OA
BRANCH  18  19
ATOM     19  C   UNL     1      36.732 -23.972 -15.155  0.00  0.00    +0.227 C 
BRANCH  19  24
ATOM     20  F   UNL     1      36.824 -26.756 -13.527  0.00  0.00    -0.227 F 
ATOM     21  O   UNL     1      35.797 -25.250 -11.079  0.00  0.00    -0.272 OA
ATOM     22  N   UNL     1      36.577 -23.780 -12.726  0.00  0.00    -0.300 N 
ATOM     23  C   UNL     1      38.414 -24.986 -13.466  0.00  0.00    +0.063 C 
ATOM     24  C   UNL     1      37.494 -23.817 -13.845  0.00  0.00    +0.118 C 
ATOM     25  C   UNL     1      37.489 -25.928 -12.684  0.00  0.00    +0.238 C 
ATOM     26  C   UNL     1      36.523 -24.977 -12.022  0.00  0.00    +0.255 C 
ATOM     27  H   UNL     1      36.045 -22.986 -12.489  0.00  0.00    +0.150 HD
BRANCH  23  28
ATOM     28  C   UNL     1      39.147 -25.664 -14.610  0.00  0.00    +0.005 C 
ATOM     29  C   UNL     1      40.598 -25.922 -14.256  0.00  0.00    +0.000 C 
ENDBRANCH  23  28
ENDBRANCH  19  24
ENDBRANCH  18  19
ENDBRANCH   2  18
TORSDOF 6
ENDMDL
MODEL 2
REMARK VINA RESULT:      -9.7      1.546      2.238
REMARK  Name = 118414016
REMARK  6 active torsions:
REMARK  status: ('A' for Active; 'I' for Inactive)
REMARK    1  A    between atoms: C_2  and  O_18
REMARK    2  A    between atoms: C_8  and  O_16
REMARK    3  A    between atoms: C_9  and  C_13
REMARK    4  A    between atoms: O_18  and  C_19
REMARK    5  A    between atoms: C_19  and  C_24
REMARK    6  A    between atoms: C_23  and  C_28
REMARK                            x       y       z     vdW  Elec       q    Type
REMARK                         _______ _______ _______ _____ _____    ______ ____
ROOT
ATOM      1  N   UNL     1      35.690 -22.724 -16.999  0.00  0.00    -0.210 NA
ATOM      2  C   UNL     1      34.887 -22.938 -15.933  0.00  0.00    +0.225 C 
ATOM      3  C   UNL     1      33.493 -22.973 -15.987  0.00  0.00    +0.056 C 
ATOM      4  C   UNL     1      32.885 -22.769 -17.244  0.00  0.00    +0.006 C 
ATOM      5  C   UNL     1      32.693 -23.198 -14.854  0.00  0.00    +0.042 C 
ATOM      6  C   UNL     1      31.484 -22.796 -17.339  0.00  0.00    +0.008 C 
ATOM      7  C   UNL     1      33.699 -22.546 -18.361  0.00  0.00    +0.021 C 
ATOM      8  C   UNL     1      31.303 -23.222 -14.967  0.00  0.00    +0.143 C 
ATOM      9  C   UNL     1      30.701 -23.022 -16.206  0.00  0.00    +0.087 C 
ATOM     10  C   UNL     1      35.075 -22.533 -18.186  0.00  0.00    +0.102 C 
ENDROOT
BRANCH   9  13
ATOM     11  O   UNL     1      28.610 -22.013 -16.607  0.00  0.00    -0.270 OA
ATOM     12  N   UNL     1      28.606 -24.267 -16.185  0.00  0.00    -0.325 N 
ATOM     13  C   UNL     1      29.250 -23.045 -16.342  0.00  0.00    +0.246 C 
ATOM     14  H   UNL     1      27.627 -24.323 -16.270  0.00  0.00    +0.145 HD
ATOM     15  H   UNL     1      29.130 -25.077 -15.989  0.00  0.00    +0.145 HD
ENDBRANCH   9  13
BRANCH   8  16
ATOM     16  O   UNL     1      30.553 -23.445 -13.851  0.00  0.00    -0.471 OA
ATOM     17  C   UNL     1      30.653 -24.735 -13.251  0.00  0.00    +0.252 C 
ENDBRANCH   8  16
BRANCH   2  18
ATOM     18  O   UNL     1      35.536 -23.131 -14.739  0.00  0.00    -0.458 OA
BRANCH  18  19
ATOM     19  C   UNL     1      36.863 -23.629 -14.802  0.00  0.00    +0.227 C 
BRANCH  19  24
ATOM     20  F   UNL     1      39.390 -24.412 -12.955  0.00  0.00    -0.227 F 
ATOM     21  O   UNL     1      39.999 -26.674 -14.913  0.00  0.00    -0.272 OA
ATOM     22  N   UNL     1      37.839 -25.825 -15.227  0.00  0.00    -0.300 N 
ATOM     23  C   UNL     1      37.253 -25.461 -13.014  0.00  0.00    +0.063 C 
ATOM     24  C   UNL     1      36.848 -25.111 -14.452  0.00  0.00    +0.118 C 
ATOM     25  C   UNL     1      38.778 -25.614 -13.100  0.00  0.00    +0.238 C 
ATOM     26  C   UNL     1      38.984 -26.135 -14.501  0.00  0.00    +0.255 C 
ATOM     27  H   UNL     1      37.715 -26.066 -16.174  0.00  0.00    +0.150 HD
BRANCH  23  28
ATOM     28  C   UNL     1      36.799 -24.497 -11.932  0.00  0.00    +0.005 C 
ATOM     29  C   UNL     1      35.331 -24.684 -11.609  0.00  0.00    +0.000 C 
ENDBRANCH  23  28
ENDBRANCH  19  24
ENDBRANCH  18  19
ENDBRANCH   2  18
TORSDOF 6
ENDMDL
MODEL 3
REMARK VINA RESULT:      -9.5     12.699     15.154
REMARK  Name = 118414016
REMARK  6 active torsions:
REMARK  status: ('A' for Active; 'I' for Inactive)
REMARK    1  A    between atoms: C_2  and  O_18
REMARK    2  A    between atoms: C_8  and  O_16
REMARK    3  A    between atoms: C_9  and  C_13
REMARK    4  A    between atoms: O_18  and  C_19
REMARK    5  A    between atoms: C_19  and  C_24
REMARK    6  A    between atoms: C_23  and  C_28
REMARK                            x       y       z     vdW  Elec       q    Type
REMARK                         _______ _______ _______ _____ _____    ______ ____
ROOT
ATOM      1  N   UNL     1      34.738 -11.146 -25.449  0.00  0.00    -0.210 NA
ATOM      2  C   UNL     1      33.829 -11.314 -24.462  0.00  0.00    +0.225 C 
ATOM      3  C   UNL     1      33.454 -10.321 -23.555  0.00  0.00    +0.056 C 
ATOM      4  C   UNL     1      34.070  -9.059 -23.682  0.00  0.00    +0.006 C 
ATOM      5  C   UNL     1      32.505 -10.537 -22.542  0.00  0.00    +0.042 C 
ATOM      6  C   UNL     1      33.719  -8.034 -22.787  0.00  0.00    +0.008 C 
ATOM      7  C   UNL     1      35.013  -8.863 -24.698  0.00  0.00    +0.021 C 
ATOM      8  C   UNL     1      32.168  -9.508 -21.663  0.00  0.00    +0.143 C 
ATOM      9  C   UNL     1      32.774  -8.260 -21.785  0.00  0.00    +0.087 C 
ATOM     10  C   UNL     1      35.306  -9.925 -25.541  0.00  0.00    +0.102 C 
ENDROOT
BRANCH   9  13
ATOM     11  O   UNL     1      31.797  -6.180 -21.266  0.00  0.00    -0.270 OA
ATOM     12  N   UNL     1      32.829  -7.296 -19.548  0.00  0.00    -0.325 N 
ATOM     13  C   UNL     1      32.434  -7.174 -20.876  0.00  0.00    +0.246 C 
ATOM     14  H   UNL     1      32.617  -6.583 -18.904  0.00  0.00    +0.145 HD
ATOM     15  H   UNL     1      33.320  -8.096 -19.253  0.00  0.00    +0.145 HD
ENDBRANCH   9  13
BRANCH   8  16
ATOM     16  O   UNL     1      31.243  -9.745 -20.691  0.00  0.00    -0.471 OA
ATOM     17  C   UNL     1      31.562 -10.742 -19.722  0.00  0.00    +0.252 C 
ENDBRANCH   8  16
BRANCH   2  18
ATOM     18  O   UNL     1      33.264 -12.563 -24.391  0.00  0.00    -0.458 OA
BRANCH  18  19
ATOM     19  C   UNL     1      33.971 -13.547 -23.653  0.00  0.00    +0.227 C 
BRANCH  19  24
ATOM     20  F   UNL     1      35.944 -16.079 -23.328  0.00  0.00    -0.227 F 
ATOM     21  O   UNL     1      34.699 -17.254 -25.855  0.00  0.00    -0.272 OA
ATOM     22  N   UNL     1      33.401 -15.508 -24.991  0.00  0.00    -0.300 N 
ATOM     23  C   UNL     1      33.645 -15.943 -22.727  0.00  0.00    +0.063 C 
ATOM     24  C   UNL     1      33.197 -14.858 -23.715  0.00  0.00    +0.118 C 
ATOM     25  C   UNL     1      34.745 -16.691 -23.493  0.00  0.00    +0.238 C 
ATOM     26  C   UNL     1      34.295 -16.570 -24.928  0.00  0.00    +0.255 C 
ATOM     27  H   UNL     1      32.951 -15.225 -25.820  0.00  0.00    +0.150 HD
BRANCH  23  28
ATOM     28  C   UNL     1      34.078 -15.466 -21.352  0.00  0.00    +0.005 C 
ATOM     29  C   UNL     1      32.894 -14.983 -20.539  0.00  0.00    +0.000 C 
ENDBRANCH  23  28
ENDBRANCH  19  24
ENDBRANCH  18  19
ENDBRANCH   2  18
TORSDOF 6
ENDMDL
MODEL 4
REMARK VINA RESULT:      -9.3     12.937     16.012
REMARK  Name = 118414016
REMARK  6 active torsions:
REMARK  status: ('A' for Active; 'I' for Inactive)
REMARK    1  A    between atoms: C_2  and  O_18
REMARK    2  A    between atoms: C_8  and  O_16
REMARK    3  A    between atoms: C_9  and  C_13
REMARK    4  A    between atoms: O_18  and  C_19
REMARK    5  A    between atoms: C_19  and  C_24
REMARK    6  A    between atoms: C_23  and  C_28
REMARK                            x       y       z     vdW  Elec       q    Type
REMARK                         _______ _______ _______ _____ _____    ______ ____
ROOT
ATOM      1  N   UNL     1      31.928 -12.157 -21.063  0.00  0.00    -0.210 NA
ATOM      2  C   UNL     1      32.178 -12.259 -22.389  0.00  0.00    +0.225 C 
ATOM      3  C   UNL     1      32.724 -13.386 -23.005  0.00  0.00    +0.056 C 
ATOM      4  C   UNL     1      33.036 -14.490 -22.185  0.00  0.00    +0.006 C 
ATOM      5  C   UNL     1      32.968 -13.452 -24.388  0.00  0.00    +0.042 C 
ATOM      6  C   UNL     1      33.589 -15.642 -22.769  0.00  0.00    +0.008 C 
ATOM      7  C   UNL     1      32.786 -14.404 -20.810  0.00  0.00    +0.021 C 
ATOM      8  C   UNL     1      33.517 -14.604 -24.951  0.00  0.00    +0.143 C 
ATOM      9  C   UNL     1      33.826 -15.696 -24.144  0.00  0.00    +0.087 C 
ATOM     10  C   UNL     1      32.239 -13.232 -20.309  0.00  0.00    +0.102 C 
ENDROOT
BRANCH   9  13
ATOM     11  O   UNL     1      33.908 -17.439 -25.726  0.00  0.00    -0.270 OA
ATOM     12  N   UNL     1      35.527 -17.440 -24.102  0.00  0.00    -0.325 N 
ATOM     13  C   UNL     1      34.398 -16.907 -24.716  0.00  0.00    +0.246 C 
ATOM     14  H   UNL     1      35.942 -18.257 -24.460  0.00  0.00    +0.145 HD
ATOM     15  H   UNL     1      35.911 -16.998 -23.311  0.00  0.00    +0.145 HD
ENDBRANCH   9  13
BRANCH   8  16
ATOM     16  O   UNL     1      33.741 -14.641 -26.295  0.00  0.00    -0.471 OA
ATOM     17  C   UNL     1      33.222 -13.560 -27.067  0.00  0.00    +0.252 C 
ENDBRANCH   8  16
BRANCH   2  18
ATOM     18  O   UNL     1      31.851 -11.154 -23.134  0.00  0.00    -0.458 OA
BRANCH  18  19
ATOM     19  C   UNL     1      32.504  -9.939 -22.802  0.00  0.00    +0.227 C 
BRANCH  19  24
ATOM     20  F   UNL     1      33.689  -6.959 -22.445  0.00  0.00    -0.227 F 
ATOM     21  O   UNL     1      33.062  -7.168 -19.465  0.00  0.00    -0.272 OA
ATOM     22  N   UNL     1      31.967  -8.836 -20.691  0.00  0.00    -0.300 N 
ATOM     23  C   UNL     1      31.401  -7.606 -22.574  0.00  0.00    +0.063 C 
ATOM     24  C   UNL     1      31.524  -9.045 -22.052  0.00  0.00    +0.118 C 
ATOM     25  C   UNL     1      32.497  -6.854 -21.806  0.00  0.00    +0.238 C 
ATOM     26  C   UNL     1      32.548  -7.589 -20.489  0.00  0.00    +0.255 C 
ATOM     27  H   UNL     1      31.866  -9.509 -19.980  0.00  0.00    +0.150 HD
BRANCH  23  28
ATOM     28  C   UNL     1      31.481  -7.426 -24.080  0.00  0.00    +0.005 C 
ATOM     29  C   UNL     1      31.243  -5.983 -24.473  0.00  0.00    +0.000 C 
ENDBRANCH  23  28
ENDBRANCH  19  24
ENDBRANCH  18  19
ENDBRANCH   2  18
TORSDOF 6
ENDMDL
MODEL 5
REMARK VINA RESULT:      -9.2     12.414     15.417
REMARK  Name = 118414016
REMARK  6 active torsions:
REMARK  status: ('A' for Active; 'I' for Inactive)
REMARK    1  A    between atoms: C_2  and  O_18
REMARK    2  A    between atoms: C_8  and  O_16
REMARK    3  A    between atoms: C_9  and  C_13
REMARK    4  A    between atoms: O_18  and  C_19
REMARK    5  A    between atoms: C_19  and  C_24
REMARK    6  A    between atoms: C_23  and  C_28
REMARK                            x       y       z     vdW  Elec       q    Type
REMARK                         _______ _______ _______ _____ _____    ______ ____
ROOT
ATOM      1  N   UNL     1      33.122 -12.005 -25.615  0.00  0.00    -0.210 NA
ATOM      2  C   UNL     1      33.482 -12.544 -24.428  0.00  0.00    +0.225 C 
ATOM      3  C   UNL     1      33.843 -13.879 -24.245  0.00  0.00    +0.056 C 
ATOM      4  C   UNL     1      33.829 -14.719 -25.377  0.00  0.00    +0.006 C 
ATOM      5  C   UNL     1      34.212 -14.401 -22.993  0.00  0.00    +0.042 C 
ATOM      6  C   UNL     1      34.186 -16.070 -25.232  0.00  0.00    +0.008 C 
ATOM      7  C   UNL     1      33.460 -14.181 -26.616  0.00  0.00    +0.021 C 
ATOM      8  C   UNL     1      34.564 -15.745 -22.866  0.00  0.00    +0.143 C 
ATOM      9  C   UNL     1      34.551 -16.577 -23.983  0.00  0.00    +0.087 C 
ATOM     10  C   UNL     1      33.120 -12.837 -26.678  0.00  0.00    +0.102 C 
ENDROOT
BRANCH   9  13
ATOM     11  O   UNL     1      34.234 -18.873 -24.403  0.00  0.00    -0.270 OA
ATOM     12  N   UNL     1      36.071 -18.294 -23.159  0.00  0.00    -0.325 N 
ATOM     13  C   UNL     1      34.917 -17.982 -23.869  0.00  0.00    +0.246 C 
ATOM     14  H   UNL     1      36.351 -19.232 -23.060  0.00  0.00    +0.145 HD
ATOM     15  H   UNL     1      36.608 -17.575 -22.754  0.00  0.00    +0.145 HD
ENDBRANCH   9  13
BRANCH   8  16
ATOM     16  O   UNL     1      34.918 -16.223 -21.641  0.00  0.00    -0.471 OA
ATOM     17  C   UNL     1      34.559 -15.433 -20.509  0.00  0.00    +0.252 C 
ENDBRANCH   8  16
BRANCH   2  18
ATOM     18  O   UNL     1      33.478 -11.677 -23.364  0.00  0.00    -0.458 OA
BRANCH  18  19
ATOM     19  C   UNL     1      33.162 -10.322 -23.641  0.00  0.00    +0.227 C 
BRANCH  19  24
ATOM     20  F   UNL     1      33.578  -7.696 -21.813  0.00  0.00    -0.227 F 
ATOM     21  O   UNL     1      32.405  -9.259 -19.468  0.00  0.00    -0.272 OA
ATOM     22  N   UNL     1      31.973 -10.322 -21.509  0.00  0.00    -0.300 N 
ATOM     23  C   UNL     1      31.561  -8.457 -22.824  0.00  0.00    +0.063 C 
ATOM     24  C   UNL     1      31.879  -9.956 -22.905  0.00  0.00    +0.118 C 
ATOM     25  C   UNL     1      32.285  -8.009 -21.546  0.00  0.00    +0.238 C 
ATOM     26  C   UNL     1      32.218  -9.238 -20.674  0.00  0.00    +0.255 C 
ATOM     27  H   UNL     1      31.874 -11.246 -21.184  0.00  0.00    +0.150 HD
BRANCH  23  28
ATOM     28  C   UNL     1      31.912  -7.626 -24.045  0.00  0.00    +0.005 C 
ATOM     29  C   UNL     1      31.188  -6.295 -24.030  0.00  0.00    +0.000 C 
ENDBRANCH  23  28
ENDBRANCH  19  24
ENDBRANCH  18  19
ENDBRANCH   2  18
TORSDOF 6
ENDMDL
MODEL 6
REMARK VINA RESULT:      -9.1     13.258     16.359
REMARK  Name = 118414016
REMARK  6 active torsions:
REMARK  status: ('A' for Active; 'I' for Inactive)
REMARK    1  A    between atoms: C_2  and  O_18
REMARK    2  A    between atoms: C_8  and  O_16
REMARK    3  A    between atoms: C_9  and  C_13
REMARK    4  A    between atoms: O_18  and  C_19
REMARK    5  A    between atoms: C_19  and  C_24
REMARK    6  A    between atoms: C_23  and  C_28
REMARK                            x       y       z     vdW  Elec       q    Type
REMARK                         _______ _______ _______ _____ _____    ______ ____
ROOT
ATOM      1  N   UNL     1      31.843 -11.787 -21.122  0.00  0.00    -0.210 NA
ATOM      2  C   UNL     1      32.109 -11.902 -22.443  0.00  0.00    +0.225 C 
ATOM      3  C   UNL     1      32.640 -13.043 -23.046  0.00  0.00    +0.056 C 
ATOM      4  C   UNL     1      32.919 -14.148 -22.216  0.00  0.00    +0.006 C 
ATOM      5  C   UNL     1      32.902 -13.122 -24.425  0.00  0.00    +0.042 C 
ATOM      6  C   UNL     1      33.455 -15.314 -22.786  0.00  0.00    +0.008 C 
ATOM      7  C   UNL     1      32.651 -14.050 -20.845  0.00  0.00    +0.021 C 
ATOM      8  C   UNL     1      33.435 -14.288 -24.974  0.00  0.00    +0.143 C 
ATOM      9  C   UNL     1      33.710 -15.381 -24.157  0.00  0.00    +0.087 C 
ATOM     10  C   UNL     1      32.122 -12.865 -20.358  0.00  0.00    +0.102 C 
ENDROOT
BRANCH   9  13
ATOM     11  O   UNL     1      33.719 -17.190 -25.666  0.00  0.00    -0.270 OA
ATOM     12  N   UNL     1      35.443 -17.095 -24.157  0.00  0.00    -0.325 N 
ATOM     13  C   UNL     1      34.266 -16.607 -24.715  0.00  0.00    +0.246 C 
ATOM     14  H   UNL     1      35.848 -17.920 -24.507  0.00  0.00    +0.145 HD
ATOM     15  H   UNL     1      35.870 -16.613 -23.413  0.00  0.00    +0.145 HD
ENDBRANCH   9  13
BRANCH   8  16
ATOM     16  O   UNL     1      33.677 -14.337 -26.314  0.00  0.00    -0.471 OA
ATOM     17  C   UNL     1      33.275 -13.206 -27.086  0.00  0.00    +0.252 C 
ENDBRANCH   8  16
BRANCH   2  18
ATOM     18  O   UNL     1      31.815 -10.794 -23.199  0.00  0.00    -0.458 OA
BRANCH  18  19
ATOM     19  C   UNL     1      31.776  -9.548 -22.523  0.00  0.00    +0.227 C 
BRANCH  19  24
ATOM     20  F   UNL     1      32.718  -6.754 -21.212  0.00  0.00    -0.227 F 
ATOM     21  O   UNL     1      30.215  -5.465 -22.391  0.00  0.00    -0.272 OA
ATOM     22  N   UNL     1      30.641  -7.555 -23.359  0.00  0.00    -0.300 N 
ATOM     23  C   UNL     1      32.954  -7.448 -23.478  0.00  0.00    +0.063 C 
ATOM     24  C   UNL     1      31.776  -8.429 -23.557  0.00  0.00    +0.118 C 
ATOM     25  C   UNL     1      32.463  -6.380 -22.491  0.00  0.00    +0.238 C 
ATOM     26  C   UNL     1      30.974  -6.357 -22.736  0.00  0.00    +0.255 C 
ATOM     27  H   UNL     1      29.726  -7.786 -23.637  0.00  0.00    +0.150 HD
BRANCH  23  28
ATOM     28  C   UNL     1      34.303  -8.042 -23.109  0.00  0.00    +0.005 C 
ATOM     29  C   UNL     1      34.818  -8.955 -24.203  0.00  0.00    +0.000 C 
ENDBRANCH  23  28
ENDBRANCH  19  24
ENDBRANCH  18  19
ENDBRANCH   2  18
TORSDOF 6
ENDMDL
MODEL 7
REMARK VINA RESULT:      -9.1      2.409      4.010
REMARK  Name = 118414016
REMARK  6 active torsions:
REMARK  status: ('A' for Active; 'I' for Inactive)
REMARK    1  A    between atoms: C_2  and  O_18
REMARK    2  A    between atoms: C_8  and  O_16
REMARK    3  A    between atoms: C_9  and  C_13
REMARK    4  A    between atoms: O_18  and  C_19
REMARK    5  A    between atoms: C_19  and  C_24
REMARK    6  A    between atoms: C_23  and  C_28
REMARK                            x       y       z     vdW  Elec       q    Type
REMARK                         _______ _______ _______ _____ _____    ______ ____
ROOT
ATOM      1  N   UNL     1      32.072 -24.236 -13.084  0.00  0.00    -0.210 NA
ATOM      2  C   UNL     1      33.235 -23.847 -13.654  0.00  0.00    +0.225 C 
ATOM      3  C   UNL     1      33.381 -23.515 -15.002  0.00  0.00    +0.056 C 
ATOM      4  C   UNL     1      32.236 -23.594 -15.820  0.00  0.00    +0.006 C 
ATOM      5  C   UNL     1      34.609 -23.114 -15.556  0.00  0.00    +0.042 C 
ATOM      6  C   UNL     1      32.344 -23.269 -17.182  0.00  0.00    +0.008 C 
ATOM      7  C   UNL     1      31.022 -23.995 -15.249  0.00  0.00    +0.021 C 
ATOM      8  C   UNL     1      34.699 -22.795 -16.911  0.00  0.00    +0.143 C 
ATOM      9  C   UNL     1      33.569 -22.871 -17.721  0.00  0.00    +0.087 C 
ATOM     10  C   UNL     1      30.996 -24.300 -13.896  0.00  0.00    +0.102 C 
ENDROOT
BRANCH   9  13
ATOM     11  O   UNL     1      34.127 -23.334 -19.963  0.00  0.00    -0.270 OA
ATOM     12  N   UNL     1      33.137 -21.309 -19.541  0.00  0.00    -0.325 N 
ATOM     13  C   UNL     1      33.644 -22.540 -19.138  0.00  0.00    +0.246 C 
ATOM     14  H   UNL     1      33.169 -21.050 -20.489  0.00  0.00    +0.145 HD
ATOM     15  H   UNL     1      32.745 -20.698 -18.877  0.00  0.00    +0.145 HD
ENDBRANCH   9  13
BRANCH   8  16
ATOM     16  O   UNL     1      35.901 -22.408 -17.421  0.00  0.00    -0.471 OA
ATOM     17  C   UNL     1      36.911 -22.034 -16.485  0.00  0.00    +0.252 C 
ENDBRANCH   8  16
BRANCH   2  18
ATOM     18  O   UNL     1      34.313 -23.787 -12.807  0.00  0.00    -0.458 OA
BRANCH  18  19
ATOM     19  C   UNL     1      35.260 -24.840 -12.898  0.00  0.00    +0.227 C 
BRANCH  19  24
ATOM     20  F   UNL     1      37.977 -26.023 -11.622  0.00  0.00    -0.227 F 
ATOM     21  O   UNL     1      39.050 -23.168 -11.497  0.00  0.00    -0.272 OA
ATOM     22  N   UNL     1      37.168 -23.318 -12.882  0.00  0.00    -0.300 N 
ATOM     23  C   UNL     1      37.598 -25.366 -13.879  0.00  0.00    +0.063 C 
ATOM     24  C   UNL     1      36.485 -24.335 -13.650  0.00  0.00    +0.118 C 
ATOM     25  C   UNL     1      38.464 -25.241 -12.618  0.00  0.00    +0.238 C 
ATOM     26  C   UNL     1      38.317 -23.785 -12.253  0.00  0.00    +0.255 C 
ATOM     27  H   UNL     1      36.851 -22.388 -12.813  0.00  0.00    +0.150 HD
BRANCH  23  28
ATOM     28  C   UNL     1      37.151 -26.788 -14.171  0.00  0.00    +0.005 C 
ATOM     29  C   UNL     1      36.653 -26.926 -15.596  0.00  0.00    +0.000 C 
ENDBRANCH  23  28
ENDBRANCH  19  24
ENDBRANCH  18  19
ENDBRANCH   2  18
TORSDOF 6
ENDMDL
MODEL 8
REMARK VINA RESULT:      -9.0      2.361      7.336
REMARK  Name = 118414016
REMARK  6 active torsions:
REMARK  status: ('A' for Active; 'I' for Inactive)
REMARK    1  A    between atoms: C_2  and  O_18
REMARK    2  A    between atoms: C_8  and  O_16
REMARK    3  A    between atoms: C_9  and  C_13
REMARK    4  A    between atoms: O_18  and  C_19
REMARK    5  A    between atoms: C_19  and  C_24
REMARK    6  A    between atoms: C_23  and  C_28
REMARK                            x       y       z     vdW  Elec       q    Type
REMARK                         _______ _______ _______ _____ _____    ______ ____
ROOT
ATOM      1  N   UNL     1      34.034 -22.648 -17.227  0.00  0.00    -0.210 NA
ATOM      2  C   UNL     1      33.951 -23.304 -16.047  0.00  0.00    +0.225 C 
ATOM      3  C   UNL     1      35.046 -23.635 -15.248  0.00  0.00    +0.056 C 
ATOM      4  C   UNL     1      36.325 -23.257 -15.708  0.00  0.00    +0.006 C 
ATOM      5  C   UNL     1      34.917 -24.319 -14.027  0.00  0.00    +0.042 C 
ATOM      6  C   UNL     1      37.452 -23.574 -14.932  0.00  0.00    +0.008 C 
ATOM      7  C   UNL     1      36.433 -22.577 -16.927  0.00  0.00    +0.021 C 
ATOM      8  C   UNL     1      36.047 -24.625 -13.269  0.00  0.00    +0.143 C 
ATOM      9  C   UNL     1      37.311 -24.253 -13.720  0.00  0.00    +0.087 C 
ATOM     10  C   UNL     1      35.273 -22.302 -17.636  0.00  0.00    +0.102 C 
ENDROOT
BRANCH   9  13
ATOM     11  O   UNL     1      38.980 -23.743 -12.138  0.00  0.00    -0.270 OA
ATOM     12  N   UNL     1      39.077 -25.818 -13.111  0.00  0.00    -0.325 N 
ATOM     13  C   UNL     1      38.502 -24.563 -12.940  0.00  0.00    +0.246 C 
ATOM     14  H   UNL     1      39.882 -26.064 -12.601  0.00  0.00    +0.145 HD
ATOM     15  H   UNL     1      38.678 -26.460 -13.741  0.00  0.00    +0.145 HD
ENDBRANCH   9  13
BRANCH   8  16
ATOM     16  O   UNL     1      35.892 -25.287 -12.088  0.00  0.00    -0.471 OA
ATOM     17  C   UNL     1      35.566 -24.500 -10.944  0.00  0.00    +0.252 C 
ENDBRANCH   8  16
BRANCH   2  18
ATOM     18  O   UNL     1      32.681 -23.644 -15.653  0.00  0.00    -0.458 OA
BRANCH  18  19
ATOM     19  C   UNL     1      31.645 -23.474 -16.607  0.00  0.00    +0.227 C 
BRANCH  19  24
ATOM     20  F   UNL     1      29.094 -25.436 -16.847  0.00  0.00    -0.227 F 
ATOM     21  O   UNL     1      27.481 -23.058 -17.876  0.00  0.00    -0.272 OA
ATOM     22  N   UNL     1      29.486 -22.369 -16.881  0.00  0.00    -0.300 N 
ATOM     23  C   UNL     1      29.564 -23.870 -15.116  0.00  0.00    +0.063 C 
ATOM     24  C   UNL     1      30.427 -22.880 -15.910  0.00  0.00    +0.118 C 
ATOM     25  C   UNL     1      28.568 -24.391 -16.161  0.00  0.00    +0.238 C 
ATOM     26  C   UNL     1      28.393 -23.205 -17.077  0.00  0.00    +0.255 C 
ATOM     27  H   UNL     1      29.608 -21.515 -17.356  0.00  0.00    +0.150 HD
BRANCH  23  28
ATOM     28  C   UNL     1      30.306 -24.972 -14.380  0.00  0.00    +0.005 C 
ATOM     29  C   UNL     1      30.728 -24.522 -12.997  0.00  0.00    +0.000 C 
ENDBRANCH  23  28
ENDBRANCH  19  24
ENDBRANCH  18  19
ENDBRANCH   2  18
TORSDOF 6
ENDMDL
MODEL 9
REMARK VINA RESULT:      -9.0      2.324      4.183
REMARK  Name = 118414016
REMARK  6 active torsions:
REMARK  status: ('A' for Active; 'I' for Inactive)
REMARK    1  A    between atoms: C_2  and  O_18
REMARK    2  A    between atoms: C_8  and  O_16
REMARK    3  A    between atoms: C_9  and  C_13
REMARK    4  A    between atoms: O_18  and  C_19
REMARK    5  A    between atoms: C_19  and  C_24
REMARK    6  A    between atoms: C_23  and  C_28
REMARK                            x       y       z     vdW  Elec       q    Type
REMARK                         _______ _______ _______ _____ _____    ______ ____
ROOT
ATOM      1  N   UNL     1      31.811 -24.519 -13.058  0.00  0.00    -0.210 NA
ATOM      2  C   UNL     1      32.994 -24.240 -13.650  0.00  0.00    +0.225 C 
ATOM      3  C   UNL     1      33.132 -23.751 -14.950  0.00  0.00    +0.056 C 
ATOM      4  C   UNL     1      31.952 -23.536 -15.692  0.00  0.00    +0.006 C 
ATOM      5  C   UNL     1      34.382 -23.474 -15.528  0.00  0.00    +0.042 C 
ATOM      6  C   UNL     1      32.051 -23.045 -17.005  0.00  0.00    +0.008 C 
ATOM      7  C   UNL     1      30.716 -23.818 -15.098  0.00  0.00    +0.021 C 
ATOM      8  C   UNL     1      34.461 -22.986 -16.833  0.00  0.00    +0.143 C 
ATOM      9  C   UNL     1      33.298 -22.773 -17.569  0.00  0.00    +0.087 C 
ATOM     10  C   UNL     1      30.703 -24.301 -13.798  0.00  0.00    +0.102 C 
ENDROOT
BRANCH   9  13
ATOM     11  O   UNL     1      32.806 -21.198 -19.250  0.00  0.00    -0.270 OA
ATOM     12  N   UNL     1      34.084 -23.000 -19.864  0.00  0.00    -0.325 N 
ATOM     13  C   UNL     1      33.362 -22.263 -18.932  0.00  0.00    +0.246 C 
ATOM     14  H   UNL     1      34.150 -22.688 -20.795  0.00  0.00    +0.145 HD
ATOM     15  H   UNL     1      34.529 -23.835 -19.592  0.00  0.00    +0.145 HD
ENDBRANCH   9  13
BRANCH   8  16
ATOM     16  O   UNL     1      35.686 -22.724 -17.368  0.00  0.00    -0.471 OA
ATOM     17  C   UNL     1      36.623 -22.042 -16.537  0.00  0.00    +0.252 C 
ENDBRANCH   8  16
BRANCH   2  18
ATOM     18  O   UNL     1      34.105 -24.468 -12.876  0.00  0.00    -0.458 OA
BRANCH  18  19
ATOM     19  C   UNL     1      35.357 -24.495 -13.543  0.00  0.00    +0.227 C 
BRANCH  19  24
ATOM     20  F   UNL     1      38.372 -24.199 -14.654  0.00  0.00    -0.227 F 
ATOM     21  O   UNL     1      38.532 -27.245 -14.759  0.00  0.00    -0.272 OA
ATOM     22  N   UNL     1      36.711 -26.525 -13.475  0.00  0.00    -0.300 N 
ATOM     23  C   UNL     1      37.687 -24.700 -12.430  0.00  0.00    +0.063 C 
ATOM     24  C   UNL     1      36.327 -25.345 -12.732  0.00  0.00    +0.118 C 
ATOM     25  C   UNL     1      38.542 -25.088 -13.644  0.00  0.00    +0.238 C 
ATOM     26  C   UNL     1      37.980 -26.432 -14.035  0.00  0.00    +0.255 C 
ATOM     27  H   UNL     1      36.131 -27.315 -13.573  0.00  0.00    +0.150 HD
BRANCH  23  28
ATOM     28  C   UNL     1      37.677 -23.209 -12.144  0.00  0.00    +0.005 C 
ATOM     29  C   UNL     1      36.787 -22.882 -10.962  0.00  0.00    +0.000 C 
ENDBRANCH  23  28
ENDBRANCH  19  24
ENDBRANCH  18  19
ENDBRANCH   2  18
TORSDOF 6
ENDMDL
