MODEL 1
REMARK VINA RESULT:     -10.4      0.000      0.000
REMARK  Name = 10680
REMARK  1 active torsions:
REMARK  status: ('A' for Active; 'I' for Inactive)
REMARK    1  A    between atoms: C_4  and  C_12
REMARK                            x       y       z     vdW  Elec       q    Type
REMARK                         _______ _______ _______ _____ _____    ______ ____
ROOT
ATOM      1  O   UNL     1      34.382 -17.747 -21.019  0.00  0.00    -0.453 OA
ATOM      2  O   UNL     1      34.822 -18.147 -25.049  0.00  0.00    -0.286 OA
ATOM      3  C   UNL     1      34.503 -16.701 -23.208  0.00  0.00    +0.074 C 
ATOM      4  C   UNL     1      34.570 -18.987 -21.611  0.00  0.00    +0.148 C 
ATOM      5  C   UNL     1      34.357 -16.636 -21.823  0.00  0.00    +0.148 C 
ATOM      6  C   UNL     1      34.693 -18.016 -23.840  0.00  0.00    +0.202 C 
ATOM      7  C   UNL     1      34.716 -19.180 -22.932  0.00  0.00    +0.080 C 
ATOM      8  C   UNL     1      34.469 -15.537 -23.977  0.00  0.00    +0.006 C 
ATOM      9  C   UNL     1      34.175 -15.402 -21.199  0.00  0.00    +0.038 C 
ATOM     10  C   UNL     1      34.287 -14.303 -23.350  0.00  0.00    +0.000 C 
ATOM     11  C   UNL     1      34.139 -14.236 -21.964  0.00  0.00    +0.003 C 
ENDROOT
BRANCH   4  12
ATOM     12  C   UNL     1      34.576 -20.113 -20.655  0.00  0.00    +0.035 C 
ATOM     13  C   UNL     1      33.371 -20.628 -20.170  0.00  0.00    +0.003 C 
ATOM     14  C   UNL     1      35.786 -20.668 -20.232  0.00  0.00    +0.003 C 
ATOM     15  C   UNL     1      33.376 -21.691 -19.266  0.00  0.00    +0.000 C 
ATOM     16  C   UNL     1      35.791 -21.731 -19.328  0.00  0.00    +0.000 C 
ATOM     17  C   UNL     1      34.587 -22.242 -18.846  0.00  0.00    +0.000 C 
ENDBRANCH   4  12
TORSDOF 1
ENDMDL
MODEL 2
REMARK VINA RESULT:     -10.1      1.180      1.865
REMARK  Name = 10680
REMARK  1 active torsions:
REMARK  status: ('A' for Active; 'I' for Inactive)
REMARK    1  A    between atoms: C_4  and  C_12
REMARK                            x       y       z     vdW  Elec       q    Type
REMARK                         _______ _______ _______ _____ _____    ______ ____
ROOT
ATOM      1  O   UNL     1      34.003 -16.826 -21.673  0.00  0.00    -0.453 OA
ATOM      2  O   UNL     1      34.833 -16.822 -25.662  0.00  0.00    -0.286 OA
ATOM      3  C   UNL     1      33.924 -15.671 -23.809  0.00  0.00    +0.074 C 
ATOM      4  C   UNL     1      34.631 -17.899 -22.287  0.00  0.00    +0.148 C 
ATOM      5  C   UNL     1      33.668 -15.738 -22.440  0.00  0.00    +0.148 C 
ATOM      6  C   UNL     1      34.583 -16.812 -24.464  0.00  0.00    +0.202 C 
ATOM      7  C   UNL     1      34.926 -17.955 -23.595  0.00  0.00    +0.080 C 
ATOM      8  C   UNL     1      33.561 -14.539 -24.541  0.00  0.00    +0.006 C 
ATOM      9  C   UNL     1      33.043 -14.671 -21.795  0.00  0.00    +0.038 C 
ATOM     10  C   UNL     1      32.936 -13.472 -23.892  0.00  0.00    +0.000 C 
ATOM     11  C   UNL     1      32.678 -13.538 -22.522  0.00  0.00    +0.003 C 
ENDROOT
BRANCH   4  12
ATOM     12  C   UNL     1      34.943 -19.014 -21.370  0.00  0.00    +0.035 C 
ATOM     13  C   UNL     1      36.269 -19.282 -21.017  0.00  0.00    +0.003 C 
ATOM     14  C   UNL     1      33.916 -19.808 -20.854  0.00  0.00    +0.003 C 
ATOM     15  C   UNL     1      36.565 -20.336 -20.152  0.00  0.00    +0.000 C 
ATOM     16  C   UNL     1      34.212 -20.861 -19.990  0.00  0.00    +0.000 C 
ATOM     17  C   UNL     1      35.536 -21.125 -19.639  0.00  0.00    +0.000 C 
ENDBRANCH   4  12
TORSDOF 1
ENDMDL
MODEL 3
REMARK VINA RESULT:      -9.7      1.508      5.920
REMARK  Name = 10680
REMARK  1 active torsions:
REMARK  status: ('A' for Active; 'I' for Inactive)
REMARK    1  A    between atoms: C_4  and  C_12
REMARK                            x       y       z     vdW  Elec       q    Type
REMARK                         _______ _______ _______ _____ _____    ______ ____
ROOT
ATOM      1  O   UNL     1      33.634 -18.482 -21.066  0.00  0.00    -0.453 OA
ATOM      2  O   UNL     1      37.635 -19.252 -21.053  0.00  0.00    -0.286 OA
ATOM      3  C   UNL     1      35.453 -20.004 -20.542  0.00  0.00    +0.074 C 
ATOM      4  C   UNL     1      34.554 -17.568 -21.559  0.00  0.00    +0.148 C 
ATOM      5  C   UNL     1      34.099 -19.676 -20.575  0.00  0.00    +0.148 C 
ATOM      6  C   UNL     1      36.431 -19.033 -21.055  0.00  0.00    +0.202 C 
ATOM      7  C   UNL     1      35.881 -17.765 -21.576  0.00  0.00    +0.080 C 
ATOM      8  C   UNL     1      35.870 -21.235 -20.030  0.00  0.00    +0.006 C 
ATOM      9  C   UNL     1      33.151 -20.578 -20.093  0.00  0.00    +0.038 C 
ATOM     10  C   UNL     1      34.919 -22.136 -19.548  0.00  0.00    +0.000 C 
ATOM     11  C   UNL     1      33.563 -21.808 -19.580  0.00  0.00    +0.003 C 
ENDROOT
BRANCH   4  12
ATOM     12  C   UNL     1      33.947 -16.317 -22.059  0.00  0.00    +0.035 C 
ATOM     13  C   UNL     1      33.074 -15.587 -21.246  0.00  0.00    +0.003 C 
ATOM     14  C   UNL     1      34.240 -15.859 -23.345  0.00  0.00    +0.003 C 
ATOM     15  C   UNL     1      32.500 -14.407 -21.717  0.00  0.00    +0.000 C 
ATOM     16  C   UNL     1      33.665 -14.679 -23.816  0.00  0.00    +0.000 C 
ATOM     17  C   UNL     1      32.796 -13.953 -23.003  0.00  0.00    +0.000 C 
ENDBRANCH   4  12
TORSDOF 1
ENDMDL
MODEL 4
REMARK VINA RESULT:      -9.4      1.582      2.808
REMARK  Name = 10680
REMARK  1 active torsions:
REMARK  status: ('A' for Active; 'I' for Inactive)
REMARK    1  A    between atoms: C_4  and  C_12
REMARK                            x       y       z     vdW  Elec       q    Type
REMARK                         _______ _______ _______ _____ _____    ______ ____
ROOT
ATOM      1  O   UNL     1      34.484 -17.569 -23.142  0.00  0.00    -0.453 OA
ATOM      2  O   UNL     1      33.529 -14.173 -21.104  0.00  0.00    -0.286 OA
ATOM      3  C   UNL     1      33.719 -15.264 -23.192  0.00  0.00    +0.074 C 
ATOM      4  C   UNL     1      34.562 -17.504 -21.759  0.00  0.00    +0.148 C 
ATOM      5  C   UNL     1      34.063 -16.457 -23.826  0.00  0.00    +0.148 C 
ATOM      6  C   UNL     1      33.810 -15.189 -21.725  0.00  0.00    +0.202 C 
ATOM      7  C   UNL     1      34.264 -16.413 -21.035  0.00  0.00    +0.080 C 
ATOM      8  C   UNL     1      33.298 -14.163 -23.939  0.00  0.00    +0.006 C 
ATOM      9  C   UNL     1      33.988 -16.554 -25.215  0.00  0.00    +0.038 C 
ATOM     10  C   UNL     1      33.223 -14.263 -25.329  0.00  0.00    +0.000 C 
ATOM     11  C   UNL     1      33.568 -15.456 -25.966  0.00  0.00    +0.003 C 
ENDROOT
BRANCH   4  12
ATOM     12  C   UNL     1      35.028 -18.754 -21.125  0.00  0.00    +0.035 C 
ATOM     13  C   UNL     1      34.104 -19.717 -20.710  0.00  0.00    +0.003 C 
ATOM     14  C   UNL     1      36.394 -18.979 -20.936  0.00  0.00    +0.003 C 
ATOM     15  C   UNL     1      34.544 -20.898 -20.110  0.00  0.00    +0.000 C 
ATOM     16  C   UNL     1      36.833 -20.159 -20.337  0.00  0.00    +0.000 C 
ATOM     17  C   UNL     1      35.909 -21.118 -19.924  0.00  0.00    +0.000 C 
ENDBRANCH   4  12
TORSDOF 1
ENDMDL
MODEL 5
REMARK VINA RESULT:      -9.4      3.234      7.196
REMARK  Name = 10680
REMARK  1 active torsions:
REMARK  status: ('A' for Active; 'I' for Inactive)
REMARK    1  A    between atoms: C_4  and  C_12
REMARK                            x       y       z     vdW  Elec       q    Type
REMARK                         _______ _______ _______ _____ _____    ______ ____
ROOT
ATOM      1  O   UNL     1      33.957 -14.452 -22.886  0.00  0.00    -0.453 OA
ATOM      2  O   UNL     1      33.291 -15.746 -26.691  0.00  0.00    -0.286 OA
ATOM      3  C   UNL     1      34.172 -16.211 -24.548  0.00  0.00    +0.074 C 
ATOM      4  C   UNL     1      33.309 -13.660 -23.822  0.00  0.00    +0.148 C 
ATOM      5  C   UNL     1      34.370 -15.705 -23.264  0.00  0.00    +0.148 C 
ATOM      6  C   UNL     1      33.493 -15.369 -25.545  0.00  0.00    +0.202 C 
ATOM      7  C   UNL     1      33.066 -14.031 -25.088  0.00  0.00    +0.080 C 
ATOM      8  C   UNL     1      34.613 -17.494 -24.878  0.00  0.00    +0.006 C 
ATOM      9  C   UNL     1      35.013 -16.482 -22.301  0.00  0.00    +0.038 C 
ATOM     10  C   UNL     1      35.256 -18.269 -23.911  0.00  0.00    +0.000 C 
ATOM     11  C   UNL     1      35.456 -17.764 -22.626  0.00  0.00    +0.003 C 
ENDROOT
BRANCH   4  12
ATOM     12  C   UNL     1      32.912 -12.332 -23.310  0.00  0.00    +0.035 C 
ATOM     13  C   UNL     1      33.460 -11.174 -23.869  0.00  0.00    +0.003 C 
ATOM     14  C   UNL     1      31.990 -12.228 -22.267  0.00  0.00    +0.003 C 
ATOM     15  C   UNL     1      33.086  -9.919 -23.386  0.00  0.00    +0.000 C 
ATOM     16  C   UNL     1      31.617 -10.973 -21.784  0.00  0.00    +0.000 C 
ATOM     17  C   UNL     1      32.165  -9.820 -22.344  0.00  0.00    +0.000 C 
ENDBRANCH   4  12
TORSDOF 1
ENDMDL
MODEL 6
REMARK VINA RESULT:      -9.4      2.465      6.748
REMARK  Name = 10680
REMARK  1 active torsions:
REMARK  status: ('A' for Active; 'I' for Inactive)
REMARK    1  A    between atoms: C_4  and  C_12
REMARK                            x       y       z     vdW  Elec       q    Type
REMARK                         _______ _______ _______ _____ _____    ______ ____
ROOT
ATOM      1  O   UNL     1      34.094 -15.047 -22.269  0.00  0.00    -0.453 OA
ATOM      2  O   UNL     1      34.368 -16.807 -25.933  0.00  0.00    -0.286 OA
ATOM      3  C   UNL     1      34.706 -16.984 -23.601  0.00  0.00    +0.074 C 
ATOM      4  C   UNL     1      33.690 -14.393 -23.423  0.00  0.00    +0.148 C 
ATOM      5  C   UNL     1      34.587 -16.323 -22.379  0.00  0.00    +0.148 C 
ATOM      6  C   UNL     1      34.287 -16.289 -24.827  0.00  0.00    +0.202 C 
ATOM      7  C   UNL     1      33.761 -14.920 -24.655  0.00  0.00    +0.080 C 
ATOM      8  C   UNL     1      35.216 -18.283 -23.654  0.00  0.00    +0.006 C 
ATOM      9  C   UNL     1      34.979 -16.959 -21.202  0.00  0.00    +0.038 C 
ATOM     10  C   UNL     1      35.607 -18.917 -22.473  0.00  0.00    +0.000 C 
ATOM     11  C   UNL     1      35.489 -18.256 -21.250  0.00  0.00    +0.003 C 
ENDROOT
BRANCH   4  12
ATOM     12  C   UNL     1      33.180 -13.026 -23.190  0.00  0.00    +0.035 C 
ATOM     13  C   UNL     1      33.694 -11.952 -23.922  0.00  0.00    +0.003 C 
ATOM     14  C   UNL     1      32.185 -12.801 -22.237  0.00  0.00    +0.003 C 
ATOM     15  C   UNL     1      33.214 -10.661 -23.702  0.00  0.00    +0.000 C 
ATOM     16  C   UNL     1      31.705 -11.510 -22.017  0.00  0.00    +0.000 C 
ATOM     17  C   UNL     1      32.219 -10.440 -22.749  0.00  0.00    +0.000 C 
ENDBRANCH   4  12
TORSDOF 1
ENDMDL
MODEL 7
REMARK VINA RESULT:      -9.3      8.612     12.332
REMARK  Name = 10680
REMARK  1 active torsions:
REMARK  status: ('A' for Active; 'I' for Inactive)
REMARK    1  A    between atoms: C_4  and  C_12
REMARK                            x       y       z     vdW  Elec       q    Type
REMARK                         _______ _______ _______ _____ _____    ______ ____
ROOT
ATOM      1  O   UNL     1      32.256  -8.545 -23.034  0.00  0.00    -0.453 OA
ATOM      2  O   UNL     1      32.786  -7.041 -19.285  0.00  0.00    -0.286 OA
ATOM      3  C   UNL     1      32.096  -8.858 -20.630  0.00  0.00    +0.074 C 
ATOM      4  C   UNL     1      32.765  -7.272 -22.825  0.00  0.00    +0.148 C 
ATOM      5  C   UNL     1      31.938  -9.309 -21.939  0.00  0.00    +0.148 C 
ATOM      6  C   UNL     1      32.626  -7.504 -20.406  0.00  0.00    +0.202 C 
ATOM      7  C   UNL     1      32.957  -6.723 -21.615  0.00  0.00    +0.080 C 
ATOM      8  C   UNL     1      31.755  -9.678 -19.554  0.00  0.00    +0.006 C 
ATOM      9  C   UNL     1      31.436 -10.588 -22.180  0.00  0.00    +0.038 C 
ATOM     10  C   UNL     1      31.252 -10.958 -19.797  0.00  0.00    +0.000 C 
ATOM     11  C   UNL     1      31.093 -11.411 -21.107  0.00  0.00    +0.003 C 
ENDROOT
BRANCH   4  12
ATOM     12  C   UNL     1      33.069  -6.537 -24.070  0.00  0.00    +0.035 C 
ATOM     13  C   UNL     1      32.122  -5.670 -24.622  0.00  0.00    +0.003 C 
ATOM     14  C   UNL     1      34.304  -6.705 -24.701  0.00  0.00    +0.003 C 
ATOM     15  C   UNL     1      32.408  -4.976 -25.797  0.00  0.00    +0.000 C 
ATOM     16  C   UNL     1      34.590  -6.011 -25.876  0.00  0.00    +0.000 C 
ATOM     17  C   UNL     1      33.643  -5.146 -26.424  0.00  0.00    +0.000 C 
ENDBRANCH   4  12
TORSDOF 1
ENDMDL
MODEL 8
REMARK VINA RESULT:      -9.2      1.246      2.696
REMARK  Name = 10680
REMARK  1 active torsions:
REMARK  status: ('A' for Active; 'I' for Inactive)
REMARK    1  A    between atoms: C_4  and  C_12
REMARK                            x       y       z     vdW  Elec       q    Type
REMARK                         _______ _______ _______ _____ _____    ______ ____
ROOT
ATOM      1  O   UNL     1      34.580 -18.731 -22.788  0.00  0.00    -0.453 OA
ATOM      2  O   UNL     1      34.682 -14.970 -21.223  0.00  0.00    -0.286 OA
ATOM      3  C   UNL     1      34.419 -16.332 -23.137  0.00  0.00    +0.074 C 
ATOM      4  C   UNL     1      34.785 -18.511 -21.434  0.00  0.00    +0.148 C 
ATOM      5  C   UNL     1      34.398 -17.645 -23.606  0.00  0.00    +0.148 C 
ATOM      6  C   UNL     1      34.646 -16.095 -21.703  0.00  0.00    +0.202 C 
ATOM      7  C   UNL     1      34.833 -17.296 -20.864  0.00  0.00    +0.080 C 
ATOM      8  C   UNL     1      34.228 -15.264 -24.016  0.00  0.00    +0.006 C 
ATOM      9  C   UNL     1      34.186 -17.896 -24.961  0.00  0.00    +0.038 C 
ATOM     10  C   UNL     1      34.017 -15.520 -25.372  0.00  0.00    +0.000 C 
ATOM     11  C   UNL     1      33.996 -16.833 -25.843  0.00  0.00    +0.003 C 
ENDROOT
BRANCH   4  12
ATOM     12  C   UNL     1      34.973 -19.747 -20.647  0.00  0.00    +0.035 C 
ATOM     13  C   UNL     1      36.260 -20.178 -20.315  0.00  0.00    +0.003 C 
ATOM     14  C   UNL     1      33.866 -20.491 -20.233  0.00  0.00    +0.003 C 
ATOM     15  C   UNL     1      36.439 -21.346 -19.573  0.00  0.00    +0.000 C 
ATOM     16  C   UNL     1      34.044 -21.658 -19.491  0.00  0.00    +0.000 C 
ATOM     17  C   UNL     1      35.330 -22.086 -19.161  0.00  0.00    +0.000 C 
ENDBRANCH   4  12
TORSDOF 1
ENDMDL
MODEL 9
REMARK VINA RESULT:      -9.2      4.525      7.292
REMARK  Name = 10680
REMARK  1 active torsions:
REMARK  status: ('A' for Active; 'I' for Inactive)
REMARK    1  A    between atoms: C_4  and  C_12
REMARK                            x       y       z     vdW  Elec       q    Type
REMARK                         _______ _______ _______ _____ _____    ______ ____
ROOT
ATOM      1  O   UNL     1      32.326 -22.405 -17.994  0.00  0.00    -0.453 OA
ATOM      2  O   UNL     1      36.003 -23.228 -16.445  0.00  0.00    -0.286 OA
ATOM      3  C   UNL     1      34.742 -22.202 -18.160  0.00  0.00    +0.074 C 
ATOM      4  C   UNL     1      32.477 -23.123 -16.817  0.00  0.00    +0.148 C 
ATOM      5  C   UNL     1      33.454 -21.958 -18.635  0.00  0.00    +0.148 C 
ATOM      6  C   UNL     1      34.904 -22.972 -16.917  0.00  0.00    +0.202 C 
ATOM      7  C   UNL     1      33.661 -23.427 -16.263  0.00  0.00    +0.080 C 
ATOM      8  C   UNL     1      35.854 -21.724 -18.855  0.00  0.00    +0.006 C 
ATOM      9  C   UNL     1      33.272 -21.232 -19.813  0.00  0.00    +0.038 C 
ATOM     10  C   UNL     1      35.669 -20.998 -20.033  0.00  0.00    +0.000 C 
ATOM     11  C   UNL     1      34.380 -20.753 -20.510  0.00  0.00    +0.003 C 
ENDROOT
BRANCH   4  12
ATOM     12  C   UNL     1      31.200 -23.557 -16.213  0.00  0.00    +0.035 C 
ATOM     13  C   UNL     1      30.009 -22.908 -16.548  0.00  0.00    +0.003 C 
ATOM     14  C   UNL     1      31.178 -24.617 -15.304  0.00  0.00    +0.003 C 
ATOM     15  C   UNL     1      28.803 -23.317 -15.978  0.00  0.00    +0.000 C 
ATOM     16  C   UNL     1      29.973 -25.026 -14.733  0.00  0.00    +0.000 C 
ATOM     17  C   UNL     1      28.786 -24.376 -15.070  0.00  0.00    +0.000 C 
ENDBRANCH   4  12
TORSDOF 1
ENDMDL
