MODEL 1
REMARK VINA RESULT:      -6.7      0.000      0.000
REMARK  Name = 10715
REMARK  4 active torsions:
REMARK  status: ('A' for Active; 'I' for Inactive)
REMARK    1  A    between atoms: C_5  and  C_10
REMARK    2  A    between atoms: C_10  and  C_11
REMARK    3  A    between atoms: C_10  and  C_14
REMARK    4  A    between atoms: C_14  and  C_15
REMARK                            x       y       z     vdW  Elec       q    Type
REMARK                         _______ _______ _______ _____ _____    ______ ____
ROOT
ATOM      1  O   UNL     1      36.048 -18.927 -20.623  0.00  0.00    -0.275 OA
ATOM      2  O   UNL     1      35.060 -21.285 -19.456  0.00  0.00    -0.253 OA
ATOM      3  N   UNL     1      33.862 -19.725 -20.715  0.00  0.00    -0.240 N 
ATOM      4  N   UNL     1      32.820 -21.592 -19.861  0.00  0.00    -0.313 N 
ATOM      5  C   UNL     1      34.882 -18.814 -20.998  0.00  0.00    +0.229 C 
ATOM      6  C   UNL     1      34.012 -20.897 -19.968  0.00  0.00    +0.303 C 
ATOM      7  H   UNL     1      32.966 -19.526 -21.071  0.00  0.00    +0.159 HD
ATOM      8  H   UNL     1      32.786 -22.437 -19.358  0.00  0.00    +0.146 HD
ATOM      9  H   UNL     1      32.005 -21.241 -20.288  0.00  0.00    +0.146 HD
ENDROOT
BRANCH   5  10
ATOM     10  C   UNL     1      34.395 -17.645 -21.868  0.00  0.00    +0.081 C 
BRANCH  10  11
ATOM     11  C   UNL     1      35.172 -17.650 -23.216  0.00  0.00    +0.009 C 
ATOM     12  C   UNL     1      34.920 -16.404 -24.070  0.00  0.00    +0.001 C 
ATOM     13  C   UNL     1      34.869 -18.911 -24.034  0.00  0.00    +0.001 C 
ENDBRANCH  10  11
BRANCH  10  14
ATOM     14  C   UNL     1      34.481 -16.306 -21.105  0.00  0.00    +0.035 C 
BRANCH  14  15
ATOM     15  C   UNL     1      33.121 -15.721 -20.836  0.00  0.00    -0.026 C 
ATOM     16  C   UNL     1      32.606 -14.681 -21.502  0.00  0.00    -0.005 C 
ENDBRANCH  14  15
ENDBRANCH  10  14
ENDBRANCH   5  10
TORSDOF 4
ENDMDL
MODEL 2
REMARK VINA RESULT:      -6.7      2.573      4.731
REMARK  Name = 10715
REMARK  4 active torsions:
REMARK  status: ('A' for Active; 'I' for Inactive)
REMARK    1  A    between atoms: C_5  and  C_10
REMARK    2  A    between atoms: C_10  and  C_11
REMARK    3  A    between atoms: C_10  and  C_14
REMARK    4  A    between atoms: C_14  and  C_15
REMARK                            x       y       z     vdW  Elec       q    Type
REMARK                         _______ _______ _______ _____ _____    ______ ____
ROOT
ATOM      1  O   UNL     1      35.404 -16.969 -20.418  0.00  0.00    -0.275 OA
ATOM      2  O   UNL     1      34.376 -14.374 -20.746  0.00  0.00    -0.253 OA
ATOM      3  N   UNL     1      33.695 -16.313 -21.857  0.00  0.00    -0.240 N 
ATOM      4  N   UNL     1      32.689 -14.291 -22.304  0.00  0.00    -0.313 N 
ATOM      5  C   UNL     1      34.561 -17.239 -21.272  0.00  0.00    +0.229 C 
ATOM      6  C   UNL     1      33.654 -14.947 -21.561  0.00  0.00    +0.303 C 
ATOM      7  H   UNL     1      33.061 -16.650 -22.532  0.00  0.00    +0.159 HD
ATOM      8  H   UNL     1      32.556 -13.322 -22.192  0.00  0.00    +0.146 HD
ATOM      9  H   UNL     1      32.135 -14.793 -22.944  0.00  0.00    +0.146 HD
ENDROOT
BRANCH   5  10
ATOM     10  C   UNL     1      34.331 -18.665 -21.795  0.00  0.00    +0.081 C 
BRANCH  10  11
ATOM     11  C   UNL     1      34.380 -19.664 -20.603  0.00  0.00    +0.009 C 
ATOM     12  C   UNL     1      35.586 -20.607 -20.646  0.00  0.00    +0.001 C 
ATOM     13  C   UNL     1      33.086 -20.478 -20.499  0.00  0.00    +0.001 C 
ENDBRANCH  10  11
BRANCH  10  14
ATOM     14  C   UNL     1      35.313 -19.009 -22.935  0.00  0.00    +0.035 C 
BRANCH  14  15
ATOM     15  C   UNL     1      34.640 -19.005 -24.281  0.00  0.00    -0.026 C 
ATOM     16  C   UNL     1      34.535 -17.926 -25.065  0.00  0.00    -0.005 C 
ENDBRANCH  14  15
ENDBRANCH  10  14
ENDBRANCH   5  10
TORSDOF 4
ENDMDL
MODEL 3
REMARK VINA RESULT:      -6.6      8.964     10.773
REMARK  Name = 10715
REMARK  4 active torsions:
REMARK  status: ('A' for Active; 'I' for Inactive)
REMARK    1  A    between atoms: C_5  and  C_10
REMARK    2  A    between atoms: C_10  and  C_11
REMARK    3  A    between atoms: C_10  and  C_14
REMARK    4  A    between atoms: C_14  and  C_15
REMARK                            x       y       z     vdW  Elec       q    Type
REMARK                         _______ _______ _______ _____ _____    ______ ____
ROOT
ATOM      1  O   UNL     1      32.720  -7.450 -19.514  0.00  0.00    -0.275 OA
ATOM      2  O   UNL     1      31.919  -9.962 -18.540  0.00  0.00    -0.253 OA
ATOM      3  N   UNL     1      32.085  -9.302 -20.775  0.00  0.00    -0.240 N 
ATOM      4  N   UNL     1      31.401 -11.432 -20.229  0.00  0.00    -0.313 N 
ATOM      5  C   UNL     1      32.520  -7.986 -20.602  0.00  0.00    +0.229 C 
ATOM      6  C   UNL     1      31.814 -10.204 -19.741  0.00  0.00    +0.303 C 
ATOM      7  H   UNL     1      31.961  -9.620 -21.698  0.00  0.00    +0.159 HD
ATOM      8  H   UNL     1      31.177 -12.159 -19.604  0.00  0.00    +0.146 HD
ATOM      9  H   UNL     1      31.332 -11.578 -21.200  0.00  0.00    +0.146 HD
ENDROOT
BRANCH   5  10
ATOM     10  C   UNL     1      32.755  -7.269 -21.941  0.00  0.00    +0.081 C 
BRANCH  10  11
ATOM     11  C   UNL     1      31.396  -6.745 -22.487  0.00  0.00    +0.009 C 
ATOM     12  C   UNL     1      30.925  -7.472 -23.750  0.00  0.00    +0.001 C 
ATOM     13  C   UNL     1      31.438  -5.234 -22.742  0.00  0.00    +0.001 C 
ENDBRANCH  10  11
BRANCH  10  14
ATOM     14  C   UNL     1      33.518  -8.172 -22.934  0.00  0.00    +0.035 C 
BRANCH  14  15
ATOM     15  C   UNL     1      34.656  -7.445 -23.598  0.00  0.00    -0.026 C 
ATOM     16  C   UNL     1      34.537  -6.740 -24.729  0.00  0.00    -0.005 C 
ENDBRANCH  14  15
ENDBRANCH  10  14
ENDBRANCH   5  10
TORSDOF 4
ENDMDL
MODEL 4
REMARK VINA RESULT:      -6.4      1.633      3.014
REMARK  Name = 10715
REMARK  4 active torsions:
REMARK  status: ('A' for Active; 'I' for Inactive)
REMARK    1  A    between atoms: C_5  and  C_10
REMARK    2  A    between atoms: C_10  and  C_11
REMARK    3  A    between atoms: C_10  and  C_14
REMARK    4  A    between atoms: C_14  and  C_15
REMARK                            x       y       z     vdW  Elec       q    Type
REMARK                         _______ _______ _______ _____ _____    ______ ____
ROOT
ATOM      1  O   UNL     1      33.337 -18.969 -20.962  0.00  0.00    -0.275 OA
ATOM      2  O   UNL     1      33.829 -21.320 -19.503  0.00  0.00    -0.253 OA
ATOM      3  N   UNL     1      35.414 -19.882 -20.437  0.00  0.00    -0.240 N 
ATOM      4  N   UNL     1      36.073 -21.758 -19.278  0.00  0.00    -0.313 N 
ATOM      5  C   UNL     1      34.565 -18.933 -21.012  0.00  0.00    +0.229 C 
ATOM      6  C   UNL     1      34.998 -21.009 -19.723  0.00  0.00    +0.303 C 
ATOM      7  H   UNL     1      36.384 -19.745 -20.544  0.00  0.00    +0.159 HD
ATOM      8  H   UNL     1      35.918 -22.581 -18.760  0.00  0.00    +0.146 HD
ATOM      9  H   UNL     1      36.992 -21.469 -19.479  0.00  0.00    +0.146 HD
ENDROOT
BRANCH   5  10
ATOM     10  C   UNL     1      35.339 -17.800 -21.703  0.00  0.00    +0.081 C 
BRANCH  10  11
ATOM     11  C   UNL     1      34.437 -16.535 -21.781  0.00  0.00    +0.009 C 
ATOM     12  C   UNL     1      34.724 -15.656 -23.002  0.00  0.00    +0.001 C 
ATOM     13  C   UNL     1      34.531 -15.697 -20.502  0.00  0.00    +0.001 C 
ENDBRANCH  10  11
BRANCH  10  14
ATOM     14  C   UNL     1      35.894 -18.254 -23.070  0.00  0.00    +0.035 C 
BRANCH  14  15
ATOM     15  C   UNL     1      34.920 -19.127 -23.814  0.00  0.00    -0.026 C 
ATOM     16  C   UNL     1      34.322 -18.778 -24.958  0.00  0.00    -0.005 C 
ENDBRANCH  14  15
ENDBRANCH  10  14
ENDBRANCH   5  10
TORSDOF 4
ENDMDL
MODEL 5
REMARK VINA RESULT:      -6.4      3.432      4.856
REMARK  Name = 10715
REMARK  4 active torsions:
REMARK  status: ('A' for Active; 'I' for Inactive)
REMARK    1  A    between atoms: C_5  and  C_10
REMARK    2  A    between atoms: C_10  and  C_11
REMARK    3  A    between atoms: C_10  and  C_14
REMARK    4  A    between atoms: C_14  and  C_15
REMARK                            x       y       z     vdW  Elec       q    Type
REMARK                         _______ _______ _______ _____ _____    ______ ____
ROOT
ATOM      1  O   UNL     1      35.025 -17.974 -24.588  0.00  0.00    -0.275 OA
ATOM      2  O   UNL     1      33.825 -16.083 -26.287  0.00  0.00    -0.253 OA
ATOM      3  N   UNL     1      34.036 -15.960 -23.964  0.00  0.00    -0.240 N 
ATOM      4  N   UNL     1      33.005 -14.270 -25.138  0.00  0.00    -0.313 N 
ATOM      5  C   UNL     1      34.701 -17.165 -23.722  0.00  0.00    +0.229 C 
ATOM      6  C   UNL     1      33.642 -15.496 -25.222  0.00  0.00    +0.303 C 
ATOM      7  H   UNL     1      33.829 -15.393 -23.186  0.00  0.00    +0.159 HD
ATOM      8  H   UNL     1      32.676 -13.830 -25.955  0.00  0.00    +0.146 HD
ATOM      9  H   UNL     1      32.881 -13.838 -24.262  0.00  0.00    +0.146 HD
ENDROOT
BRANCH   5  10
ATOM     10  C   UNL     1      35.017 -17.367 -22.231  0.00  0.00    +0.081 C 
BRANCH  10  11
ATOM     11  C   UNL     1      35.302 -18.874 -21.967  0.00  0.00    +0.009 C 
ATOM     12  C   UNL     1      34.100 -19.631 -21.394  0.00  0.00    +0.001 C 
ATOM     13  C   UNL     1      36.519 -19.064 -21.056  0.00  0.00    +0.001 C 
ENDBRANCH  10  11
BRANCH  10  14
ATOM     14  C   UNL     1      33.905 -16.779 -21.338  0.00  0.00    +0.035 C 
BRANCH  14  15
ATOM     15  C   UNL     1      34.419 -15.682 -20.444  0.00  0.00    -0.026 C 
ATOM     16  C   UNL     1      34.565 -14.408 -20.827  0.00  0.00    -0.005 C 
ENDBRANCH  14  15
ENDBRANCH  10  14
ENDBRANCH   5  10
TORSDOF 4
ENDMDL
MODEL 6
REMARK VINA RESULT:      -6.4      5.184      7.089
REMARK  Name = 10715
REMARK  4 active torsions:
REMARK  status: ('A' for Active; 'I' for Inactive)
REMARK    1  A    between atoms: C_5  and  C_10
REMARK    2  A    between atoms: C_10  and  C_11
REMARK    3  A    between atoms: C_10  and  C_14
REMARK    4  A    between atoms: C_14  and  C_15
REMARK                            x       y       z     vdW  Elec       q    Type
REMARK                         _______ _______ _______ _____ _____    ______ ____
ROOT
ATOM      1  O   UNL     1      32.015 -12.776 -22.413  0.00  0.00    -0.275 OA
ATOM      2  O   UNL     1      32.996 -10.497 -23.734  0.00  0.00    -0.253 OA
ATOM      3  N   UNL     1      33.931 -12.638 -23.729  0.00  0.00    -0.240 N 
ATOM      4  N   UNL     1      34.931 -10.924 -24.897  0.00  0.00    -0.313 N 
ATOM      5  C   UNL     1      33.005 -13.299 -22.920  0.00  0.00    +0.229 C 
ATOM      6  C   UNL     1      33.871 -11.287 -24.085  0.00  0.00    +0.303 C 
ATOM      7  H   UNL     1      34.686 -13.165 -24.078  0.00  0.00    +0.159 HD
ATOM      8  H   UNL     1      35.009  -9.998 -25.220  0.00  0.00    +0.146 HD
ATOM      9  H   UNL     1      35.607 -11.593 -25.152  0.00  0.00    +0.146 HD
ENDROOT
BRANCH   5  10
ATOM     10  C   UNL     1      33.343 -14.788 -22.744  0.00  0.00    +0.081 C 
BRANCH  10  11
ATOM     11  C   UNL     1      33.507 -15.102 -21.229  0.00  0.00    +0.009 C 
ATOM     12  C   UNL     1      34.739 -15.955 -20.913  0.00  0.00    +0.001 C 
ATOM     13  C   UNL     1      32.252 -15.768 -20.654  0.00  0.00    +0.001 C 
ENDBRANCH  10  11
BRANCH  10  14
ATOM     14  C   UNL     1      34.564 -15.190 -23.598  0.00  0.00    +0.035 C 
BRANCH  14  15
ATOM     15  C   UNL     1      34.205 -16.195 -24.660  0.00  0.00    -0.026 C 
ATOM     16  C   UNL     1      34.648 -17.457 -24.680  0.00  0.00    -0.005 C 
ENDBRANCH  14  15
ENDBRANCH  10  14
ENDBRANCH   5  10
TORSDOF 4
ENDMDL
MODEL 7
REMARK VINA RESULT:      -6.2      5.745      8.720
REMARK  Name = 10715
REMARK  4 active torsions:
REMARK  status: ('A' for Active; 'I' for Inactive)
REMARK    1  A    between atoms: C_5  and  C_10
REMARK    2  A    between atoms: C_10  and  C_11
REMARK    3  A    between atoms: C_10  and  C_14
REMARK    4  A    between atoms: C_14  and  C_15
REMARK                            x       y       z     vdW  Elec       q    Type
REMARK                         _______ _______ _______ _____ _____    ______ ____
ROOT
ATOM      1  O   UNL     1      33.383 -23.572 -15.841  0.00  0.00    -0.275 OA
ATOM      2  O   UNL     1      34.517 -22.785 -18.289  0.00  0.00    -0.253 OA
ATOM      3  N   UNL     1      32.264 -22.688 -17.682  0.00  0.00    -0.240 N 
ATOM      4  N   UNL     1      32.949 -21.977 -19.761  0.00  0.00    -0.313 N 
ATOM      5  C   UNL     1      32.344 -23.205 -16.387  0.00  0.00    +0.229 C 
ATOM      6  C   UNL     1      33.347 -22.510 -18.547  0.00  0.00    +0.303 C 
ATOM      7  H   UNL     1      31.373 -22.427 -18.010  0.00  0.00    +0.159 HD
ATOM      8  H   UNL     1      33.616 -21.802 -20.464  0.00  0.00    +0.146 HD
ATOM      9  H   UNL     1      32.000 -21.773 -19.922  0.00  0.00    +0.146 HD
ENDROOT
BRANCH   5  10
ATOM     10  C   UNL     1      30.976 -23.243 -15.688  0.00  0.00    +0.081 C 
BRANCH  10  11
ATOM     11  C   UNL     1      30.982 -24.363 -14.608  0.00  0.00    +0.009 C 
ATOM     12  C   UNL     1      29.991 -25.495 -14.897  0.00  0.00    +0.001 C 
ATOM     13  C   UNL     1      30.729 -23.795 -13.207  0.00  0.00    +0.001 C 
ENDBRANCH  10  11
BRANCH  10  14
ATOM     14  C   UNL     1      29.828 -23.372 -16.711  0.00  0.00    +0.035 C 
BRANCH  14  15
ATOM     15  C   UNL     1      28.745 -22.354 -16.476  0.00  0.00    -0.026 C 
ATOM     16  C   UNL     1      27.645 -22.582 -15.750  0.00  0.00    -0.005 C 
ENDBRANCH  14  15
ENDBRANCH  10  14
ENDBRANCH   5  10
TORSDOF 4
ENDMDL
MODEL 8
REMARK VINA RESULT:      -6.2      9.376     11.295
REMARK  Name = 10715
REMARK  4 active torsions:
REMARK  status: ('A' for Active; 'I' for Inactive)
REMARK    1  A    between atoms: C_5  and  C_10
REMARK    2  A    between atoms: C_10  and  C_11
REMARK    3  A    between atoms: C_10  and  C_14
REMARK    4  A    between atoms: C_14  and  C_15
REMARK                            x       y       z     vdW  Elec       q    Type
REMARK                         _______ _______ _______ _____ _____    ______ ____
ROOT
ATOM      1  O   UNL     1      31.284  -8.916 -23.096  0.00  0.00    -0.275 OA
ATOM      2  O   UNL     1      31.360 -10.523 -20.791  0.00  0.00    -0.253 OA
ATOM      3  N   UNL     1      32.239  -8.374 -21.042  0.00  0.00    -0.240 N 
ATOM      4  N   UNL     1      32.430  -9.491 -19.039  0.00  0.00    -0.313 N 
ATOM      5  C   UNL     1      31.889  -8.127 -22.372  0.00  0.00    +0.229 C 
ATOM      6  C   UNL     1      31.955  -9.547 -20.338  0.00  0.00    +0.303 C 
ATOM      7  H   UNL     1      32.725  -7.663 -20.563  0.00  0.00    +0.159 HD
ATOM      8  H   UNL     1      32.296 -10.256 -18.433  0.00  0.00    +0.146 HD
ATOM      9  H   UNL     1      32.901  -8.688 -18.721  0.00  0.00    +0.146 HD
ENDROOT
BRANCH   5  10
ATOM     10  C   UNL     1      32.323  -6.729 -22.839  0.00  0.00    +0.081 C 
BRANCH  10  11
ATOM     11  C   UNL     1      31.058  -5.878 -23.154  0.00  0.00    +0.009 C 
ATOM     12  C   UNL     1      31.300  -4.792 -24.207  0.00  0.00    +0.001 C 
ATOM     13  C   UNL     1      30.473  -5.251 -21.884  0.00  0.00    +0.001 C 
ENDBRANCH  10  11
BRANCH  10  14
ATOM     14  C   UNL     1      33.322  -6.816 -24.013  0.00  0.00    +0.035 C 
BRANCH  14  15
ATOM     15  C   UNL     1      34.571  -7.566 -23.637  0.00  0.00    -0.026 C 
ATOM     16  C   UNL     1      34.869  -8.794 -24.075  0.00  0.00    -0.005 C 
ENDBRANCH  14  15
ENDBRANCH  10  14
ENDBRANCH   5  10
TORSDOF 4
ENDMDL
MODEL 9
REMARK VINA RESULT:      -6.2      0.967      2.978
REMARK  Name = 10715
REMARK  4 active torsions:
REMARK  status: ('A' for Active; 'I' for Inactive)
REMARK    1  A    between atoms: C_5  and  C_10
REMARK    2  A    between atoms: C_10  and  C_11
REMARK    3  A    between atoms: C_10  and  C_14
REMARK    4  A    between atoms: C_14  and  C_15
REMARK                            x       y       z     vdW  Elec       q    Type
REMARK                         _______ _______ _______ _____ _____    ______ ____
ROOT
ATOM      1  O   UNL     1      36.236 -18.542 -20.777  0.00  0.00    -0.275 OA
ATOM      2  O   UNL     1      34.660 -20.722 -19.962  0.00  0.00    -0.253 OA
ATOM      3  N   UNL     1      33.960 -18.846 -21.165  0.00  0.00    -0.240 N 
ATOM      4  N   UNL     1      32.467 -20.510 -20.615  0.00  0.00    -0.313 N 
ATOM      5  C   UNL     1      35.171 -18.154 -21.251  0.00  0.00    +0.229 C 
ATOM      6  C   UNL     1      33.780 -20.079 -20.532  0.00  0.00    +0.303 C 
ATOM      7  H   UNL     1      33.171 -18.432 -21.585  0.00  0.00    +0.159 HD
ATOM      8  H   UNL     1      32.204 -21.366 -20.208  0.00  0.00    +0.146 HD
ATOM      9  H   UNL     1      31.797 -19.960 -21.081  0.00  0.00    +0.146 HD
ENDROOT
BRANCH   5  10
ATOM     10  C   UNL     1      35.037 -16.841 -22.038  0.00  0.00    +0.081 C 
BRANCH  10  11
ATOM     11  C   UNL     1      33.909 -15.976 -21.406  0.00  0.00    +0.009 C 
ATOM     12  C   UNL     1      33.128 -15.148 -22.431  0.00  0.00    +0.001 C 
ATOM     13  C   UNL     1      34.454 -15.060 -20.305  0.00  0.00    +0.001 C 
ENDBRANCH  10  11
BRANCH  10  14
ATOM     14  C   UNL     1      34.844 -17.110 -23.546  0.00  0.00    +0.035 C 
BRANCH  14  15
ATOM     15  C   UNL     1      35.317 -18.483 -23.940  0.00  0.00    -0.026 C 
ATOM     16  C   UNL     1      34.614 -19.329 -24.701  0.00  0.00    -0.005 C 
ENDBRANCH  14  15
ENDBRANCH  10  14
ENDBRANCH   5  10
TORSDOF 4
ENDMDL
