MODEL 1
REMARK VINA RESULT:     -10.0      0.000      0.000
REMARK  Name = 9821217
REMARK  7 active torsions:
REMARK  status: ('A' for Active; 'I' for Inactive)
REMARK    1  A    between atoms: N_1  and  C_5
REMARK    2  A    between atoms: N_1  and  C_18
REMARK    3  A    between atoms: C_6  and  C_12
REMARK    4  A    between atoms: C_18  and  C_19
REMARK    5  A    between atoms: C_20  and  O_25
REMARK    6  A    between atoms: C_22  and  O_27
REMARK    7  A    between atoms: O_27  and  C_31
REMARK                            x       y       z     vdW  Elec       q    Type
REMARK                         _______ _______ _______ _____ _____    ______ ____
ROOT
ATOM      1  N   UNL     1      34.148 -13.338 -23.570  0.00  0.00    +0.387 N 
ATOM      2  H   UNL     1      34.232 -14.087 -24.257  0.00  0.00    -0.084 HD
ATOM      3  H   UNL     1      34.976 -12.742 -23.595  0.00  0.00    -0.084 HD
ENDROOT
BRANCH   1   5
ATOM      4  N   UNL     1      34.625 -15.812 -20.733  0.00  0.00    +0.386 N 
ATOM      5  C   UNL     1      34.027 -13.920 -22.234  0.00  0.00    -0.077 C 
ATOM      6  C   UNL     1      34.830 -15.242 -22.083  0.00  0.00    -0.058 C 
ATOM      7  C   UNL     1      32.553 -14.036 -21.820  0.00  0.00    -0.025 C 
ATOM      8  C   UNL     1      32.424 -14.718 -20.463  0.00  0.00    -0.026 C 
ATOM      9  C   UNL     1      33.209 -16.024 -20.422  0.00  0.00    -0.081 C 
ATOM     10  H   UNL     1      35.018 -15.170 -20.045  0.00  0.00    -0.084 HD
ATOM     11  H   UNL     1      35.087 -16.721 -20.707  0.00  0.00    -0.084 HD
BRANCH   6  12
ATOM     12  C   UNL     1      34.744 -16.329 -23.153  0.00  0.00    -0.044 C 
ATOM     13  C   UNL     1      35.231 -17.603 -22.882  0.00  0.00    -0.006 C 
ATOM     14  C   UNL     1      34.179 -16.036 -24.391  0.00  0.00    -0.006 C 
ATOM     15  C   UNL     1      35.152 -18.596 -23.858  0.00  0.00    -0.000 C 
ATOM     16  C   UNL     1      34.102 -17.030 -25.367  0.00  0.00    -0.000 C 
ATOM     17  C   UNL     1      34.587 -18.309 -25.101  0.00  0.00    -0.000 C 
ENDBRANCH   6  12
ENDBRANCH   1   5
BRANCH   1  18
ATOM     18  C   UNL     1      32.981 -12.530 -23.886  0.00  0.00    -0.051 C 
BRANCH  18  19
ATOM     19  C   UNL     1      33.227 -11.069 -23.648  0.00  0.00    -0.007 C 
ATOM     20  C   UNL     1      34.221 -10.398 -24.354  0.00  0.00    +0.133 C 
ATOM     21  C   UNL     1      32.445 -10.397 -22.714  0.00  0.00    +0.034 C 
ATOM     22  C   UNL     1      32.660  -9.039 -22.482  0.00  0.00    +0.147 C 
ATOM     23  C   UNL     1      34.436  -9.040 -24.121  0.00  0.00    +0.040 C 
ATOM     24  C   UNL     1      33.656  -8.360 -23.185  0.00  0.00    +0.040 C 
BRANCH  20  25
ATOM     25  O   UNL     1      34.992 -11.047 -25.270  0.00  0.00    -0.472 OA
ATOM     26  C   UNL     1      35.711 -10.241 -26.201  0.00  0.00    +0.252 C 
ENDBRANCH  20  25
BRANCH  22  27
ATOM     27  O   UNL     1      31.900  -8.376 -21.569  0.00  0.00    -0.404 OA
BRANCH  27  31
ATOM     28  F   UNL     1      32.689  -9.443 -19.706  0.00  0.00    -0.133 F 
ATOM     29  F   UNL     1      31.458  -7.651 -19.477  0.00  0.00    -0.133 F 
ATOM     30  F   UNL     1      33.503  -7.454 -20.223  0.00  0.00    -0.133 F 
ATOM     31  C   UNL     1      32.405  -8.238 -20.245  0.00  0.00    +0.575 C 
ENDBRANCH  27  31
ENDBRANCH  22  27
ENDBRANCH  18  19
ENDBRANCH   1  18
TORSDOF 7
ENDMDL
MODEL 2
REMARK VINA RESULT:      -9.9      3.687      7.011
REMARK  Name = 9821217
REMARK  7 active torsions:
REMARK  status: ('A' for Active; 'I' for Inactive)
REMARK    1  A    between atoms: N_1  and  C_5
REMARK    2  A    between atoms: N_1  and  C_18
REMARK    3  A    between atoms: C_6  and  C_12
REMARK    4  A    between atoms: C_18  and  C_19
REMARK    5  A    between atoms: C_20  and  O_25
REMARK    6  A    between atoms: C_22  and  O_27
REMARK    7  A    between atoms: O_27  and  C_31
REMARK                            x       y       z     vdW  Elec       q    Type
REMARK                         _______ _______ _______ _____ _____    ______ ____
ROOT
ATOM      1  N   UNL     1      31.572 -12.423 -22.461  0.00  0.00    +0.387 N 
ATOM      2  H   UNL     1      32.113 -12.008 -23.220  0.00  0.00    -0.084 HD
ATOM      3  H   UNL     1      30.685 -12.783 -22.816  0.00  0.00    -0.084 HD
ENDROOT
BRANCH   1   5
ATOM      4  N   UNL     1      31.260  -8.971 -20.916  0.00  0.00    +0.386 N 
ATOM      5  C   UNL     1      31.294 -11.400 -21.453  0.00  0.00    -0.077 C 
ATOM      6  C   UNL     1      31.500  -9.957 -21.993  0.00  0.00    -0.058 C 
ATOM      7  C   UNL     1      32.057 -11.693 -20.153  0.00  0.00    -0.025 C 
ATOM      8  C   UNL     1      31.832 -10.584 -19.132  0.00  0.00    -0.026 C 
ATOM      9  C   UNL     1      32.097  -9.210 -19.738  0.00  0.00    -0.081 C 
ATOM     10  H   UNL     1      30.280  -9.024 -20.637  0.00  0.00    -0.084 HD
ATOM     11  H   UNL     1      31.497  -8.049 -21.281  0.00  0.00    -0.084 HD
BRANCH   6  12
ATOM     12  C   UNL     1      32.751  -9.598 -22.792  0.00  0.00    -0.044 C 
ATOM     13  C   UNL     1      33.293  -8.322 -22.689  0.00  0.00    -0.006 C 
ATOM     14  C   UNL     1      33.340 -10.552 -23.617  0.00  0.00    -0.006 C 
ATOM     15  C   UNL     1      34.436  -7.994 -23.418  0.00  0.00    -0.000 C 
ATOM     16  C   UNL     1      34.482 -10.223 -24.348  0.00  0.00    -0.000 C 
ATOM     17  C   UNL     1      35.031  -8.945 -24.248  0.00  0.00    -0.000 C 
ENDBRANCH   6  12
ENDBRANCH   1   5
BRANCH   1  18
ATOM     18  C   UNL     1      32.326 -13.523 -21.883  0.00  0.00    -0.051 C 
BRANCH  18  19
ATOM     19  C   UNL     1      33.003 -14.354 -22.934  0.00  0.00    -0.007 C 
ATOM     20  C   UNL     1      33.929 -15.327 -22.574  0.00  0.00    +0.133 C 
ATOM     21  C   UNL     1      32.685 -14.137 -24.271  0.00  0.00    +0.034 C 
ATOM     22  C   UNL     1      33.304 -14.902 -25.260  0.00  0.00    +0.147 C 
ATOM     23  C   UNL     1      34.548 -16.090 -23.564  0.00  0.00    +0.040 C 
ATOM     24  C   UNL     1      34.235 -15.878 -24.906  0.00  0.00    +0.040 C 
BRANCH  20  25
ATOM     25  O   UNL     1      34.246 -15.545 -21.268  0.00  0.00    -0.472 OA
ATOM     26  C   UNL     1      34.926 -16.761 -20.959  0.00  0.00    +0.252 C 
ENDBRANCH  20  25
BRANCH  22  27
ATOM     27  O   UNL     1      33.000 -14.695 -26.570  0.00  0.00    -0.404 OA
BRANCH  27  31
ATOM     28  F   UNL     1      33.698 -12.550 -26.195  0.00  0.00    -0.133 F 
ATOM     29  F   UNL     1      32.204 -12.937 -27.741  0.00  0.00    -0.133 F 
ATOM     30  F   UNL     1      34.275 -13.547 -28.081  0.00  0.00    -0.133 F 
ATOM     31  C   UNL     1      33.312 -13.430 -27.142  0.00  0.00    +0.575 C 
ENDBRANCH  27  31
ENDBRANCH  22  27
ENDBRANCH  18  19
ENDBRANCH   1  18
TORSDOF 7
ENDMDL
MODEL 3
REMARK VINA RESULT:      -9.8      6.525     10.008
REMARK  Name = 9821217
REMARK  7 active torsions:
REMARK  status: ('A' for Active; 'I' for Inactive)
REMARK    1  A    between atoms: N_1  and  C_5
REMARK    2  A    between atoms: N_1  and  C_18
REMARK    3  A    between atoms: C_6  and  C_12
REMARK    4  A    between atoms: C_18  and  C_19
REMARK    5  A    between atoms: C_20  and  O_25
REMARK    6  A    between atoms: C_22  and  O_27
REMARK    7  A    between atoms: O_27  and  C_31
REMARK                            x       y       z     vdW  Elec       q    Type
REMARK                         _______ _______ _______ _____ _____    ______ ____
ROOT
ATOM      1  N   UNL     1      35.494 -18.379 -21.438  0.00  0.00    +0.387 N 
ATOM      2  H   UNL     1      34.530 -18.564 -21.162  0.00  0.00    -0.084 HD
ATOM      3  H   UNL     1      35.881 -17.618 -20.879  0.00  0.00    -0.084 HD
ENDROOT
BRANCH   1   5
ATOM      4  N   UNL     1      35.365 -16.127 -24.490  0.00  0.00    +0.386 N 
ATOM      5  C   UNL     1      35.524 -17.990 -22.847  0.00  0.00    -0.077 C 
ATOM      6  C   UNL     1      35.384 -16.454 -23.047  0.00  0.00    -0.058 C 
ATOM      7  C   UNL     1      34.523 -18.818 -23.665  0.00  0.00    -0.025 C 
ATOM      8  C   UNL     1      34.496 -18.355 -25.118  0.00  0.00    -0.026 C 
ATOM      9  C   UNL     1      34.314 -16.845 -25.215  0.00  0.00    -0.081 C 
ATOM     10  H   UNL     1      36.269 -16.377 -24.893  0.00  0.00    -0.084 HD
ATOM     11  H   UNL     1      35.176 -15.129 -24.580  0.00  0.00    -0.084 HD
BRANCH   6  12
ATOM     12  C   UNL     1      34.311 -15.669 -22.296  0.00  0.00    -0.044 C 
ATOM     13  C   UNL     1      33.648 -14.625 -22.932  0.00  0.00    -0.006 C 
ATOM     14  C   UNL     1      34.004 -16.004 -20.980  0.00  0.00    -0.006 C 
ATOM     15  C   UNL     1      32.668 -13.908 -22.246  0.00  0.00    -0.000 C 
ATOM     16  C   UNL     1      33.024 -15.286 -20.295  0.00  0.00    -0.000 C 
ATOM     17  C   UNL     1      32.356 -14.238 -20.927  0.00  0.00    -0.000 C 
ENDBRANCH   6  12
ENDBRANCH   1   5
BRANCH   1  18
ATOM     18  C   UNL     1      36.292 -19.574 -21.218  0.00  0.00    -0.051 C 
BRANCH  18  19
ATOM     19  C   UNL     1      35.648 -20.507 -20.235  0.00  0.00    -0.007 C 
ATOM     20  C   UNL     1      34.271 -20.701 -20.246  0.00  0.00    +0.133 C 
ATOM     21  C   UNL     1      36.450 -21.174 -19.315  0.00  0.00    +0.034 C 
ATOM     22  C   UNL     1      35.867 -22.046 -18.395  0.00  0.00    +0.147 C 
ATOM     23  C   UNL     1      33.688 -21.572 -19.325  0.00  0.00    +0.040 C 
ATOM     24  C   UNL     1      34.487 -22.244 -18.400  0.00  0.00    +0.040 C 
BRANCH  20  25
ATOM     25  O   UNL     1      33.477 -20.051 -21.143  0.00  0.00    -0.472 OA
ATOM     26  C   UNL     1      32.292 -19.440 -20.636  0.00  0.00    +0.252 C 
ENDBRANCH  20  25
BRANCH  22  27
ATOM     27  O   UNL     1      36.645 -22.701 -17.491  0.00  0.00    -0.404 OA
BRANCH  27  31
ATOM     28  F   UNL     1      37.483 -20.792 -16.552  0.00  0.00    -0.133 F 
ATOM     29  F   UNL     1      37.970 -22.728 -15.663  0.00  0.00    -0.133 F 
ATOM     30  F   UNL     1      35.944 -21.935 -15.454  0.00  0.00    -0.133 F 
ATOM     31  C   UNL     1      36.999 -22.024 -16.291  0.00  0.00    +0.575 C 
ENDBRANCH  27  31
ENDBRANCH  22  27
ENDBRANCH  18  19
ENDBRANCH   1  18
TORSDOF 7
ENDMDL
MODEL 4
REMARK VINA RESULT:      -9.7      4.223      7.474
REMARK  Name = 9821217
REMARK  7 active torsions:
REMARK  status: ('A' for Active; 'I' for Inactive)
REMARK    1  A    between atoms: N_1  and  C_5
REMARK    2  A    between atoms: N_1  and  C_18
REMARK    3  A    between atoms: C_6  and  C_12
REMARK    4  A    between atoms: C_18  and  C_19
REMARK    5  A    between atoms: C_20  and  O_25
REMARK    6  A    between atoms: C_22  and  O_27
REMARK    7  A    between atoms: O_27  and  C_31
REMARK                            x       y       z     vdW  Elec       q    Type
REMARK                         _______ _______ _______ _____ _____    ______ ____
ROOT
ATOM      1  N   UNL     1      32.272 -13.355 -22.819  0.00  0.00    +0.387 N 
ATOM      2  H   UNL     1      32.373 -12.950 -23.750  0.00  0.00    -0.084 HD
ATOM      3  H   UNL     1      31.697 -14.196 -22.860  0.00  0.00    -0.084 HD
ENDROOT
BRANCH   1   5
ATOM      4  N   UNL     1      30.942 -10.012 -21.611  0.00  0.00    +0.386 N 
ATOM      5  C   UNL     1      31.622 -12.383 -21.940  0.00  0.00    -0.077 C 
ATOM      6  C   UNL     1      31.558 -10.961 -22.565  0.00  0.00    -0.058 C 
ATOM      7  C   UNL     1      32.240 -12.418 -20.535  0.00  0.00    -0.025 C 
ATOM      8  C   UNL     1      31.617 -11.348 -19.644  0.00  0.00    -0.026 C 
ATOM      9  C   UNL     1      31.636  -9.983 -20.321  0.00  0.00    -0.081 C 
ATOM     10  H   UNL     1      29.972 -10.290 -21.454  0.00  0.00    -0.084 HD
ATOM     11  H   UNL     1      31.005  -9.079 -22.017  0.00  0.00    -0.084 HD
BRANCH   6  12
ATOM     12  C   UNL     1      32.789 -10.347 -23.226  0.00  0.00    -0.044 C 
ATOM     13  C   UNL     1      33.527 -11.094 -24.139  0.00  0.00    -0.006 C 
ATOM     14  C   UNL     1      33.166  -9.045 -22.911  0.00  0.00    -0.006 C 
ATOM     15  C   UNL     1      34.652 -10.534 -24.743  0.00  0.00    -0.000 C 
ATOM     16  C   UNL     1      34.292  -8.485 -23.515  0.00  0.00    -0.000 C 
ATOM     17  C   UNL     1      35.035  -9.229 -24.431  0.00  0.00    -0.000 C 
ENDBRANCH   6  12
ENDBRANCH   1   5
BRANCH   1  18
ATOM     18  C   UNL     1      33.586 -13.711 -22.308  0.00  0.00    -0.051 C 
BRANCH  18  19
ATOM     19  C   UNL     1      34.060 -15.029 -22.846  0.00  0.00    -0.007 C 
ATOM     20  C   UNL     1      33.941 -15.321 -24.201  0.00  0.00    +0.133 C 
ATOM     21  C   UNL     1      34.623 -15.951 -21.970  0.00  0.00    +0.034 C 
ATOM     22  C   UNL     1      35.070 -17.180 -22.455  0.00  0.00    +0.147 C 
ATOM     23  C   UNL     1      34.387 -16.550 -24.685  0.00  0.00    +0.040 C 
ATOM     24  C   UNL     1      34.951 -17.480 -23.812  0.00  0.00    +0.040 C 
BRANCH  20  25
ATOM     25  O   UNL     1      33.390 -14.424 -25.066  0.00  0.00    -0.472 OA
ATOM     26  C   UNL     1      32.945 -14.926 -26.325  0.00  0.00    +0.252 C 
ENDBRANCH  20  25
BRANCH  22  27
ATOM     27  O   UNL     1      35.621 -18.088 -21.604  0.00  0.00    -0.404 OA
BRANCH  27  31
ATOM     28  F   UNL     1      33.600 -18.889 -20.894  0.00  0.00    -0.133 F 
ATOM     29  F   UNL     1      35.437 -19.843 -20.196  0.00  0.00    -0.133 F 
ATOM     30  F   UNL     1      34.812 -20.120 -22.272  0.00  0.00    -0.133 F 
ATOM     31  C   UNL     1      34.853 -19.234 -21.254  0.00  0.00    +0.575 C 
ENDBRANCH  27  31
ENDBRANCH  22  27
ENDBRANCH  18  19
ENDBRANCH   1  18
TORSDOF 7
ENDMDL
MODEL 5
REMARK VINA RESULT:      -9.4      3.564      7.782
REMARK  Name = 9821217
REMARK  7 active torsions:
REMARK  status: ('A' for Active; 'I' for Inactive)
REMARK    1  A    between atoms: N_1  and  C_5
REMARK    2  A    between atoms: N_1  and  C_18
REMARK    3  A    between atoms: C_6  and  C_12
REMARK    4  A    between atoms: C_18  and  C_19
REMARK    5  A    between atoms: C_20  and  O_25
REMARK    6  A    between atoms: C_22  and  O_27
REMARK    7  A    between atoms: O_27  and  C_31
REMARK                            x       y       z     vdW  Elec       q    Type
REMARK                         _______ _______ _______ _____ _____    ______ ____
ROOT
ATOM      1  N   UNL     1      31.915  -9.368 -23.409  0.00  0.00    +0.387 N 
ATOM      2  H   UNL     1      32.237  -8.984 -24.297  0.00  0.00    -0.084 HD
ATOM      3  H   UNL     1      31.124  -9.993 -23.561  0.00  0.00    -0.084 HD
ENDROOT
BRANCH   1   5
ATOM      4  N   UNL     1      30.940  -5.852 -22.365  0.00  0.00    +0.386 N 
ATOM      5  C   UNL     1      31.488  -8.273 -22.538  0.00  0.00    -0.077 C 
ATOM      6  C   UNL     1      31.317  -6.931 -23.305  0.00  0.00    -0.058 C 
ATOM      7  C   UNL     1      32.394  -8.173 -21.302  0.00  0.00    -0.025 C 
ATOM      8  C   UNL     1      31.999  -6.980 -20.437  0.00  0.00    -0.026 C 
ATOM      9  C   UNL     1      31.897  -5.705 -21.265  0.00  0.00    -0.081 C 
ATOM     10  H   UNL     1      30.023  -6.065 -21.974  0.00  0.00    -0.084 HD
ATOM     11  H   UNL     1      30.932  -4.976 -22.887  0.00  0.00    -0.084 HD
BRANCH   6  12
ATOM     12  C   UNL     1      32.389  -6.454 -24.282  0.00  0.00    -0.044 C 
ATOM     13  C   UNL     1      32.066  -5.515 -25.256  0.00  0.00    -0.006 C 
ATOM     14  C   UNL     1      33.682  -6.962 -24.191  0.00  0.00    -0.006 C 
ATOM     15  C   UNL     1      33.045  -5.078 -26.148  0.00  0.00    -0.000 C 
ATOM     16  C   UNL     1      34.660  -6.526 -25.085  0.00  0.00    -0.000 C 
ATOM     17  C   UNL     1      34.342  -5.584 -26.063  0.00  0.00    -0.000 C 
ENDBRANCH   6  12
ENDBRANCH   1   5
BRANCH   1  18
ATOM     18  C   UNL     1      32.996 -10.121 -22.794  0.00  0.00    -0.051 C 
BRANCH  18  19
ATOM     19  C   UNL     1      33.047 -11.537 -23.290  0.00  0.00    -0.007 C 
ATOM     20  C   UNL     1      33.514 -11.820 -24.569  0.00  0.00    +0.133 C 
ATOM     21  C   UNL     1      32.622 -12.560 -22.449  0.00  0.00    +0.034 C 
ATOM     22  C   UNL     1      32.664 -13.882 -22.893  0.00  0.00    +0.147 C 
ATOM     23  C   UNL     1      33.555 -13.141 -25.013  0.00  0.00    +0.040 C 
ATOM     24  C   UNL     1      33.130 -14.172 -24.175  0.00  0.00    +0.040 C 
BRANCH  20  25
ATOM     25  O   UNL     1      33.932 -10.824 -25.400  0.00  0.00    -0.472 OA
ATOM     26  C   UNL     1      35.313 -10.469 -25.345  0.00  0.00    +0.252 C 
ENDBRANCH  20  25
BRANCH  22  27
ATOM     27  O   UNL     1      32.249 -14.888 -22.077  0.00  0.00    -0.404 OA
BRANCH  27  31
ATOM     28  F   UNL     1      34.340 -14.809 -21.153  0.00  0.00    -0.133 F 
ATOM     29  F   UNL     1      33.109 -16.592 -20.872  0.00  0.00    -0.133 F 
ATOM     30  F   UNL     1      32.580 -14.752 -19.818  0.00  0.00    -0.133 F 
ATOM     31  C   UNL     1      33.075 -15.243 -20.974  0.00  0.00    +0.575 C 
ENDBRANCH  27  31
ENDBRANCH  22  27
ENDBRANCH  18  19
ENDBRANCH   1  18
TORSDOF 7
ENDMDL
MODEL 6
REMARK VINA RESULT:      -9.2      8.989     12.225
REMARK  Name = 9821217
REMARK  7 active torsions:
REMARK  status: ('A' for Active; 'I' for Inactive)
REMARK    1  A    between atoms: N_1  and  C_5
REMARK    2  A    between atoms: N_1  and  C_18
REMARK    3  A    between atoms: C_6  and  C_12
REMARK    4  A    between atoms: C_18  and  C_19
REMARK    5  A    between atoms: C_20  and  O_25
REMARK    6  A    between atoms: C_22  and  O_27
REMARK    7  A    between atoms: O_27  and  C_31
REMARK                            x       y       z     vdW  Elec       q    Type
REMARK                         _______ _______ _______ _____ _____    ______ ____
ROOT
ATOM      1  N   UNL     1      32.479 -22.748 -16.958  0.00  0.00    +0.387 N 
ATOM      2  H   UNL     1      32.977 -21.920 -16.632  0.00  0.00    -0.084 HD
ATOM      3  H   UNL     1      31.543 -22.495 -17.276  0.00  0.00    -0.084 HD
ENDROOT
BRANCH   1   5
ATOM      4  N   UNL     1      30.900 -25.336 -14.675  0.00  0.00    +0.386 N 
ATOM      5  C   UNL     1      32.359 -23.702 -15.856  0.00  0.00    -0.077 C 
ATOM      6  C   UNL     1      30.983 -24.427 -15.840  0.00  0.00    -0.058 C 
ATOM      7  C   UNL     1      32.731 -23.044 -14.520  0.00  0.00    -0.025 C 
ATOM      8  C   UNL     1      32.526 -24.015 -13.362  0.00  0.00    -0.026 C 
ATOM      9  C   UNL     1      31.139 -24.644 -13.405  0.00  0.00    -0.081 C 
ATOM     10  H   UNL     1      31.598 -26.071 -14.783  0.00  0.00    -0.084 HD
ATOM     11  H   UNL     1      29.954 -25.716 -14.646  0.00  0.00    -0.084 HD
BRANCH   6  12
ATOM     12  C   UNL     1      29.688 -23.638 -16.010  0.00  0.00    -0.044 C 
ATOM     13  C   UNL     1      29.344 -22.666 -15.076  0.00  0.00    -0.006 C 
ATOM     14  C   UNL     1      28.860 -23.895 -17.100  0.00  0.00    -0.006 C 
ATOM     15  C   UNL     1      28.161 -21.945 -15.231  0.00  0.00    -0.000 C 
ATOM     16  C   UNL     1      27.676 -23.173 -17.254  0.00  0.00    -0.000 C 
ATOM     17  C   UNL     1      27.326 -22.198 -16.321  0.00  0.00    -0.000 C 
ENDBRANCH   6  12
ENDBRANCH   1   5
BRANCH   1  18
ATOM     18  C   UNL     1      33.208 -23.337 -18.069  0.00  0.00    -0.051 C 
BRANCH  18  19
ATOM     19  C   UNL     1      34.336 -22.460 -18.529  0.00  0.00    -0.007 C 
ATOM     20  C   UNL     1      35.503 -22.362 -17.778  0.00  0.00    +0.133 C 
ATOM     21  C   UNL     1      34.196 -21.750 -19.717  0.00  0.00    +0.034 C 
ATOM     22  C   UNL     1      35.236 -20.932 -20.159  0.00  0.00    +0.147 C 
ATOM     23  C   UNL     1      36.541 -21.543 -18.220  0.00  0.00    +0.040 C 
ATOM     24  C   UNL     1      36.408 -20.828 -19.410  0.00  0.00    +0.040 C 
BRANCH  20  25
ATOM     25  O   UNL     1      35.648 -23.052 -16.613  0.00  0.00    -0.472 OA
ATOM     26  C   UNL     1      36.687 -22.628 -15.732  0.00  0.00    +0.252 C 
ENDBRANCH  20  25
BRANCH  22  27
ATOM     27  O   UNL     1      35.106 -20.234 -21.319  0.00  0.00    -0.404 OA
BRANCH  27  31
ATOM     28  F   UNL     1      33.237 -19.087 -20.672  0.00  0.00    -0.133 F 
ATOM     29  F   UNL     1      34.226 -18.556 -22.547  0.00  0.00    -0.133 F 
ATOM     30  F   UNL     1      35.188 -18.048 -20.651  0.00  0.00    -0.133 F 
ATOM     31  C   UNL     1      34.437 -18.978 -21.279  0.00  0.00    +0.575 C 
ENDBRANCH  27  31
ENDBRANCH  22  27
ENDBRANCH  18  19
ENDBRANCH   1  18
TORSDOF 7
ENDMDL
MODEL 7
REMARK VINA RESULT:      -9.2      2.024      3.553
REMARK  Name = 9821217
REMARK  7 active torsions:
REMARK  status: ('A' for Active; 'I' for Inactive)
REMARK    1  A    between atoms: N_1  and  C_5
REMARK    2  A    between atoms: N_1  and  C_18
REMARK    3  A    between atoms: C_6  and  C_12
REMARK    4  A    between atoms: C_18  and  C_19
REMARK    5  A    between atoms: C_20  and  O_25
REMARK    6  A    between atoms: C_22  and  O_27
REMARK    7  A    between atoms: O_27  and  C_31
REMARK                            x       y       z     vdW  Elec       q    Type
REMARK                         _______ _______ _______ _____ _____    ______ ____
ROOT
ATOM      1  N   UNL     1      34.408 -11.534 -24.117  0.00  0.00    +0.387 N 
ATOM      2  H   UNL     1      35.366 -11.881 -24.165  0.00  0.00    -0.084 HD
ATOM      3  H   UNL     1      34.018 -11.701 -23.189  0.00  0.00    -0.084 HD
ENDROOT
BRANCH   1   5
ATOM      4  N   UNL     1      32.119 -14.189 -25.570  0.00  0.00    +0.386 N 
ATOM      5  C   UNL     1      33.590 -12.237 -25.104  0.00  0.00    -0.077 C 
ATOM      6  C   UNL     1      32.885 -13.490 -24.513  0.00  0.00    -0.058 C 
ATOM      7  C   UNL     1      34.397 -12.520 -26.380  0.00  0.00    -0.025 C 
ATOM      8  C   UNL     1      33.569 -13.324 -27.376  0.00  0.00    -0.026 C 
ATOM      9  C   UNL     1      32.952 -14.553 -26.719  0.00  0.00    -0.081 C 
ATOM     10  H   UNL     1      31.370 -13.575 -25.890  0.00  0.00    -0.084 HD
ATOM     11  H   UNL     1      31.754 -15.052 -25.168  0.00  0.00    -0.084 HD
BRANCH   6  12
ATOM     12  C   UNL     1      33.661 -14.484 -23.654  0.00  0.00    -0.044 C 
ATOM     13  C   UNL     1      34.293 -15.569 -24.253  0.00  0.00    -0.006 C 
ATOM     14  C   UNL     1      33.732 -14.298 -22.276  0.00  0.00    -0.006 C 
ATOM     15  C   UNL     1      35.003 -16.477 -23.468  0.00  0.00    -0.000 C 
ATOM     16  C   UNL     1      34.441 -15.208 -21.491  0.00  0.00    -0.000 C 
ATOM     17  C   UNL     1      35.077 -16.296 -22.086  0.00  0.00    -0.000 C 
ENDBRANCH   6  12
ENDBRANCH   1   5
BRANCH   1  18
ATOM     18  C   UNL     1      34.407 -10.103 -24.374  0.00  0.00    -0.051 C 
BRANCH  18  19
ATOM     19  C   UNL     1      33.649  -9.344 -23.323  0.00  0.00    -0.007 C 
ATOM     20  C   UNL     1      33.864  -7.981 -23.145  0.00  0.00    +0.133 C 
ATOM     21  C   UNL     1      32.728 -10.025 -22.533  0.00  0.00    +0.034 C 
ATOM     22  C   UNL     1      32.015  -9.334 -21.553  0.00  0.00    +0.147 C 
ATOM     23  C   UNL     1      33.152  -7.292 -22.165  0.00  0.00    +0.040 C 
ATOM     24  C   UNL     1      32.227  -7.968 -21.369  0.00  0.00    +0.040 C 
BRANCH  20  25
ATOM     25  O   UNL     1      34.765  -7.307 -23.914  0.00  0.00    -0.472 OA
ATOM     26  C   UNL     1      34.241  -6.481 -24.953  0.00  0.00    +0.252 C 
ENDBRANCH  20  25
BRANCH  22  27
ATOM     27  O   UNL     1      31.113  -9.993 -20.777  0.00  0.00    -0.404 OA
BRANCH  27  31
ATOM     28  F   UNL     1      31.888 -11.972 -19.931  0.00  0.00    -0.133 F 
ATOM     29  F   UNL     1      30.624 -10.696 -18.687  0.00  0.00    -0.133 F 
ATOM     30  F   UNL     1      32.677 -10.078 -19.110  0.00  0.00    -0.133 F 
ATOM     31  C   UNL     1      31.593 -10.689 -19.632  0.00  0.00    +0.575 C 
ENDBRANCH  27  31
ENDBRANCH  22  27
ENDBRANCH  18  19
ENDBRANCH   1  18
TORSDOF 7
ENDMDL
MODEL 8
REMARK VINA RESULT:      -9.2      2.144      3.292
REMARK  Name = 9821217
REMARK  7 active torsions:
REMARK  status: ('A' for Active; 'I' for Inactive)
REMARK    1  A    between atoms: N_1  and  C_5
REMARK    2  A    between atoms: N_1  and  C_18
REMARK    3  A    between atoms: C_6  and  C_12
REMARK    4  A    between atoms: C_18  and  C_19
REMARK    5  A    between atoms: C_20  and  O_25
REMARK    6  A    between atoms: C_22  and  O_27
REMARK    7  A    between atoms: O_27  and  C_31
REMARK                            x       y       z     vdW  Elec       q    Type
REMARK                         _______ _______ _______ _____ _____    ______ ____
ROOT
ATOM      1  N   UNL     1      33.052 -12.698 -23.001  0.00  0.00    +0.387 N 
ATOM      2  H   UNL     1      32.954 -13.290 -23.826  0.00  0.00    -0.084 HD
ATOM      3  H   UNL     1      33.780 -12.000 -23.151  0.00  0.00    -0.084 HD
ENDROOT
BRANCH   1   5
ATOM      4  N   UNL     1      34.796 -15.432 -21.031  0.00  0.00    +0.386 N 
ATOM      5  C   UNL     1      33.424 -13.527 -21.855  0.00  0.00    -0.077 C 
ATOM      6  C   UNL     1      34.501 -14.590 -22.212  0.00  0.00    -0.058 C 
ATOM      7  C   UNL     1      32.177 -14.109 -21.173  0.00  0.00    -0.025 C 
ATOM      8  C   UNL     1      32.570 -15.039 -20.030  0.00  0.00    -0.026 C 
ATOM      9  C   UNL     1      33.597 -16.070 -20.483  0.00  0.00    -0.081 C 
ATOM     10  H   UNL     1      35.214 -14.847 -20.308  0.00  0.00    -0.084 HD
ATOM     11  H   UNL     1      35.431 -16.173 -21.330  0.00  0.00    -0.084 HD
BRANCH   6  12
ATOM     12  C   UNL     1      34.363 -15.443 -23.470  0.00  0.00    -0.044 C 
ATOM     13  C   UNL     1      35.004 -16.675 -23.543  0.00  0.00    -0.006 C 
ATOM     14  C   UNL     1      33.595 -14.983 -24.536  0.00  0.00    -0.006 C 
ATOM     15  C   UNL     1      34.878 -17.455 -24.692  0.00  0.00    -0.000 C 
ATOM     16  C   UNL     1      33.470 -15.763 -25.686  0.00  0.00    -0.000 C 
ATOM     17  C   UNL     1      34.110 -16.999 -25.764  0.00  0.00    -0.000 C 
ENDBRANCH   6  12
ENDBRANCH   1   5
BRANCH   1  18
ATOM     18  C   UNL     1      31.793 -12.014 -22.752  0.00  0.00    -0.051 C 
BRANCH  18  19
ATOM     19  C   UNL     1      32.000 -10.581 -22.358  0.00  0.00    -0.007 C 
ATOM     20  C   UNL     1      31.700 -10.154 -21.069  0.00  0.00    +0.133 C 
ATOM     21  C   UNL     1      32.499  -9.689 -23.302  0.00  0.00    +0.034 C 
ATOM     22  C   UNL     1      32.698  -8.353 -22.951  0.00  0.00    +0.147 C 
ATOM     23  C   UNL     1      31.899  -8.819 -20.719  0.00  0.00    +0.040 C 
ATOM     24  C   UNL     1      32.398  -7.919 -21.660  0.00  0.00    +0.040 C 
BRANCH  20  25
ATOM     25  O   UNL     1      31.210 -11.021 -20.139  0.00  0.00    -0.472 OA
ATOM     26  C   UNL     1      31.479 -10.724 -18.769  0.00  0.00    +0.252 C 
ENDBRANCH  20  25
BRANCH  22  27
ATOM     27  O   UNL     1      33.185  -7.475 -23.868  0.00  0.00    -0.404 OA
BRANCH  27  31
ATOM     28  F   UNL     1      35.293  -7.474 -22.981  0.00  0.00    -0.133 F 
ATOM     29  F   UNL     1      34.903  -6.360 -24.820  0.00  0.00    -0.133 F 
ATOM     30  F   UNL     1      34.934  -8.545 -24.881  0.00  0.00    -0.133 F 
ATOM     31  C   UNL     1      34.584  -7.480 -24.129  0.00  0.00    +0.575 C 
ENDBRANCH  27  31
ENDBRANCH  22  27
ENDBRANCH  18  19
ENDBRANCH   1  18
TORSDOF 7
ENDMDL
MODEL 9
REMARK VINA RESULT:      -9.1      4.170      8.414
REMARK  Name = 9821217
REMARK  7 active torsions:
REMARK  status: ('A' for Active; 'I' for Inactive)
REMARK    1  A    between atoms: N_1  and  C_5
REMARK    2  A    between atoms: N_1  and  C_18
REMARK    3  A    between atoms: C_6  and  C_12
REMARK    4  A    between atoms: C_18  and  C_19
REMARK    5  A    between atoms: C_20  and  O_25
REMARK    6  A    between atoms: C_22  and  O_27
REMARK    7  A    between atoms: O_27  and  C_31
REMARK                            x       y       z     vdW  Elec       q    Type
REMARK                         _______ _______ _______ _____ _____    ______ ____
ROOT
ATOM      1  N   UNL     1      31.936  -9.179 -23.677  0.00  0.00    +0.387 N 
ATOM      2  H   UNL     1      32.126  -8.776 -24.595  0.00  0.00    -0.084 HD
ATOM      3  H   UNL     1      31.179  -9.860 -23.741  0.00  0.00    -0.084 HD
ENDROOT
BRANCH   1   5
ATOM      4  N   UNL     1      30.972  -5.706 -22.491  0.00  0.00    +0.386 N 
ATOM      5  C   UNL     1      31.536  -8.115 -22.758  0.00  0.00    -0.077 C 
ATOM      6  C   UNL     1      31.319  -6.753 -23.477  0.00  0.00    -0.058 C 
ATOM      7  C   UNL     1      32.493  -8.040 -21.559  0.00  0.00    -0.025 C 
ATOM      8  C   UNL     1      32.123  -6.878 -20.643  0.00  0.00    -0.026 C 
ATOM      9  C   UNL     1      31.973  -5.580 -21.429  0.00  0.00    -0.081 C 
ATOM     10  H   UNL     1      30.074  -5.941 -22.067  0.00  0.00    -0.084 HD
ATOM     11  H   UNL     1      30.933  -4.815 -22.986  0.00  0.00    -0.084 HD
BRANCH   6  12
ATOM     12  C   UNL     1      32.343  -6.236 -24.484  0.00  0.00    -0.044 C 
ATOM     13  C   UNL     1      33.638  -6.743 -24.474  0.00  0.00    -0.006 C 
ATOM     14  C   UNL     1      31.973  -5.261 -25.406  0.00  0.00    -0.006 C 
ATOM     15  C   UNL     1      34.574  -6.271 -25.394  0.00  0.00    -0.000 C 
ATOM     16  C   UNL     1      32.910  -4.788 -26.326  0.00  0.00    -0.000 C 
ATOM     17  C   UNL     1      34.209  -5.293 -26.321  0.00  0.00    -0.000 C 
ENDBRANCH   6  12
ENDBRANCH   1   5
BRANCH   1  18
ATOM     18  C   UNL     1      33.131  -9.852 -23.195  0.00  0.00    -0.051 C 
BRANCH  18  19
ATOM     19  C   UNL     1      32.948 -11.340 -23.124  0.00  0.00    -0.007 C 
ATOM     20  C   UNL     1      32.191 -11.909 -22.105  0.00  0.00    +0.133 C 
ATOM     21  C   UNL     1      33.544 -12.139 -24.094  0.00  0.00    +0.034 C 
ATOM     22  C   UNL     1      33.382 -13.524 -24.043  0.00  0.00    +0.147 C 
ATOM     23  C   UNL     1      32.031 -13.293 -22.054  0.00  0.00    +0.040 C 
ATOM     24  C   UNL     1      32.626 -14.100 -23.023  0.00  0.00    +0.040 C 
BRANCH  20  25
ATOM     25  O   UNL     1      31.605 -11.134 -21.150  0.00  0.00    -0.472 OA
ATOM     26  C   UNL     1      31.658 -11.610 -19.806  0.00  0.00    +0.252 C 
ENDBRANCH  20  25
BRANCH  22  27
ATOM     27  O   UNL     1      33.962 -14.312 -24.988  0.00  0.00    -0.404 OA
BRANCH  27  31
ATOM     28  F   UNL     1      33.103 -16.031 -26.229  0.00  0.00    -0.133 F 
ATOM     29  F   UNL     1      33.789 -14.218 -27.237  0.00  0.00    -0.133 F 
ATOM     30  F   UNL     1      31.948 -14.154 -26.060  0.00  0.00    -0.133 F 
ATOM     31  C   UNL     1      33.187 -14.688 -26.121  0.00  0.00    +0.575 C 
ENDBRANCH  27  31
ENDBRANCH  22  27
ENDBRANCH  18  19
ENDBRANCH   1  18
TORSDOF 7
ENDMDL
