MODEL 1
REMARK VINA RESULT:     -12.2      0.000      0.000
REMARK  Name = 135565042
REMARK  5 active torsions:
REMARK  status: ('A' for Active; 'I' for Inactive)
REMARK    1  A    between atoms: C_3  and  O_21
REMARK    2  A    between atoms: C_6  and  C_7
REMARK    3  A    between atoms: C_8  and  O_19
REMARK    4  A    between atoms: C_10  and  C_15
REMARK    5  A    between atoms: O_21  and  C_27
REMARK                            x       y       z     vdW  Elec       q    Type
REMARK                         _______ _______ _______ _____ _____    ______ ____
ROOT
ATOM      1  N   UNL     1      35.313 -22.861 -16.953  0.00  0.00    -0.110 NA
ATOM      2  N   UNL     1      35.366 -22.057 -18.049  0.00  0.00    -0.145 NA
ATOM      3  C   UNL     1      34.131 -23.404 -16.591  0.00  0.00    +0.244 C 
ATOM      4  C   UNL     1      32.960 -23.182 -17.286  0.00  0.00    +0.061 C 
ATOM      5  C   UNL     1      33.013 -22.364 -18.402  0.00  0.00    +0.026 C 
ATOM      6  C   UNL     1      34.235 -21.823 -18.748  0.00  0.00    +0.106 C 
ENDROOT
BRANCH   6   7
ATOM      7  C   UNL     1      34.383 -20.963 -19.896  0.00  0.00    +0.053 C 
ATOM      8  C   UNL     1      35.637 -20.737 -20.464  0.00  0.00    +0.135 C 
ATOM      9  C   UNL     1      33.252 -20.353 -20.438  0.00  0.00    +0.005 C 
ATOM     10  C   UNL     1      34.628 -19.293 -22.117  0.00  0.00    +0.006 C 
ATOM     11  C   UNL     1      35.760 -19.903 -21.574  0.00  0.00    +0.037 C 
ATOM     12  C   UNL     1      33.374 -19.518 -21.548  0.00  0.00    +0.000 C 
BRANCH  10  15
ATOM     13  N   UNL     1      35.194 -16.685 -24.493  0.00  0.00    -0.235 N 
ATOM     14  N   UNL     1      34.717 -17.578 -25.378  0.00  0.00    -0.180 NA
ATOM     15  C   UNL     1      34.754 -18.434 -23.261  0.00  0.00    +0.037 C 
ATOM     16  C   UNL     1      35.237 -17.150 -23.212  0.00  0.00    +0.081 C 
ATOM     17  C   UNL     1      34.450 -18.644 -24.619  0.00  0.00    +0.119 C 
ATOM     18  H   UNL     1      35.486 -15.780 -24.748  0.00  0.00    +0.174 HD
ENDBRANCH  10  15
BRANCH   8  19
ATOM     19  O   UNL     1      36.759 -21.321 -19.954  0.00  0.00    -0.505 OA
ATOM     20  H   UNL     1      37.024 -22.168 -20.255  0.00  0.00    +0.292 HD
ENDBRANCH   8  19
ENDBRANCH   6   7
BRANCH   3  21
ATOM     21  O   UNL     1      34.122 -24.206 -15.482  0.00  0.00    -0.463 OA
BRANCH  21  27
ATOM     22  N   UNL     1      37.026 -25.462 -12.683  0.00  0.00    +0.389 N 
ATOM     23  C   UNL     1      37.320 -25.679 -14.106  0.00  0.00    -0.042 C 
ATOM     24  C   UNL     1      36.166 -24.337 -12.293  0.00  0.00    -0.042 C 
ATOM     25  C   UNL     1      36.071 -25.509 -14.992  0.00  0.00    +0.024 C 
ATOM     26  C   UNL     1      34.940 -24.192 -13.215  0.00  0.00    +0.024 C 
ATOM     27  C   UNL     1      35.309 -24.224 -14.694  0.00  0.00    +0.164 C 
ATOM     28  C   UNL     1      36.949 -23.015 -12.206  0.00  0.00    -0.021 C 
ATOM     29  C   UNL     1      37.797 -27.142 -14.218  0.00  0.00    -0.021 C 
ATOM     30  C   UNL     1      38.474 -24.786 -14.599  0.00  0.00    -0.021 C 
ATOM     31  C   UNL     1      35.666 -24.665 -10.870  0.00  0.00    -0.021 C 
ATOM     32  H   UNL     1      37.921 -25.332 -12.209  0.00  0.00    -0.084 HD
ATOM     33  H   UNL     1      36.485 -26.285 -12.419  0.00  0.00    -0.084 HD
ENDBRANCH  21  27
ENDBRANCH   3  21
TORSDOF 5
ENDMDL
MODEL 2
REMARK VINA RESULT:     -10.7      2.475      3.758
REMARK  Name = 135565042
REMARK  5 active torsions:
REMARK  status: ('A' for Active; 'I' for Inactive)
REMARK    1  A    between atoms: C_3  and  O_21
REMARK    2  A    between atoms: C_6  and  C_7
REMARK    3  A    between atoms: C_8  and  O_19
REMARK    4  A    between atoms: C_10  and  C_15
REMARK    5  A    between atoms: O_21  and  C_27
REMARK                            x       y       z     vdW  Elec       q    Type
REMARK                         _______ _______ _______ _____ _____    ______ ____
ROOT
ATOM      1  N   UNL     1      32.765 -21.539 -19.636  0.00  0.00    -0.110 NA
ATOM      2  N   UNL     1      32.828 -20.370 -20.329  0.00  0.00    -0.145 NA
ATOM      3  C   UNL     1      33.912 -22.145 -19.262  0.00  0.00    +0.244 C 
ATOM      4  C   UNL     1      35.160 -21.631 -19.551  0.00  0.00    +0.061 C 
ATOM      5  C   UNL     1      35.224 -20.442 -20.256  0.00  0.00    +0.026 C 
ATOM      6  C   UNL     1      34.036 -19.846 -20.626  0.00  0.00    +0.106 C 
ENDROOT
BRANCH   6   7
ATOM      7  C   UNL     1      34.009 -18.605 -21.360  0.00  0.00    +0.053 C 
ATOM      8  C   UNL     1      34.472 -18.539 -22.673  0.00  0.00    +0.135 C 
ATOM      9  C   UNL     1      33.510 -17.460 -20.738  0.00  0.00    +0.005 C 
ATOM     10  C   UNL     1      33.939 -16.184 -22.744  0.00  0.00    +0.006 C 
ATOM     11  C   UNL     1      34.438 -17.329 -23.366  0.00  0.00    +0.037 C 
ATOM     12  C   UNL     1      33.475 -16.249 -21.429  0.00  0.00    +0.000 C 
BRANCH  10  15
ATOM     13  N   UNL     1      34.078 -12.807 -23.905  0.00  0.00    -0.235 N 
ATOM     14  N   UNL     1      33.641 -13.334 -25.062  0.00  0.00    -0.180 NA
ATOM     15  C   UNL     1      33.902 -14.938 -23.457  0.00  0.00    +0.037 C 
ATOM     16  C   UNL     1      34.250 -13.727 -22.913  0.00  0.00    +0.081 C 
ATOM     17  C   UNL     1      33.536 -14.636 -24.783  0.00  0.00    +0.119 C 
ATOM     18  H   UNL     1      34.258 -11.847 -23.786  0.00  0.00    +0.174 HD
ENDBRANCH  10  15
BRANCH   8  19
ATOM     19  O   UNL     1      34.965 -19.643 -23.305  0.00  0.00    -0.505 OA
ATOM     20  H   UNL     1      35.882 -19.710 -23.484  0.00  0.00    +0.292 HD
ENDBRANCH   8  19
ENDBRANCH   6   7
BRANCH   3  21
ATOM     21  O   UNL     1      33.804 -23.318 -18.565  0.00  0.00    -0.463 OA
BRANCH  21  27
ATOM     22  N   UNL     1      33.463 -24.431 -14.504  0.00  0.00    +0.389 N 
ATOM     23  C   UNL     1      34.802 -24.090 -15.001  0.00  0.00    -0.042 C 
ATOM     24  C   UNL     1      32.287 -23.806 -15.126  0.00  0.00    -0.042 C 
ATOM     25  C   UNL     1      34.858 -24.043 -16.540  0.00  0.00    +0.024 C 
ATOM     26  C   UNL     1      32.393 -23.764 -16.662  0.00  0.00    +0.024 C 
ATOM     27  C   UNL     1      33.731 -23.216 -17.146  0.00  0.00    +0.164 C 
ATOM     28  C   UNL     1      32.009 -22.405 -14.553  0.00  0.00    -0.021 C 
ATOM     29  C   UNL     1      35.731 -25.223 -14.517  0.00  0.00    -0.021 C 
ATOM     30  C   UNL     1      35.329 -22.779 -14.389  0.00  0.00    -0.021 C 
ATOM     31  C   UNL     1      31.088 -24.700 -14.747  0.00  0.00    -0.021 C 
ATOM     32  H   UNL     1      33.441 -24.187 -13.513  0.00  0.00    -0.084 HD
ATOM     33  H   UNL     1      33.363 -25.420 -14.734  0.00  0.00    -0.084 HD
ENDBRANCH  21  27
ENDBRANCH   3  21
TORSDOF 5
ENDMDL
MODEL 3
REMARK VINA RESULT:     -10.4      1.325      2.596
REMARK  Name = 135565042
REMARK  5 active torsions:
REMARK  status: ('A' for Active; 'I' for Inactive)
REMARK    1  A    between atoms: C_3  and  O_21
REMARK    2  A    between atoms: C_6  and  C_7
REMARK    3  A    between atoms: C_8  and  O_19
REMARK    4  A    between atoms: C_10  and  C_15
REMARK    5  A    between atoms: O_21  and  C_27
REMARK                            x       y       z     vdW  Elec       q    Type
REMARK                         _______ _______ _______ _____ _____    ______ ____
ROOT
ATOM      1  N   UNL     1      33.741 -23.935 -17.258  0.00  0.00    -0.110 NA
ATOM      2  N   UNL     1      33.848 -23.075 -18.306  0.00  0.00    -0.145 NA
ATOM      3  C   UNL     1      34.583 -23.803 -16.210  0.00  0.00    +0.244 C 
ATOM      4  C   UNL     1      35.557 -22.828 -16.149  0.00  0.00    +0.061 C 
ATOM      5  C   UNL     1      35.666 -21.952 -17.216  0.00  0.00    +0.026 C 
ATOM      6  C   UNL     1      34.793 -22.111 -18.273  0.00  0.00    +0.106 C 
ENDROOT
BRANCH   6   7
ATOM      7  C   UNL     1      34.833 -21.243 -19.423  0.00  0.00    +0.053 C 
ATOM      8  C   UNL     1      33.665 -20.677 -19.934  0.00  0.00    +0.135 C 
ATOM      9  C   UNL     1      36.061 -20.972 -20.028  0.00  0.00    +0.005 C 
ATOM     10  C   UNL     1      34.952 -19.568 -21.651  0.00  0.00    +0.006 C 
ATOM     11  C   UNL     1      33.724 -19.839 -21.047  0.00  0.00    +0.037 C 
ATOM     12  C   UNL     1      36.121 -20.135 -21.141  0.00  0.00    +0.000 C 
BRANCH  10  15
ATOM     13  N   UNL     1      35.356 -16.942 -24.040  0.00  0.00    -0.235 N 
ATOM     14  N   UNL     1      34.883 -17.849 -24.911  0.00  0.00    -0.180 NA
ATOM     15  C   UNL     1      35.013 -18.705 -22.797  0.00  0.00    +0.037 C 
ATOM     16  C   UNL     1      35.453 -17.405 -22.761  0.00  0.00    +0.081 C 
ATOM     17  C   UNL     1      34.676 -18.925 -24.147  0.00  0.00    +0.119 C 
ATOM     18  H   UNL     1      35.609 -16.027 -24.302  0.00  0.00    +0.174 HD
ENDBRANCH  10  15
BRANCH   8  19
ATOM     19  O   UNL     1      32.451 -20.924 -19.363  0.00  0.00    -0.505 OA
ATOM     20  H   UNL     1      32.393 -21.474 -18.606  0.00  0.00    +0.292 HD
ENDBRANCH   8  19
ENDBRANCH   6   7
BRANCH   3  21
ATOM     21  O   UNL     1      34.441 -24.688 -15.176  0.00  0.00    -0.463 OA
BRANCH  21  27
ATOM     22  N   UNL     1      38.198 -24.182 -13.310  0.00  0.00    +0.389 N 
ATOM     23  C   UNL     1      37.002 -24.089 -12.461  0.00  0.00    -0.042 C 
ATOM     24  C   UNL     1      38.158 -25.026 -14.512  0.00  0.00    -0.042 C 
ATOM     25  C   UNL     1      35.710 -23.942 -13.287  0.00  0.00    +0.024 C 
ATOM     26  C   UNL     1      36.842 -24.861 -15.297  0.00  0.00    +0.024 C 
ATOM     27  C   UNL     1      35.608 -24.968 -14.408  0.00  0.00    +0.164 C 
ATOM     28  C   UNL     1      38.425 -26.506 -14.186  0.00  0.00    -0.021 C 
ATOM     29  C   UNL     1      37.185 -22.810 -11.617  0.00  0.00    -0.021 C 
ATOM     30  C   UNL     1      36.899 -25.270 -11.478  0.00  0.00    -0.021 C 
ATOM     31  C   UNL     1      39.319 -24.539 -15.404  0.00  0.00    -0.021 C 
ATOM     32  H   UNL     1      38.954 -24.534 -12.723  0.00  0.00    -0.084 HD
ATOM     33  H   UNL     1      38.307 -23.237 -13.679  0.00  0.00    -0.084 HD
ENDBRANCH  21  27
ENDBRANCH   3  21
TORSDOF 5
ENDMDL
MODEL 4
REMARK VINA RESULT:     -10.3      1.951     10.288
REMARK  Name = 135565042
REMARK  5 active torsions:
REMARK  status: ('A' for Active; 'I' for Inactive)
REMARK    1  A    between atoms: C_3  and  O_21
REMARK    2  A    between atoms: C_6  and  C_7
REMARK    3  A    between atoms: C_8  and  O_19
REMARK    4  A    between atoms: C_10  and  C_15
REMARK    5  A    between atoms: O_21  and  C_27
REMARK                            x       y       z     vdW  Elec       q    Type
REMARK                         _______ _______ _______ _____ _____    ______ ____
ROOT
ATOM      1  N   UNL     1      33.763 -21.210 -19.845  0.00  0.00    -0.110 NA
ATOM      2  N   UNL     1      34.197 -21.793 -18.695  0.00  0.00    -0.145 NA
ATOM      3  C   UNL     1      34.655 -20.590 -20.646  0.00  0.00    +0.244 C 
ATOM      4  C   UNL     1      36.002 -20.519 -20.354  0.00  0.00    +0.061 C 
ATOM      5  C   UNL     1      36.444 -21.112 -19.184  0.00  0.00    +0.026 C 
ATOM      6  C   UNL     1      35.510 -21.737 -18.384  0.00  0.00    +0.106 C 
ENDROOT
BRANCH   6   7
ATOM      7  C   UNL     1      35.881 -22.384 -17.150  0.00  0.00    +0.053 C 
ATOM      8  C   UNL     1      34.953 -23.129 -16.424  0.00  0.00    +0.135 C 
ATOM      9  C   UNL     1      37.190 -22.256 -16.684  0.00  0.00    +0.005 C 
ATOM     10  C   UNL     1      36.640 -23.618 -14.767  0.00  0.00    +0.006 C 
ATOM     11  C   UNL     1      35.332 -23.746 -15.233  0.00  0.00    +0.037 C 
ATOM     12  C   UNL     1      37.570 -22.872 -15.493  0.00  0.00    +0.000 C 
BRANCH  10  15
ATOM     13  N   UNL     1      37.825 -24.550 -11.527  0.00  0.00    -0.235 N 
ATOM     14  N   UNL     1      37.424 -25.781 -11.887  0.00  0.00    -0.180 NA
ATOM     15  C   UNL     1      37.032 -24.255 -13.540  0.00  0.00    +0.037 C 
ATOM     16  C   UNL     1      37.612 -23.600 -12.482  0.00  0.00    +0.081 C 
ATOM     17  C   UNL     1      36.940 -25.595 -13.117  0.00  0.00    +0.119 C 
ATOM     18  H   UNL     1      38.235 -24.352 -10.653  0.00  0.00    +0.174 HD
ENDBRANCH  10  15
BRANCH   8  19
ATOM     19  O   UNL     1      33.667 -23.270 -16.856  0.00  0.00    -0.505 OA
ATOM     20  H   UNL     1      33.108 -23.910 -16.461  0.00  0.00    +0.292 HD
ENDBRANCH   8  19
ENDBRANCH   6   7
BRANCH   3  21
ATOM     21  O   UNL     1      34.177 -20.017 -21.794  0.00  0.00    -0.463 OA
BRANCH  21  27
ATOM     22  N   UNL     1      33.609 -15.948 -22.779  0.00  0.00    +0.389 N 
ATOM     23  C   UNL     1      33.580 -16.310 -21.356  0.00  0.00    -0.042 C 
ATOM     24  C   UNL     1      34.417 -16.753 -23.706  0.00  0.00    -0.042 C 
ATOM     25  C   UNL     1      33.449 -17.830 -21.143  0.00  0.00    +0.024 C 
ATOM     26  C   UNL     1      34.270 -18.265 -23.446  0.00  0.00    +0.024 C 
ATOM     27  C   UNL     1      34.443 -18.630 -21.976  0.00  0.00    +0.164 C 
ATOM     28  C   UNL     1      35.897 -16.332 -23.695  0.00  0.00    -0.021 C 
ATOM     29  C   UNL     1      32.322 -15.630 -20.775  0.00  0.00    -0.021 C 
ATOM     30  C   UNL     1      34.793 -15.747 -20.592  0.00  0.00    -0.021 C 
ATOM     31  C   UNL     1      33.867 -16.448 -25.115  0.00  0.00    -0.021 C 
ATOM     32  H   UNL     1      33.955 -14.990 -22.837  0.00  0.00    -0.084 HD
ATOM     33  H   UNL     1      32.651 -16.109 -23.090  0.00  0.00    -0.084 HD
ENDBRANCH  21  27
ENDBRANCH   3  21
TORSDOF 5
ENDMDL
MODEL 5
REMARK VINA RESULT:     -10.1      7.076     13.838
REMARK  Name = 135565042
REMARK  5 active torsions:
REMARK  status: ('A' for Active; 'I' for Inactive)
REMARK    1  A    between atoms: C_3  and  O_21
REMARK    2  A    between atoms: C_6  and  C_7
REMARK    3  A    between atoms: C_8  and  O_19
REMARK    4  A    between atoms: C_10  and  C_15
REMARK    5  A    between atoms: O_21  and  C_27
REMARK                            x       y       z     vdW  Elec       q    Type
REMARK                         _______ _______ _______ _____ _____    ______ ____
ROOT
ATOM      1  N   UNL     1      33.441 -12.187 -23.892  0.00  0.00    -0.110 NA
ATOM      2  N   UNL     1      33.934 -13.388 -23.486  0.00  0.00    -0.145 NA
ATOM      3  C   UNL     1      32.400 -11.643 -23.225  0.00  0.00    +0.244 C 
ATOM      4  C   UNL     1      31.806 -12.252 -22.138  0.00  0.00    +0.061 C 
ATOM      5  C   UNL     1      32.308 -13.474 -21.725  0.00  0.00    +0.026 C 
ATOM      6  C   UNL     1      33.370 -14.006 -22.426  0.00  0.00    +0.106 C 
ENDROOT
BRANCH   6   7
ATOM      7  C   UNL     1      33.958 -15.272 -22.064  0.00  0.00    +0.053 C 
ATOM      8  C   UNL     1      34.197 -16.252 -23.026  0.00  0.00    +0.135 C 
ATOM      9  C   UNL     1      34.288 -15.510 -20.729  0.00  0.00    +0.005 C 
ATOM     10  C   UNL     1      35.096 -17.708 -21.321  0.00  0.00    +0.006 C 
ATOM     11  C   UNL     1      34.767 -17.470 -22.656  0.00  0.00    +0.037 C 
ATOM     12  C   UNL     1      34.856 -16.728 -20.357  0.00  0.00    +0.000 C 
BRANCH  10  15
ATOM     13  N   UNL     1      35.882 -21.047 -20.319  0.00  0.00    -0.235 N 
ATOM     14  N   UNL     1      37.156 -20.629 -20.417  0.00  0.00    -0.180 NA
ATOM     15  C   UNL     1      35.683 -18.962 -20.939  0.00  0.00    +0.037 C 
ATOM     16  C   UNL     1      34.962 -20.087 -20.622  0.00  0.00    +0.081 C 
ATOM     17  C   UNL     1      37.028 -19.354 -20.796  0.00  0.00    +0.119 C 
ATOM     18  H   UNL     1      35.636 -21.963 -20.054  0.00  0.00    +0.174 HD
ENDBRANCH  10  15
BRANCH   8  19
ATOM     19  O   UNL     1      33.885 -16.046 -24.338  0.00  0.00    -0.505 OA
ATOM     20  H   UNL     1      33.149 -15.513 -24.566  0.00  0.00    +0.292 HD
ENDBRANCH   8  19
ENDBRANCH   6   7
BRANCH   3  21
ATOM     21  O   UNL     1      31.935 -10.434 -23.665  0.00  0.00    -0.463 OA
BRANCH  21  27
ATOM     22  N   UNL     1      32.932  -6.375 -23.045  0.00  0.00    +0.389 N 
ATOM     23  C   UNL     1      32.185  -7.059 -21.980  0.00  0.00    -0.042 C 
ATOM     24  C   UNL     1      33.828  -7.158 -23.907  0.00  0.00    -0.042 C 
ATOM     25  C   UNL     1      31.587  -8.396 -22.454  0.00  0.00    +0.024 C 
ATOM     26  C   UNL     1      33.197  -8.495 -24.343  0.00  0.00    +0.024 C 
ATOM     27  C   UNL     1      32.603  -9.274 -23.175  0.00  0.00    +0.164 C 
ATOM     28  C   UNL     1      35.204  -7.383 -23.256  0.00  0.00    -0.021 C 
ATOM     29  C   UNL     1      31.024  -6.113 -21.609  0.00  0.00    -0.021 C 
ATOM     30  C   UNL     1      33.036  -7.252 -20.711  0.00  0.00    -0.021 C 
ATOM     31  C   UNL     1      34.055  -6.296 -25.167  0.00  0.00    -0.021 C 
ATOM     32  H   UNL     1      33.502  -5.657 -22.597  0.00  0.00    -0.084 HD
ATOM     33  H   UNL     1      32.204  -6.050 -23.681  0.00  0.00    -0.084 HD
ENDBRANCH  21  27
ENDBRANCH   3  21
TORSDOF 5
ENDMDL
MODEL 6
REMARK VINA RESULT:      -9.8      8.314     12.866
REMARK  Name = 135565042
REMARK  5 active torsions:
REMARK  status: ('A' for Active; 'I' for Inactive)
REMARK    1  A    between atoms: C_3  and  O_21
REMARK    2  A    between atoms: C_6  and  C_7
REMARK    3  A    between atoms: C_8  and  O_19
REMARK    4  A    between atoms: C_10  and  C_15
REMARK    5  A    between atoms: O_21  and  C_27
REMARK                            x       y       z     vdW  Elec       q    Type
REMARK                         _______ _______ _______ _____ _____    ______ ____
ROOT
ATOM      1  N   UNL     1      34.190 -12.140 -25.075  0.00  0.00    -0.110 NA
ATOM      2  N   UNL     1      33.770 -10.870 -24.831  0.00  0.00    -0.145 NA
ATOM      3  C   UNL     1      33.801 -13.133 -24.247  0.00  0.00    +0.244 C 
ATOM      4  C   UNL     1      32.989 -12.920 -23.151  0.00  0.00    +0.061 C 
ATOM      5  C   UNL     1      32.562 -11.627 -22.902  0.00  0.00    +0.026 C 
ATOM      6  C   UNL     1      32.976 -10.633 -23.765  0.00  0.00    +0.106 C 
ENDROOT
BRANCH   6   7
ATOM      7  C   UNL     1      32.576  -9.259 -23.584  0.00  0.00    +0.053 C 
ATOM      8  C   UNL     1      33.526  -8.240 -23.518  0.00  0.00    +0.135 C 
ATOM      9  C   UNL     1      31.219  -8.956 -23.473  0.00  0.00    +0.005 C 
ATOM     10  C   UNL     1      31.762  -6.614 -23.231  0.00  0.00    +0.006 C 
ATOM     11  C   UNL     1      33.120  -6.918 -23.342  0.00  0.00    +0.037 C 
ATOM     12  C   UNL     1      30.812  -7.634 -23.296  0.00  0.00    +0.000 C 
BRANCH  10  15
ATOM     13  N   UNL     1      30.413  -3.474 -22.191  0.00  0.00    -0.235 N 
ATOM     14  N   UNL     1      30.994  -3.010 -23.310  0.00  0.00    -0.180 NA
ATOM     15  C   UNL     1      31.343  -5.253 -23.051  0.00  0.00    +0.037 C 
ATOM     16  C   UNL     1      30.593  -4.810 -21.990  0.00  0.00    +0.081 C 
ATOM     17  C   UNL     1      31.561  -4.101 -23.832  0.00  0.00    +0.119 C 
ATOM     18  H   UNL     1      29.904  -2.900 -21.573  0.00  0.00    +0.174 HD
ENDBRANCH  10  15
BRANCH   8  19
ATOM     19  O   UNL     1      34.859  -8.508 -23.624  0.00  0.00    -0.505 OA
ATOM     20  H   UNL     1      35.264  -9.111 -23.032  0.00  0.00    +0.292 HD
ENDBRANCH   8  19
ENDBRANCH   6   7
BRANCH   3  21
ATOM     21  O   UNL     1      34.245 -14.396 -24.529  0.00  0.00    -0.463 OA
BRANCH  21  27
ATOM     22  N   UNL     1      33.840 -17.502 -21.694  0.00  0.00    +0.389 N 
ATOM     23  C   UNL     1      34.822 -17.692 -22.770  0.00  0.00    -0.042 C 
ATOM     24  C   UNL     1      33.530 -16.139 -21.240  0.00  0.00    -0.042 C 
ATOM     25  C   UNL     1      34.636 -16.678 -23.914  0.00  0.00    +0.024 C 
ATOM     26  C   UNL     1      33.371 -15.155 -22.415  0.00  0.00    +0.024 C 
ATOM     27  C   UNL     1      34.517 -15.243 -23.416  0.00  0.00    +0.164 C 
ATOM     28  C   UNL     1      34.563 -15.622 -20.222  0.00  0.00    -0.021 C 
ATOM     29  C   UNL     1      34.562 -19.107 -23.330  0.00  0.00    -0.021 C 
ATOM     30  C   UNL     1      36.268 -17.672 -22.242  0.00  0.00    -0.021 C 
ATOM     31  C   UNL     1      32.177 -16.240 -20.505  0.00  0.00    -0.021 C 
ATOM     32  H   UNL     1      34.183 -18.016 -20.882  0.00  0.00    -0.084 HD
ATOM     33  H   UNL     1      32.964 -17.827 -22.104  0.00  0.00    -0.084 HD
ENDBRANCH  21  27
ENDBRANCH   3  21
TORSDOF 5
ENDMDL
MODEL 7
REMARK VINA RESULT:      -9.7      2.605     10.378
REMARK  Name = 135565042
REMARK  5 active torsions:
REMARK  status: ('A' for Active; 'I' for Inactive)
REMARK    1  A    between atoms: C_3  and  O_21
REMARK    2  A    between atoms: C_6  and  C_7
REMARK    3  A    between atoms: C_8  and  O_19
REMARK    4  A    between atoms: C_10  and  C_15
REMARK    5  A    between atoms: O_21  and  C_27
REMARK                            x       y       z     vdW  Elec       q    Type
REMARK                         _______ _______ _______ _____ _____    ______ ____
ROOT
ATOM      1  N   UNL     1      36.535 -18.925 -21.143  0.00  0.00    -0.110 NA
ATOM      2  N   UNL     1      36.519 -19.783 -20.089  0.00  0.00    -0.145 NA
ATOM      3  C   UNL     1      35.458 -18.860 -21.956  0.00  0.00    +0.244 C 
ATOM      4  C   UNL     1      34.329 -19.631 -21.766  0.00  0.00    +0.061 C 
ATOM      5  C   UNL     1      34.313 -20.505 -20.693  0.00  0.00    +0.026 C 
ATOM      6  C   UNL     1      35.428 -20.550 -19.881  0.00  0.00    +0.106 C 
ENDROOT
BRANCH   6   7
ATOM      7  C   UNL     1      35.496 -21.428 -18.739  0.00  0.00    +0.053 C 
ATOM      8  C   UNL     1      34.410 -22.227 -18.383  0.00  0.00    +0.135 C 
ATOM      9  C   UNL     1      36.670 -21.472 -17.986  0.00  0.00    +0.005 C 
ATOM     10  C   UNL     1      35.670 -23.113 -16.522  0.00  0.00    +0.006 C 
ATOM     11  C   UNL     1      34.496 -23.069 -17.275  0.00  0.00    +0.037 C 
ATOM     12  C   UNL     1      36.757 -22.313 -16.878  0.00  0.00    +0.000 C 
BRANCH  10  15
ATOM     13  N   UNL     1      35.185 -25.205 -13.666  0.00  0.00    -0.235 N 
ATOM     14  N   UNL     1      36.522 -25.332 -13.705  0.00  0.00    -0.180 NA
ATOM     15  C   UNL     1      35.760 -23.981 -15.382  0.00  0.00    +0.037 C 
ATOM     16  C   UNL     1      34.679 -24.407 -14.649  0.00  0.00    +0.081 C 
ATOM     17  C   UNL     1      36.868 -24.582 -14.755  0.00  0.00    +0.119 C 
ATOM     18  H   UNL     1      34.622 -25.649 -12.990  0.00  0.00    +0.174 HD
ENDBRANCH  10  15
BRANCH   8  19
ATOM     19  O   UNL     1      33.251 -22.204 -19.101  0.00  0.00    -0.505 OA
ATOM     20  H   UNL     1      33.001 -22.950 -19.610  0.00  0.00    +0.292 HD
ENDBRANCH   8  19
ENDBRANCH   6   7
BRANCH   3  21
ATOM     21  O   UNL     1      35.514 -17.983 -23.004  0.00  0.00    -0.463 OA
BRANCH  21  27
ATOM     22  N   UNL     1      32.730 -14.827 -22.638  0.00  0.00    +0.389 N 
ATOM     23  C   UNL     1      33.246 -15.421 -21.398  0.00  0.00    -0.042 C 
ATOM     24  C   UNL     1      33.573 -14.837 -23.842  0.00  0.00    -0.042 C 
ATOM     25  C   UNL     1      33.964 -16.760 -21.648  0.00  0.00    +0.024 C 
ATOM     26  C   UNL     1      34.286 -16.188 -24.043  0.00  0.00    +0.024 C 
ATOM     27  C   UNL     1      34.982 -16.681 -22.779  0.00  0.00    +0.164 C 
ATOM     28  C   UNL     1      34.581 -13.674 -23.849  0.00  0.00    -0.021 C 
ATOM     29  C   UNL     1      32.008 -15.692 -20.516  0.00  0.00    -0.021 C 
ATOM     30  C   UNL     1      34.149 -14.444 -20.622  0.00  0.00    -0.021 C 
ATOM     31  C   UNL     1      32.612 -14.614 -25.028  0.00  0.00    -0.021 C 
ATOM     32  H   UNL     1      32.513 -13.851 -22.434  0.00  0.00    -0.084 HD
ATOM     33  H   UNL     1      31.944 -15.427 -22.887  0.00  0.00    -0.084 HD
ENDBRANCH  21  27
ENDBRANCH   3  21
TORSDOF 5
ENDMDL
MODEL 8
REMARK VINA RESULT:      -9.5      7.426     13.993
REMARK  Name = 135565042
REMARK  5 active torsions:
REMARK  status: ('A' for Active; 'I' for Inactive)
REMARK    1  A    between atoms: C_3  and  O_21
REMARK    2  A    between atoms: C_6  and  C_7
REMARK    3  A    between atoms: C_8  and  O_19
REMARK    4  A    between atoms: C_10  and  C_15
REMARK    5  A    between atoms: O_21  and  C_27
REMARK                            x       y       z     vdW  Elec       q    Type
REMARK                         _______ _______ _______ _____ _____    ______ ____
ROOT
ATOM      1  N   UNL     1      31.412 -12.181 -22.092  0.00  0.00    -0.110 NA
ATOM      2  N   UNL     1      32.043 -13.356 -21.827  0.00  0.00    -0.145 NA
ATOM      3  C   UNL     1      31.939 -11.343 -23.010  0.00  0.00    +0.244 C 
ATOM      4  C   UNL     1      33.100 -11.623 -23.701  0.00  0.00    +0.061 C 
ATOM      5  C   UNL     1      33.743 -12.819 -23.432  0.00  0.00    +0.026 C 
ATOM      6  C   UNL     1      33.182 -13.655 -22.488  0.00  0.00    +0.106 C 
ENDROOT
BRANCH   6   7
ATOM      7  C   UNL     1      33.782 -14.921 -22.147  0.00  0.00    +0.053 C 
ATOM      8  C   UNL     1      34.025 -15.885 -23.124  0.00  0.00    +0.135 C 
ATOM      9  C   UNL     1      34.118 -15.176 -20.817  0.00  0.00    +0.005 C 
ATOM     10  C   UNL     1      34.943 -17.358 -21.445  0.00  0.00    +0.006 C 
ATOM     11  C   UNL     1      34.607 -17.103 -22.774  0.00  0.00    +0.037 C 
ATOM     12  C   UNL     1      34.699 -16.394 -20.465  0.00  0.00    +0.000 C 
BRANCH  10  15
ATOM     13  N   UNL     1      35.761 -20.705 -20.497  0.00  0.00    -0.235 N 
ATOM     14  N   UNL     1      37.031 -20.274 -20.591  0.00  0.00    -0.180 NA
ATOM     15  C   UNL     1      35.543 -18.612 -21.083  0.00  0.00    +0.037 C 
ATOM     16  C   UNL     1      34.832 -19.748 -20.782  0.00  0.00    +0.081 C 
ATOM     17  C   UNL     1      36.891 -18.995 -20.950  0.00  0.00    +0.119 C 
ATOM     18  H   UNL     1      35.525 -21.627 -20.245  0.00  0.00    +0.174 HD
ENDBRANCH  10  15
BRANCH   8  19
ATOM     19  O   UNL     1      33.707 -15.662 -24.432  0.00  0.00    -0.505 OA
ATOM     20  H   UNL     1      34.370 -15.393 -25.036  0.00  0.00    +0.292 HD
ENDBRANCH   8  19
ENDBRANCH   6   7
BRANCH   3  21
ATOM     21  O   UNL     1      31.272 -10.172 -23.248  0.00  0.00    -0.463 OA
BRANCH  21  27
ATOM     22  N   UNL     1      32.261  -6.161 -22.364  0.00  0.00    +0.389 N 
ATOM     23  C   UNL     1      32.748  -7.197 -21.443  0.00  0.00    -0.042 C 
ATOM     24  C   UNL     1      32.053  -6.501 -23.778  0.00  0.00    -0.042 C 
ATOM     25  C   UNL     1      32.047  -8.551 -21.665  0.00  0.00    +0.024 C 
ATOM     26  C   UNL     1      31.368  -7.870 -23.955  0.00  0.00    +0.024 C 
ATOM     27  C   UNL     1      32.027  -8.970 -23.130  0.00  0.00    +0.164 C 
ATOM     28  C   UNL     1      33.362  -6.431 -24.586  0.00  0.00    -0.021 C 
ATOM     29  C   UNL     1      32.396  -6.697 -20.026  0.00  0.00    -0.021 C 
ATOM     30  C   UNL     1      34.279  -7.349 -21.503  0.00  0.00    -0.021 C 
ATOM     31  C   UNL     1      31.114  -5.413 -24.338  0.00  0.00    -0.021 C 
ATOM     32  H   UNL     1      32.936  -5.396 -22.337  0.00  0.00    -0.084 HD
ATOM     33  H   UNL     1      31.322  -5.955 -22.023  0.00  0.00    -0.084 HD
ENDBRANCH  21  27
ENDBRANCH   3  21
TORSDOF 5
ENDMDL
MODEL 9
REMARK VINA RESULT:      -9.5      6.243     13.500
REMARK  Name = 135565042
REMARK  5 active torsions:
REMARK  status: ('A' for Active; 'I' for Inactive)
REMARK    1  A    between atoms: C_3  and  O_21
REMARK    2  A    between atoms: C_6  and  C_7
REMARK    3  A    between atoms: C_8  and  O_19
REMARK    4  A    between atoms: C_10  and  C_15
REMARK    5  A    between atoms: O_21  and  C_27
REMARK                            x       y       z     vdW  Elec       q    Type
REMARK                         _______ _______ _______ _____ _____    ______ ____
ROOT
ATOM      1  N   UNL     1      33.691 -13.703 -24.978  0.00  0.00    -0.110 NA
ATOM      2  N   UNL     1      33.765 -14.897 -24.331  0.00  0.00    -0.145 NA
ATOM      3  C   UNL     1      33.791 -12.560 -24.265  0.00  0.00    +0.244 C 
ATOM      4  C   UNL     1      33.968 -12.544 -22.897  0.00  0.00    +0.061 C 
ATOM      5  C   UNL     1      34.044 -13.759 -22.237  0.00  0.00    +0.026 C 
ATOM      6  C   UNL     1      33.937 -14.910 -22.992  0.00  0.00    +0.106 C 
ENDROOT
BRANCH   6   7
ATOM      7  C   UNL     1      34.008 -16.218 -22.389  0.00  0.00    +0.053 C 
ATOM      8  C   UNL     1      34.864 -17.195 -22.897  0.00  0.00    +0.135 C 
ATOM      9  C   UNL     1      33.205 -16.501 -21.284  0.00  0.00    +0.005 C 
ATOM     10  C   UNL     1      34.115 -18.737 -21.196  0.00  0.00    +0.006 C 
ATOM     11  C   UNL     1      34.918 -18.454 -22.301  0.00  0.00    +0.037 C 
ATOM     12  C   UNL     1      33.258 -17.760 -20.687  0.00  0.00    +0.000 C 
BRANCH  10  15
ATOM     13  N   UNL     1      33.544 -21.923 -19.683  0.00  0.00    -0.235 N 
ATOM     14  N   UNL     1      34.886 -21.993 -19.650  0.00  0.00    -0.180 NA
ATOM     15  C   UNL     1      34.171 -20.033 -20.580  0.00  0.00    +0.037 C 
ATOM     16  C   UNL     1      33.066 -20.769 -20.230  0.00  0.00    +0.081 C 
ATOM     17  C   UNL     1      35.263 -20.836 -20.200  0.00  0.00    +0.119 C 
ATOM     18  H   UNL     1      32.960 -22.640 -19.342  0.00  0.00    +0.174 HD
ENDBRANCH  10  15
BRANCH   8  19
ATOM     19  O   UNL     1      35.660 -16.945 -23.976  0.00  0.00    -0.505 OA
ATOM     20  H   UNL     1      35.290 -16.927 -24.837  0.00  0.00    +0.292 HD
ENDBRANCH   8  19
ENDBRANCH   6   7
BRANCH   3  21
ATOM     21  O   UNL     1      33.712 -11.381 -24.955  0.00  0.00    -0.463 OA
BRANCH  21  27
ATOM     22  N   UNL     1      32.799  -7.424 -23.789  0.00  0.00    +0.389 N 
ATOM     23  C   UNL     1      32.030  -8.508 -23.163  0.00  0.00    -0.042 C 
ATOM     24  C   UNL     1      34.173  -7.688 -24.237  0.00  0.00    -0.042 C 
ATOM     25  C   UNL     1      32.201  -9.848 -23.904  0.00  0.00    +0.024 C 
ATOM     26  C   UNL     1      34.302  -9.044 -24.957  0.00  0.00    +0.024 C 
ATOM     27  C   UNL     1      33.661 -10.187 -24.178  0.00  0.00    +0.164 C 
ATOM     28  C   UNL     1      35.187  -7.575 -23.084  0.00  0.00    -0.021 C 
ATOM     29  C   UNL     1      30.549  -8.085 -23.263  0.00  0.00    -0.021 C 
ATOM     30  C   UNL     1      32.358  -8.659 -21.666  0.00  0.00    -0.021 C 
ATOM     31  C   UNL     1      34.506  -6.569 -25.247  0.00  0.00    -0.021 C 
ATOM     32  H   UNL     1      32.847  -6.663 -23.111  0.00  0.00    -0.084 HD
ATOM     33  H   UNL     1      32.292  -7.236 -24.654  0.00  0.00    -0.084 HD
ENDBRANCH  21  27
ENDBRANCH   3  21
TORSDOF 5
ENDMDL
