MODEL 1
REMARK VINA RESULT:      -8.3      0.000      0.000
REMARK  Name = 10019998
REMARK  7 active torsions:
REMARK  status: ('A' for Active; 'I' for Inactive)
REMARK    1  A    between atoms: C_2  and  O_16
REMARK    2  A    between atoms: C_3  and  C_18
REMARK    3  A    between atoms: C_5  and  N_8
REMARK    4  A    between atoms: C_18  and  O_19
REMARK    5  A    between atoms: O_19  and  P_21
REMARK    6  A    between atoms: P_21  and  O_22
REMARK    7  A    between atoms: P_21  and  O_24
REMARK                            x       y       z     vdW  Elec       q    Type
REMARK                         _______ _______ _______ _____ _____    ______ ____
ROOT
ATOM      1  O   UNL     1      34.868 -24.703 -15.801  0.00  0.00    -0.335 OA
ATOM      2  C   UNL     1      36.552 -23.100 -15.338  0.00  0.00    +0.144 C 
ATOM      3  C   UNL     1      36.015 -24.475 -14.961  0.00  0.00    +0.174 C 
ATOM      4  C   UNL     1      35.315 -22.365 -15.800  0.00  0.00    +0.083 C 
ATOM      5  C   UNL     1      34.492 -23.472 -16.436  0.00  0.00    +0.202 C 
ENDROOT
BRANCH   5   8
ATOM      6  O   UNL     1      32.748 -22.484 -18.459  0.00  0.00    -0.252 OA
ATOM      7  O   UNL     1      29.093 -22.772 -15.683  0.00  0.00    -0.270 OA
ATOM      8  N   UNL     1      33.080 -23.273 -16.287  0.00  0.00    -0.219 N 
ATOM      9  N   UNL     1      30.933 -22.632 -17.063  0.00  0.00    -0.236 N 
ATOM     10  C   UNL     1      32.493 -23.580 -15.065  0.00  0.00    +0.071 C 
ATOM     11  C   UNL     1      32.295 -22.777 -17.350  0.00  0.00    +0.315 C 
ATOM     12  C   UNL     1      31.190 -23.440 -14.795  0.00  0.00    +0.047 C 
ATOM     13  C   UNL     1      30.298 -22.922 -15.866  0.00  0.00    +0.250 C 
ATOM     14  C   UNL     1      30.579 -23.776 -13.473  0.00  0.00    +0.037 C 
ATOM     15  H   UNL     1      30.366 -22.287 -17.790  0.00  0.00    +0.159 HD
ENDBRANCH   5   8
BRANCH   2  16
ATOM     16  O   UNL     1      37.472 -23.218 -16.420  0.00  0.00    -0.382 OA
ATOM     17  H   UNL     1      38.247 -23.726 -16.132  0.00  0.00    +0.210 HD
ENDBRANCH   2  16
BRANCH   3  18
ATOM     18  C   UNL     1      35.557 -24.554 -13.511  0.00  0.00    +0.183 C 
BRANCH  18  19
ATOM     19  O   UNL     1      36.079 -23.440 -12.805  0.00  0.00    -0.295 OA
BRANCH  19  21
ATOM     20  S   UNL     1      38.714 -24.929 -12.472  0.00  0.00    +0.022 S 
ATOM     21  P   UNL     1      37.405 -23.620 -11.887  0.00  0.00    +0.304 P 
BRANCH  21  22
ATOM     22  O   UNL     1      36.794 -23.847 -10.402  0.00  0.00    -0.327 OA
ATOM     23  H   UNL     1      36.730 -24.798 -10.220  0.00  0.00    +0.219 HD
ENDBRANCH  21  22
BRANCH  21  24
ATOM     24  O   UNL     1      37.968 -22.102 -11.778  0.00  0.00    -0.327 OA
ATOM     25  H   UNL     1      37.504 -21.540 -12.419  0.00  0.00    +0.219 HD
ENDBRANCH  21  24
ENDBRANCH  19  21
ENDBRANCH  18  19
ENDBRANCH   3  18
TORSDOF 7
ENDMDL
MODEL 2
REMARK VINA RESULT:      -8.2      9.149     11.316
REMARK  Name = 10019998
REMARK  7 active torsions:
REMARK  status: ('A' for Active; 'I' for Inactive)
REMARK    1  A    between atoms: C_2  and  O_16
REMARK    2  A    between atoms: C_3  and  C_18
REMARK    3  A    between atoms: C_5  and  N_8
REMARK    4  A    between atoms: C_18  and  O_19
REMARK    5  A    between atoms: O_19  and  P_21
REMARK    6  A    between atoms: P_21  and  O_22
REMARK    7  A    between atoms: P_21  and  O_24
REMARK                            x       y       z     vdW  Elec       q    Type
REMARK                         _______ _______ _______ _____ _____    ______ ____
ROOT
ATOM      1  O   UNL     1      35.739 -16.632 -22.893  0.00  0.00    -0.335 OA
ATOM      2  C   UNL     1      34.271 -16.833 -24.744  0.00  0.00    +0.144 C 
ATOM      3  C   UNL     1      34.726 -15.911 -23.620  0.00  0.00    +0.174 C 
ATOM      4  C   UNL     1      34.495 -18.212 -24.168  0.00  0.00    +0.083 C 
ATOM      5  C   UNL     1      35.723 -18.009 -23.296  0.00  0.00    +0.202 C 
ENDROOT
BRANCH   5   8
ATOM      6  O   UNL     1      38.029 -18.723 -21.785  0.00  0.00    -0.252 OA
ATOM      7  O   UNL     1      35.534 -21.230 -18.846  0.00  0.00    -0.270 OA
ATOM      8  N   UNL     1      35.723 -18.844 -22.131  0.00  0.00    -0.219 N 
ATOM      9  N   UNL     1      36.772 -19.970 -20.327  0.00  0.00    -0.236 N 
ATOM     10  C   UNL     1      34.512 -19.359 -21.684  0.00  0.00    +0.071 C 
ATOM     11  C   UNL     1      36.921 -19.144 -21.446  0.00  0.00    +0.315 C 
ATOM     12  C   UNL     1      34.374 -20.150 -20.613  0.00  0.00    +0.047 C 
ATOM     13  C   UNL     1      35.592 -20.509 -19.839  0.00  0.00    +0.250 C 
ATOM     14  C   UNL     1      33.061 -20.693 -20.150  0.00  0.00    +0.037 C 
ATOM     15  H   UNL     1      37.595 -20.193 -19.833  0.00  0.00    +0.159 HD
ENDBRANCH   5   8
BRANCH   2  16
ATOM     16  O   UNL     1      35.103 -16.650 -25.887  0.00  0.00    -0.382 OA
ATOM     17  H   UNL     1      35.540 -17.487 -26.107  0.00  0.00    +0.210 HD
ENDBRANCH   2  16
BRANCH   3  18
ATOM     18  C   UNL     1      33.605 -15.568 -22.646  0.00  0.00    +0.183 C 
BRANCH  18  19
ATOM     19  O   UNL     1      33.744 -14.214 -22.248  0.00  0.00    -0.295 OA
BRANCH  19  21
ATOM     20  S   UNL     1      31.792 -11.883 -22.096  0.00  0.00    +0.022 S 
ATOM     21  P   UNL     1      32.989 -13.048 -23.086  0.00  0.00    +0.304 P 
BRANCH  21  22
ATOM     22  O   UNL     1      32.324 -13.859 -24.323  0.00  0.00    -0.327 OA
ATOM     23  H   UNL     1      31.829 -13.243 -24.885  0.00  0.00    +0.219 HD
ENDBRANCH  21  22
BRANCH  21  24
ATOM     24  O   UNL     1      34.220 -12.288 -23.820  0.00  0.00    -0.327 OA
ATOM     25  H   UNL     1      35.048 -12.756 -23.631  0.00  0.00    +0.219 HD
ENDBRANCH  21  24
ENDBRANCH  19  21
ENDBRANCH  18  19
ENDBRANCH   3  18
TORSDOF 7
ENDMDL
MODEL 3
REMARK VINA RESULT:      -7.8     11.388     13.015
REMARK  Name = 10019998
REMARK  7 active torsions:
REMARK  status: ('A' for Active; 'I' for Inactive)
REMARK    1  A    between atoms: C_2  and  O_16
REMARK    2  A    between atoms: C_3  and  C_18
REMARK    3  A    between atoms: C_5  and  N_8
REMARK    4  A    between atoms: C_18  and  O_19
REMARK    5  A    between atoms: O_19  and  P_21
REMARK    6  A    between atoms: P_21  and  O_22
REMARK    7  A    between atoms: P_21  and  O_24
REMARK                            x       y       z     vdW  Elec       q    Type
REMARK                         _______ _______ _______ _____ _____    ______ ____
ROOT
ATOM      1  O   UNL     1      31.976 -13.887 -22.318  0.00  0.00    -0.335 OA
ATOM      2  C   UNL     1      33.840 -14.404 -23.690  0.00  0.00    +0.144 C 
ATOM      3  C   UNL     1      32.987 -14.892 -22.526  0.00  0.00    +0.174 C 
ATOM      4  C   UNL     1      33.735 -12.900 -23.585  0.00  0.00    +0.083 C 
ATOM      5  C   UNL     1      32.324 -12.705 -23.055  0.00  0.00    +0.202 C 
ENDROOT
BRANCH   5   8
ATOM      6  O   UNL     1      32.775 -10.007 -23.845  0.00  0.00    -0.252 OA
ATOM      7  O   UNL     1      31.815  -8.435 -19.631  0.00  0.00    -0.270 OA
ATOM      8  N   UNL     1      32.204 -11.561 -22.199  0.00  0.00    -0.219 N 
ATOM      9  N   UNL     1      32.294  -9.236 -21.739  0.00  0.00    -0.236 N 
ATOM     10  C   UNL     1      31.840 -11.760 -20.873  0.00  0.00    +0.071 C 
ATOM     11  C   UNL     1      32.449 -10.258 -22.683  0.00  0.00    +0.315 C 
ATOM     12  C   UNL     1      31.694 -10.780 -19.973  0.00  0.00    +0.047 C 
ATOM     13  C   UNL     1      31.934  -9.379 -20.408  0.00  0.00    +0.250 C 
ATOM     14  C   UNL     1      31.301 -11.017 -18.550  0.00  0.00    +0.037 C 
ATOM     15  H   UNL     1      32.461  -8.318 -22.054  0.00  0.00    +0.159 HD
ENDBRANCH   5   8
BRANCH   2  16
ATOM     16  O   UNL     1      33.272 -14.840 -24.923  0.00  0.00    -0.382 OA
ATOM     17  H   UNL     1      32.754 -14.119 -25.313  0.00  0.00    +0.210 HD
ENDBRANCH   2  16
BRANCH   3  18
ATOM     18  C   UNL     1      33.778 -15.035 -21.232  0.00  0.00    +0.183 C 
BRANCH  18  19
ATOM     19  O   UNL     1      34.924 -15.832 -21.482  0.00  0.00    -0.295 OA
BRANCH  19  21
ATOM     20  S   UNL     1      34.964 -18.131 -23.478  0.00  0.00    +0.022 S 
ATOM     21  P   UNL     1      34.761 -17.435 -21.677  0.00  0.00    +0.304 P 
BRANCH  21  22
ATOM     22  O   UNL     1      33.344 -17.749 -20.953  0.00  0.00    -0.327 OA
ATOM     23  H   UNL     1      33.266 -18.703 -20.794  0.00  0.00    +0.219 HD
ENDBRANCH  21  22
BRANCH  21  24
ATOM     24  O   UNL     1      35.817 -18.030 -20.598  0.00  0.00    -0.327 OA
ATOM     25  H   UNL     1      36.151 -17.309 -20.042  0.00  0.00    +0.219 HD
ENDBRANCH  21  24
ENDBRANCH  19  21
ENDBRANCH  18  19
ENDBRANCH   3  18
TORSDOF 7
ENDMDL
MODEL 4
REMARK VINA RESULT:      -7.7      3.645      5.831
REMARK  Name = 10019998
REMARK  7 active torsions:
REMARK  status: ('A' for Active; 'I' for Inactive)
REMARK    1  A    between atoms: C_2  and  O_16
REMARK    2  A    between atoms: C_3  and  C_18
REMARK    3  A    between atoms: C_5  and  N_8
REMARK    4  A    between atoms: C_18  and  O_19
REMARK    5  A    between atoms: O_19  and  P_21
REMARK    6  A    between atoms: P_21  and  O_22
REMARK    7  A    between atoms: P_21  and  O_24
REMARK                            x       y       z     vdW  Elec       q    Type
REMARK                         _______ _______ _______ _____ _____    ______ ____
ROOT
ATOM      1  O   UNL     1      34.030 -24.528 -14.959  0.00  0.00    -0.335 OA
ATOM      2  C   UNL     1      34.427 -23.948 -12.694  0.00  0.00    +0.144 C 
ATOM      3  C   UNL     1      33.348 -24.300 -13.710  0.00  0.00    +0.174 C 
ATOM      4  C   UNL     1      35.496 -23.299 -13.542  0.00  0.00    +0.083 C 
ATOM      5  C   UNL     1      35.381 -24.056 -14.855  0.00  0.00    +0.202 C 
ENDROOT
BRANCH   5   8
ATOM      6  O   UNL     1      37.909 -22.858 -15.386  0.00  0.00    -0.252 OA
ATOM      7  O   UNL     1      36.381 -20.966 -19.289  0.00  0.00    -0.270 OA
ATOM      8  N   UNL     1      35.689 -23.244 -15.995  0.00  0.00    -0.219 N 
ATOM      9  N   UNL     1      37.134 -21.920 -17.330  0.00  0.00    -0.236 N 
ATOM     10  C   UNL     1      34.688 -23.008 -16.930  0.00  0.00    +0.071 C 
ATOM     11  C   UNL     1      36.975 -22.691 -16.173  0.00  0.00    +0.315 C 
ATOM     12  C   UNL     1      34.844 -22.269 -18.036  0.00  0.00    +0.047 C 
ATOM     13  C   UNL     1      36.173 -21.654 -18.293  0.00  0.00    +0.250 C 
ATOM     14  C   UNL     1      33.753 -22.029 -19.029  0.00  0.00    +0.037 C 
ATOM     15  H   UNL     1      38.023 -21.523 -17.475  0.00  0.00    +0.159 HD
ENDBRANCH   5   8
BRANCH   2  16
ATOM     16  O   UNL     1      34.942 -25.137 -12.101  0.00  0.00    -0.382 OA
ATOM     17  H   UNL     1      35.911 -25.119 -12.128  0.00  0.00    +0.210 HD
ENDBRANCH   2  16
BRANCH   3  18
ATOM     18  C   UNL     1      32.345 -23.174 -13.922  0.00  0.00    +0.183 C 
BRANCH  18  19
ATOM     19  O   UNL     1      31.039 -23.726 -13.959  0.00  0.00    -0.295 OA
BRANCH  19  21
ATOM     20  S   UNL     1      28.713 -22.741 -15.658  0.00  0.00    +0.022 S 
ATOM     21  P   UNL     1      30.268 -23.870 -15.379  0.00  0.00    +0.304 P 
BRANCH  21  22
ATOM     22  O   UNL     1      30.011 -25.468 -15.496  0.00  0.00    -0.327 OA
ATOM     23  H   UNL     1      29.310 -25.729 -14.877  0.00  0.00    +0.219 HD
ENDBRANCH  21  22
BRANCH  21  24
ATOM     24  O   UNL     1      31.463 -23.653 -16.454  0.00  0.00    -0.327 OA
ATOM     25  H   UNL     1      32.310 -23.896 -16.048  0.00  0.00    +0.219 HD
ENDBRANCH  21  24
ENDBRANCH  19  21
ENDBRANCH  18  19
ENDBRANCH   3  18
TORSDOF 7
ENDMDL
MODEL 5
REMARK VINA RESULT:      -7.6      2.476      3.974
REMARK  Name = 10019998
REMARK  7 active torsions:
REMARK  status: ('A' for Active; 'I' for Inactive)
REMARK    1  A    between atoms: C_2  and  O_16
REMARK    2  A    between atoms: C_3  and  C_18
REMARK    3  A    between atoms: C_5  and  N_8
REMARK    4  A    between atoms: C_18  and  O_19
REMARK    5  A    between atoms: O_19  and  P_21
REMARK    6  A    between atoms: P_21  and  O_22
REMARK    7  A    between atoms: P_21  and  O_24
REMARK                            x       y       z     vdW  Elec       q    Type
REMARK                         _______ _______ _______ _____ _____    ______ ____
ROOT
ATOM      1  O   UNL     1      35.655 -22.534 -14.656  0.00  0.00    -0.335 OA
ATOM      2  C   UNL     1      35.836 -24.710 -13.730  0.00  0.00    +0.144 C 
ATOM      3  C   UNL     1      36.611 -23.447 -14.081  0.00  0.00    +0.174 C 
ATOM      4  C   UNL     1      34.722 -24.723 -14.751  0.00  0.00    +0.083 C 
ATOM      5  C   UNL     1      34.443 -23.243 -14.953  0.00  0.00    +0.202 C 
ENDROOT
BRANCH   5   8
ATOM      6  O   UNL     1      31.774 -23.419 -15.928  0.00  0.00    -0.252 OA
ATOM      7  O   UNL     1      33.032 -22.006 -20.120  0.00  0.00    -0.270 OA
ATOM      8  N   UNL     1      34.028 -22.932 -16.289  0.00  0.00    -0.219 N 
ATOM      9  N   UNL     1      32.415 -22.714 -18.014  0.00  0.00    -0.236 N 
ATOM     10  C   UNL     1      34.988 -22.508 -17.200  0.00  0.00    +0.071 C 
ATOM     11  C   UNL     1      32.677 -23.050 -16.681  0.00  0.00    +0.315 C 
ATOM     12  C   UNL     1      34.734 -22.188 -18.475  0.00  0.00    +0.047 C 
ATOM     13  C   UNL     1      33.332 -22.287 -18.962  0.00  0.00    +0.250 C 
ATOM     14  C   UNL     1      35.783 -21.734 -19.439  0.00  0.00    +0.037 C 
ATOM     15  H   UNL     1      31.479 -22.789 -18.311  0.00  0.00    +0.159 HD
ENDBRANCH   5   8
BRANCH   2  16
ATOM     16  O   UNL     1      35.285 -24.593 -12.420  0.00  0.00    -0.382 OA
ATOM     17  H   UNL     1      35.598 -23.772 -12.010  0.00  0.00    +0.210 HD
ENDBRANCH   2  16
BRANCH   3  18
ATOM     18  C   UNL     1      37.705 -23.690 -15.112  0.00  0.00    +0.183 C 
BRANCH  18  19
ATOM     19  O   UNL     1      38.821 -24.279 -14.464  0.00  0.00    -0.295 OA
BRANCH  19  21
ATOM     20  S   UNL     1      37.733 -27.061 -15.056  0.00  0.00    +0.022 S 
ATOM     21  P   UNL     1      39.204 -25.826 -14.770  0.00  0.00    +0.304 P 
BRANCH  21  22
ATOM     22  O   UNL     1      40.215 -26.199 -13.558  0.00  0.00    -0.327 OA
ATOM     23  H   UNL     1      40.788 -26.933 -13.829  0.00  0.00    +0.219 HD
ENDBRANCH  21  22
BRANCH  21  24
ATOM     24  O   UNL     1      40.230 -25.694 -16.021  0.00  0.00    -0.327 OA
ATOM     25  H   UNL     1      41.142 -25.722 -15.694  0.00  0.00    +0.219 HD
ENDBRANCH  21  24
ENDBRANCH  19  21
ENDBRANCH  18  19
ENDBRANCH   3  18
TORSDOF 7
ENDMDL
MODEL 6
REMARK VINA RESULT:      -7.5     10.423     12.420
REMARK  Name = 10019998
REMARK  7 active torsions:
REMARK  status: ('A' for Active; 'I' for Inactive)
REMARK    1  A    between atoms: C_2  and  O_16
REMARK    2  A    between atoms: C_3  and  C_18
REMARK    3  A    between atoms: C_5  and  N_8
REMARK    4  A    between atoms: C_18  and  O_19
REMARK    5  A    between atoms: O_19  and  P_21
REMARK    6  A    between atoms: P_21  and  O_22
REMARK    7  A    between atoms: P_21  and  O_24
REMARK                            x       y       z     vdW  Elec       q    Type
REMARK                         _______ _______ _______ _____ _____    ______ ____
ROOT
ATOM      1  O   UNL     1      34.584 -14.085 -21.852  0.00  0.00    -0.335 OA
ATOM      2  C   UNL     1      32.918 -15.277 -20.657  0.00  0.00    +0.144 C 
ATOM      3  C   UNL     1      34.406 -15.215 -20.975  0.00  0.00    +0.174 C 
ATOM      4  C   UNL     1      32.279 -14.682 -21.890  0.00  0.00    +0.083 C 
ATOM      5  C   UNL     1      33.302 -13.645 -22.323  0.00  0.00    +0.202 C 
ENDROOT
BRANCH   5   8
ATOM      6  O   UNL     1      33.961 -11.221 -23.664  0.00  0.00    -0.252 OA
ATOM      7  O   UNL     1      33.451 -13.172 -27.797  0.00  0.00    -0.270 OA
ATOM      8  N   UNL     1      33.354 -13.474 -23.746  0.00  0.00    -0.219 N 
ATOM      9  N   UNL     1      33.703 -12.206 -25.719  0.00  0.00    -0.236 N 
ATOM     10  C   UNL     1      33.063 -14.564 -24.556  0.00  0.00    +0.071 C 
ATOM     11  C   UNL     1      33.691 -12.229 -24.320  0.00  0.00    +0.315 C 
ATOM     12  C   UNL     1      33.074 -14.538 -25.894  0.00  0.00    +0.047 C 
ATOM     13  C   UNL     1      33.422 -13.262 -26.573  0.00  0.00    +0.250 C 
ATOM     14  C   UNL     1      32.757 -15.725 -26.747  0.00  0.00    +0.037 C 
ATOM     15  H   UNL     1      33.935 -11.348 -26.142  0.00  0.00    +0.159 HD
ENDBRANCH   5   8
BRANCH   2  16
ATOM     16  O   UNL     1      32.629 -14.460 -19.525  0.00  0.00    -0.382 OA
ATOM     17  H   UNL     1      33.427 -13.973 -19.266  0.00  0.00    +0.210 HD
ENDBRANCH   2  16
BRANCH   3  18
ATOM     18  C   UNL     1      34.909 -16.455 -21.702  0.00  0.00    +0.183 C 
BRANCH  18  19
ATOM     19  O   UNL     1      33.940 -17.484 -21.575  0.00  0.00    -0.295 OA
BRANCH  19  21
ATOM     20  S   UNL     1      33.163 -20.217 -20.483  0.00  0.00    +0.022 S 
ATOM     21  P   UNL     1      34.421 -19.016 -21.347  0.00  0.00    +0.304 P 
BRANCH  21  22
ATOM     22  O   UNL     1      35.855 -18.845 -20.609  0.00  0.00    -0.327 OA
ATOM     23  H   UNL     1      35.719 -18.764 -19.652  0.00  0.00    +0.219 HD
ENDBRANCH  21  22
BRANCH  21  24
ATOM     24  O   UNL     1      34.874 -19.470 -22.838  0.00  0.00    -0.327 OA
ATOM     25  H   UNL     1      34.242 -19.121 -23.486  0.00  0.00    +0.219 HD
ENDBRANCH  21  24
ENDBRANCH  19  21
ENDBRANCH  18  19
ENDBRANCH   3  18
TORSDOF 7
ENDMDL
MODEL 7
REMARK VINA RESULT:      -7.4     10.626     12.723
REMARK  Name = 10019998
REMARK  7 active torsions:
REMARK  status: ('A' for Active; 'I' for Inactive)
REMARK    1  A    between atoms: C_2  and  O_16
REMARK    2  A    between atoms: C_3  and  C_18
REMARK    3  A    between atoms: C_5  and  N_8
REMARK    4  A    between atoms: C_18  and  O_19
REMARK    5  A    between atoms: O_19  and  P_21
REMARK    6  A    between atoms: P_21  and  O_22
REMARK    7  A    between atoms: P_21  and  O_24
REMARK                            x       y       z     vdW  Elec       q    Type
REMARK                         _______ _______ _______ _____ _____    ______ ____
ROOT
ATOM      1  O   UNL     1      34.438 -13.889 -22.392  0.00  0.00    -0.335 OA
ATOM      2  C   UNL     1      32.928 -13.369 -24.145  0.00  0.00    +0.144 C 
ATOM      3  C   UNL     1      33.305 -13.055 -22.703  0.00  0.00    +0.174 C 
ATOM      4  C   UNL     1      33.359 -14.808 -24.305  0.00  0.00    +0.083 C 
ATOM      5  C   UNL     1      34.587 -14.885 -23.414  0.00  0.00    +0.202 C 
ENDROOT
BRANCH   5   8
ATOM      6  O   UNL     1      34.896 -15.350 -20.622  0.00  0.00    -0.252 OA
ATOM      7  O   UNL     1      35.206 -19.896 -21.241  0.00  0.00    -0.270 OA
ATOM      8  N   UNL     1      34.751 -16.171 -22.802  0.00  0.00    -0.219 N 
ATOM      9  N   UNL     1      35.050 -17.615 -20.945  0.00  0.00    -0.236 N 
ATOM     10  C   UNL     1      34.764 -17.297 -23.617  0.00  0.00    +0.071 C 
ATOM     11  C   UNL     1      34.898 -16.302 -21.404  0.00  0.00    +0.315 C 
ATOM     12  C   UNL     1      34.910 -18.551 -23.174  0.00  0.00    +0.047 C 
ATOM     13  C   UNL     1      35.069 -18.770 -21.712  0.00  0.00    +0.250 C 
ATOM     14  C   UNL     1      34.921 -19.749 -24.069  0.00  0.00    +0.037 C 
ATOM     15  H   UNL     1      35.154 -17.731 -19.973  0.00  0.00    +0.159 HD
ENDBRANCH   5   8
BRANCH   2  16
ATOM     16  O   UNL     1      33.675 -12.541 -25.033  0.00  0.00    -0.382 OA
ATOM     17  H   UNL     1      33.173 -12.410 -25.852  0.00  0.00    +0.210 HD
ENDBRANCH   2  16
BRANCH   3  18
ATOM     18  C   UNL     1      32.194 -13.386 -21.715  0.00  0.00    +0.183 C 
BRANCH  18  19
ATOM     19  O   UNL     1      32.205 -12.422 -20.675  0.00  0.00    -0.295 OA
BRANCH  19  21
ATOM     20  S   UNL     1      32.161  -9.563 -21.722  0.00  0.00    +0.022 S 
ATOM     21  P   UNL     1      31.324 -11.068 -20.824  0.00  0.00    +0.304 P 
BRANCH  21  22
ATOM     22  O   UNL     1      30.816 -10.793 -19.308  0.00  0.00    -0.327 OA
ATOM     23  H   UNL     1      30.979 -11.580 -18.764  0.00  0.00    +0.219 HD
ENDBRANCH  21  22
BRANCH  21  24
ATOM     24  O   UNL     1      29.965 -11.607 -21.529  0.00  0.00    -0.327 OA
ATOM     25  H   UNL     1      29.390 -10.854 -21.739  0.00  0.00    +0.219 HD
ENDBRANCH  21  24
ENDBRANCH  19  21
ENDBRANCH  18  19
ENDBRANCH   3  18
TORSDOF 7
ENDMDL
MODEL 8
REMARK VINA RESULT:      -7.3      2.677      3.936
REMARK  Name = 10019998
REMARK  7 active torsions:
REMARK  status: ('A' for Active; 'I' for Inactive)
REMARK    1  A    between atoms: C_2  and  O_16
REMARK    2  A    between atoms: C_3  and  C_18
REMARK    3  A    between atoms: C_5  and  N_8
REMARK    4  A    between atoms: C_18  and  O_19
REMARK    5  A    between atoms: O_19  and  P_21
REMARK    6  A    between atoms: P_21  and  O_22
REMARK    7  A    between atoms: P_21  and  O_24
REMARK                            x       y       z     vdW  Elec       q    Type
REMARK                         _______ _______ _______ _____ _____    ______ ____
ROOT
ATOM      1  O   UNL     1      35.676 -23.598 -16.887  0.00  0.00    -0.335 OA
ATOM      2  C   UNL     1      37.339 -22.397 -15.697  0.00  0.00    +0.144 C 
ATOM      3  C   UNL     1      36.186 -23.382 -15.557  0.00  0.00    +0.174 C 
ATOM      4  C   UNL     1      36.950 -21.587 -16.912  0.00  0.00    +0.083 C 
ATOM      5  C   UNL     1      36.223 -22.608 -17.771  0.00  0.00    +0.202 C 
ENDROOT
BRANCH   5   8
ATOM      6  O   UNL     1      33.475 -23.335 -17.605  0.00  0.00    -0.252 OA
ATOM      7  O   UNL     1      32.299 -20.284 -20.838  0.00  0.00    -0.270 OA
ATOM      8  N   UNL     1      35.166 -22.031 -18.548  0.00  0.00    -0.219 N 
ATOM      9  N   UNL     1      32.903 -21.810 -19.219  0.00  0.00    -0.236 N 
ATOM     10  C   UNL     1      35.484 -21.036 -19.464  0.00  0.00    +0.071 C 
ATOM     11  C   UNL     1      33.830 -22.459 -18.396  0.00  0.00    +0.315 C 
ATOM     12  C   UNL     1      34.595 -20.418 -20.250  0.00  0.00    +0.047 C 
ATOM     13  C   UNL     1      33.165 -20.813 -20.146  0.00  0.00    +0.250 C 
ATOM     14  C   UNL     1      34.959 -19.348 -21.229  0.00  0.00    +0.037 C 
ATOM     15  H   UNL     1      31.963 -22.092 -19.130  0.00  0.00    +0.159 HD
ENDBRANCH   5   8
BRANCH   2  16
ATOM     16  O   UNL     1      38.550 -23.101 -15.957  0.00  0.00    -0.382 OA
ATOM     17  H   UNL     1      38.741 -23.078 -16.908  0.00  0.00    +0.210 HD
ENDBRANCH   2  16
BRANCH   3  18
ATOM     18  C   UNL     1      35.048 -22.843 -14.700  0.00  0.00    +0.183 C 
BRANCH  18  19
ATOM     19  O   UNL     1      34.680 -23.833 -13.753  0.00  0.00    -0.295 OA
BRANCH  19  21
ATOM     20  S   UNL     1      37.110 -25.563 -13.145  0.00  0.00    +0.022 S 
ATOM     21  P   UNL     1      35.742 -24.291 -12.615  0.00  0.00    +0.304 P 
BRANCH  21  22
ATOM     22  O   UNL     1      34.786 -24.751 -11.388  0.00  0.00    -0.327 OA
ATOM     23  H   UNL     1      34.573 -23.980 -10.838  0.00  0.00    +0.219 HD
ENDBRANCH  21  22
BRANCH  21  24
ATOM     24  O   UNL     1      36.311 -22.872 -12.072  0.00  0.00    -0.327 OA
ATOM     25  H   UNL     1      35.591 -22.377 -11.650  0.00  0.00    +0.219 HD
ENDBRANCH  21  24
ENDBRANCH  19  21
ENDBRANCH  18  19
ENDBRANCH   3  18
TORSDOF 7
ENDMDL
MODEL 9
REMARK VINA RESULT:      -7.2      7.649      9.699
REMARK  Name = 10019998
REMARK  7 active torsions:
REMARK  status: ('A' for Active; 'I' for Inactive)
REMARK    1  A    between atoms: C_2  and  O_16
REMARK    2  A    between atoms: C_3  and  C_18
REMARK    3  A    between atoms: C_5  and  N_8
REMARK    4  A    between atoms: C_18  and  O_19
REMARK    5  A    between atoms: O_19  and  P_21
REMARK    6  A    between atoms: P_21  and  O_22
REMARK    7  A    between atoms: P_21  and  O_24
REMARK                            x       y       z     vdW  Elec       q    Type
REMARK                         _______ _______ _______ _____ _____    ______ ____
ROOT
ATOM      1  O   UNL     1      35.340 -17.609 -20.778  0.00  0.00    -0.335 OA
ATOM      2  C   UNL     1      34.607 -17.373 -23.021  0.00  0.00    +0.144 C 
ATOM      3  C   UNL     1      34.613 -16.718 -21.646  0.00  0.00    +0.174 C 
ATOM      4  C   UNL     1      34.668 -18.848 -22.697  0.00  0.00    +0.083 C 
ATOM      5  C   UNL     1      35.514 -18.873 -21.434  0.00  0.00    +0.202 C 
ENDROOT
BRANCH   5   8
ATOM      6  O   UNL     1      32.897 -19.967 -21.174  0.00  0.00    -0.252 OA
ATOM      7  O   UNL     1      34.272 -22.922 -17.931  0.00  0.00    -0.270 OA
ATOM      8  N   UNL     1      35.143 -19.928 -20.536  0.00  0.00    -0.219 N 
ATOM      9  N   UNL     1      33.596 -21.435 -19.557  0.00  0.00    -0.236 N 
ATOM     10  C   UNL     1      36.122 -20.475 -19.717  0.00  0.00    +0.071 C 
ATOM     11  C   UNL     1      33.815 -20.405 -20.478  0.00  0.00    +0.315 C 
ATOM     12  C   UNL     1      35.908 -21.461 -18.836  0.00  0.00    +0.047 C 
ATOM     13  C   UNL     1      34.534 -22.017 -18.718  0.00  0.00    +0.250 C 
ATOM     14  C   UNL     1      36.977 -22.036 -17.963  0.00  0.00    +0.037 C 
ATOM     15  H   UNL     1      32.678 -21.784 -19.499  0.00  0.00    +0.159 HD
ENDBRANCH   5   8
BRANCH   2  16
ATOM     16  O   UNL     1      35.774 -16.993 -23.745  0.00  0.00    -0.382 OA
ATOM     17  H   UNL     1      36.420 -17.715 -23.721  0.00  0.00    +0.210 HD
ENDBRANCH   2  16
BRANCH   3  18
ATOM     18  C   UNL     1      33.215 -16.539 -21.069  0.00  0.00    +0.183 C 
BRANCH  18  19
ATOM     19  O   UNL     1      32.489 -15.646 -21.899  0.00  0.00    -0.295 OA
BRANCH  19  21
ATOM     20  S   UNL     1      33.923 -13.629 -23.671  0.00  0.00    +0.022 S 
ATOM     21  P   UNL     1      32.977 -14.106 -22.043  0.00  0.00    +0.304 P 
BRANCH  21  22
ATOM     22  O   UNL     1      33.779 -13.845 -20.658  0.00  0.00    -0.327 OA
ATOM     23  H   UNL     1      33.666 -14.608 -20.069  0.00  0.00    +0.219 HD
ENDBRANCH  21  22
BRANCH  21  24
ATOM     24  O   UNL     1      31.607 -13.276 -21.788  0.00  0.00    -0.327 OA
ATOM     25  H   UNL     1      31.092 -13.710 -21.091  0.00  0.00    +0.219 HD
ENDBRANCH  21  24
ENDBRANCH  19  21
ENDBRANCH  18  19
ENDBRANCH   3  18
TORSDOF 7
ENDMDL
