MODEL 1
REMARK VINA RESULT:     -10.3      0.000      0.000
REMARK  Name = 57775240
REMARK  7 active torsions:
REMARK  status: ('A' for Active; 'I' for Inactive)
REMARK    1  A    between atoms: C_1  and  C_16
REMARK    2  A    between atoms: C_2  and  O_20
REMARK    3  A    between atoms: C_4  and  N_9
REMARK    4  A    between atoms: C_5  and  C_22
REMARK    5  A    between atoms: C_23  and  C_24
REMARK    6  A    between atoms: C_27  and  N_30
REMARK    7  A    between atoms: N_30  and  S_32
REMARK                            x       y       z     vdW  Elec       q    Type
REMARK                         _______ _______ _______ _____ _____    ______ ____
ROOT
ATOM      1  C   UNL     1      35.721 -23.901 -15.044  0.00  0.00    +0.012 C 
ATOM      2  C   UNL     1      35.963 -23.143 -16.189  0.00  0.00    +0.135 C 
ATOM      3  C   UNL     1      34.417 -24.275 -14.719  0.00  0.00    +0.014 C 
ATOM      4  C   UNL     1      33.356 -23.893 -15.540  0.00  0.00    +0.059 C 
ATOM      5  C   UNL     1      34.902 -22.759 -17.009  0.00  0.00    +0.035 C 
ATOM      6  C   UNL     1      33.599 -23.134 -16.685  0.00  0.00    +0.018 C 
ENDROOT
BRANCH   4   9
ATOM      7  O   UNL     1      32.533 -25.003 -13.010  0.00  0.00    -0.251 OA
ATOM      8  O   UNL     1      28.165 -25.365 -14.357  0.00  0.00    -0.270 OA
ATOM      9  N   UNL     1      32.001 -24.281 -15.201  0.00  0.00    -0.220 N 
ATOM     10  N   UNL     1      30.387 -25.233 -13.734  0.00  0.00    -0.235 N 
ATOM     11  C   UNL     1      31.726 -24.858 -13.931  0.00  0.00    +0.318 C 
ATOM     12  C   UNL     1      30.960 -24.077 -16.101  0.00  0.00    +0.078 C 
ATOM     13  C   UNL     1      29.689 -24.411 -15.873  0.00  0.00    +0.075 C 
ATOM     14  C   UNL     1      29.325 -25.045 -14.598  0.00  0.00    +0.254 C 
ATOM     15  H   UNL     1      30.182 -25.681 -12.882  0.00  0.00    +0.159 HD
ENDBRANCH   4   9
BRANCH   1  16
ATOM     16  C   UNL     1      36.876 -24.333 -14.126  0.00  0.00    +0.022 C 
ATOM     17  C   UNL     1      36.440 -25.548 -13.278  0.00  0.00    +0.004 C 
ATOM     18  C   UNL     1      38.159 -24.742 -14.885  0.00  0.00    +0.004 C 
ATOM     19  C   UNL     1      37.255 -23.169 -13.185  0.00  0.00    +0.004 C 
ENDBRANCH   1  16
BRANCH   2  20
ATOM     20  O   UNL     1      37.242 -22.779 -16.498  0.00  0.00    -0.472 OA
ATOM     21  C   UNL     1      37.555 -21.391 -16.422  0.00  0.00    +0.252 C 
ENDBRANCH   2  20
BRANCH   5  22
ATOM     22  C   UNL     1      35.128 -21.966 -18.211  0.00  0.00    +0.003 C 
ATOM     23  C   UNL     1      34.157 -21.408 -18.968  0.00  0.00    +0.000 C 
BRANCH  23  24
ATOM     24  C   UNL     1      34.387 -20.591 -20.173  0.00  0.00    +0.000 C 
ATOM     25  C   UNL     1      33.306 -20.178 -20.954  0.00  0.00    +0.001 C 
ATOM     26  C   UNL     1      35.685 -20.228 -20.532  0.00  0.00    +0.001 C 
ATOM     27  C   UNL     1      34.824 -19.042 -22.452  0.00  0.00    +0.064 C 
ATOM     28  C   UNL     1      33.525 -19.404 -22.093  0.00  0.00    +0.016 C 
ATOM     29  C   UNL     1      35.904 -19.455 -21.672  0.00  0.00    +0.016 C 
BRANCH  27  30
ATOM     30  N   UNL     1      35.047 -18.251 -23.619  0.00  0.00    -0.219 N 
ATOM     31  H   UNL     1      35.435 -18.646 -24.433  0.00  0.00    +0.173 HD
BRANCH  30  32
ATOM     32  S   UNL     1      34.618 -16.583 -23.564  0.00  0.00    +0.056 S 
ATOM     33  O   UNL     1      33.533 -16.420 -22.615  0.00  0.00    -0.154 OA
ATOM     34  O   UNL     1      35.799 -15.746 -23.484  0.00  0.00    -0.154 OA
ATOM     35  C   UNL     1      33.917 -16.386 -25.187  0.00  0.00    +0.200 C 
ENDBRANCH  30  32
ENDBRANCH  27  30
ENDBRANCH  23  24
ENDBRANCH   5  22
TORSDOF 7
ENDMDL
MODEL 2
REMARK VINA RESULT:     -10.0      2.097      4.815
REMARK  Name = 57775240
REMARK  7 active torsions:
REMARK  status: ('A' for Active; 'I' for Inactive)
REMARK    1  A    between atoms: C_1  and  C_16
REMARK    2  A    between atoms: C_2  and  O_20
REMARK    3  A    between atoms: C_4  and  N_9
REMARK    4  A    between atoms: C_5  and  C_22
REMARK    5  A    between atoms: C_23  and  C_24
REMARK    6  A    between atoms: C_27  and  N_30
REMARK    7  A    between atoms: N_30  and  S_32
REMARK                            x       y       z     vdW  Elec       q    Type
REMARK                         _______ _______ _______ _____ _____    ______ ____
ROOT
ATOM      1  C   UNL     1      32.202 -24.254 -15.205  0.00  0.00    +0.012 C 
ATOM      2  C   UNL     1      32.171 -23.492 -16.372  0.00  0.00    +0.135 C 
ATOM      3  C   UNL     1      33.425 -24.659 -14.670  0.00  0.00    +0.014 C 
ATOM      4  C   UNL     1      34.616 -24.300 -15.301  0.00  0.00    +0.059 C 
ATOM      5  C   UNL     1      33.362 -23.133 -17.004  0.00  0.00    +0.035 C 
ATOM      6  C   UNL     1      34.584 -23.538 -16.468  0.00  0.00    +0.018 C 
ENDROOT
BRANCH   4   9
ATOM      7  O   UNL     1      35.993 -26.742 -15.977  0.00  0.00    -0.251 OA
ATOM      8  O   UNL     1      39.447 -25.830 -13.102  0.00  0.00    -0.270 OA
ATOM      9  N   UNL     1      35.886 -24.723 -14.745  0.00  0.00    -0.220 N 
ATOM     10  N   UNL     1      37.657 -26.292 -14.491  0.00  0.00    -0.235 N 
ATOM     11  C   UNL     1      36.447 -25.972 -15.127  0.00  0.00    +0.318 C 
ATOM     12  C   UNL     1      36.575 -23.907 -13.853  0.00  0.00    +0.078 C 
ATOM     13  C   UNL     1      37.742 -24.221 -13.289  0.00  0.00    +0.075 C 
ATOM     14  C   UNL     1      38.374 -25.511 -13.603  0.00  0.00    +0.254 C 
ATOM     15  H   UNL     1      38.038 -27.175 -14.700  0.00  0.00    +0.159 HD
ENDBRANCH   4   9
BRANCH   1  16
ATOM     16  C   UNL     1      30.900 -24.661 -14.494  0.00  0.00    +0.022 C 
ATOM     17  C   UNL     1      31.235 -25.465 -13.219  0.00  0.00    +0.004 C 
ATOM     18  C   UNL     1      30.023 -23.464 -14.063  0.00  0.00    +0.004 C 
ATOM     19  C   UNL     1      30.046 -25.537 -15.436  0.00  0.00    +0.004 C 
ENDBRANCH   1  16
BRANCH   2  20
ATOM     20  O   UNL     1      30.969 -23.102 -16.891  0.00  0.00    -0.472 OA
ATOM     21  C   UNL     1      30.347 -21.966 -16.295  0.00  0.00    +0.252 C 
ENDBRANCH   2  20
BRANCH   5  22
ATOM     22  C   UNL     1      33.357 -22.337 -18.225  0.00  0.00    +0.003 C 
ATOM     23  C   UNL     1      34.404 -21.619 -18.689  0.00  0.00    +0.000 C 
BRANCH  23  24
ATOM     24  C   UNL     1      34.404 -20.829 -19.933  0.00  0.00    +0.000 C 
ATOM     25  C   UNL     1      33.197 -20.422 -20.502  0.00  0.00    +0.001 C 
ATOM     26  C   UNL     1      35.612 -20.486 -20.541  0.00  0.00    +0.001 C 
ATOM     27  C   UNL     1      34.407 -19.330 -22.287  0.00  0.00    +0.064 C 
ATOM     28  C   UNL     1      33.199 -19.673 -21.679  0.00  0.00    +0.016 C 
ATOM     29  C   UNL     1      35.614 -19.738 -21.718  0.00  0.00    +0.016 C 
BRANCH  27  30
ATOM     30  N   UNL     1      34.407 -18.565 -23.491  0.00  0.00    -0.219 N 
ATOM     31  H   UNL     1      34.292 -19.000 -24.368  0.00  0.00    +0.173 HD
BRANCH  30  32
ATOM     32  S   UNL     1      34.615 -16.859 -23.371  0.00  0.00    +0.056 S 
ATOM     33  O   UNL     1      33.631 -16.343 -22.438  0.00  0.00    -0.154 OA
ATOM     34  O   UNL     1      36.016 -16.516 -23.229  0.00  0.00    -0.154 OA
ATOM     35  C   UNL     1      34.092 -16.364 -24.997  0.00  0.00    +0.200 C 
ENDBRANCH  30  32
ENDBRANCH  27  30
ENDBRANCH  23  24
ENDBRANCH   5  22
TORSDOF 7
ENDMDL
MODEL 3
REMARK VINA RESULT:      -8.5      4.925     12.302
REMARK  Name = 57775240
REMARK  7 active torsions:
REMARK  status: ('A' for Active; 'I' for Inactive)
REMARK    1  A    between atoms: C_1  and  C_16
REMARK    2  A    between atoms: C_2  and  O_20
REMARK    3  A    between atoms: C_4  and  N_9
REMARK    4  A    between atoms: C_5  and  C_22
REMARK    5  A    between atoms: C_23  and  C_24
REMARK    6  A    between atoms: C_27  and  N_30
REMARK    7  A    between atoms: N_30  and  S_32
REMARK                            x       y       z     vdW  Elec       q    Type
REMARK                         _______ _______ _______ _____ _____    ______ ____
ROOT
ATOM      1  C   UNL     1      33.177 -13.521 -24.971  0.00  0.00    +0.012 C 
ATOM      2  C   UNL     1      33.388 -14.812 -24.488  0.00  0.00    +0.135 C 
ATOM      3  C   UNL     1      32.843 -12.493 -24.089  0.00  0.00    +0.014 C 
ATOM      4  C   UNL     1      32.723 -12.755 -22.725  0.00  0.00    +0.059 C 
ATOM      5  C   UNL     1      33.267 -15.075 -23.123  0.00  0.00    +0.035 C 
ATOM      6  C   UNL     1      32.934 -14.047 -22.242  0.00  0.00    +0.018 C 
ENDROOT
BRANCH   4   9
ATOM      7  O   UNL     1      32.734  -9.946 -23.372  0.00  0.00    -0.251 OA
ATOM      8  O   UNL     1      31.401  -8.757 -19.149  0.00  0.00    -0.270 OA
ATOM      9  N   UNL     1      32.374 -11.687 -21.809  0.00  0.00    -0.220 N 
ATOM     10  N   UNL     1      32.139  -9.386 -21.248  0.00  0.00    -0.235 N 
ATOM     11  C   UNL     1      32.459 -10.333 -22.234  0.00  0.00    +0.318 C 
ATOM     12  C   UNL     1      31.938 -11.974 -20.519  0.00  0.00    +0.078 C 
ATOM     13  C   UNL     1      31.606 -11.054 -19.612  0.00  0.00    +0.075 C 
ATOM     14  C   UNL     1      31.699  -9.628 -19.960  0.00  0.00    +0.254 C 
ATOM     15  H   UNL     1      32.239  -8.441 -21.504  0.00  0.00    +0.159 HD
ENDBRANCH   4   9
BRANCH   1  16
ATOM     16  C   UNL     1      33.304 -13.210 -26.472  0.00  0.00    +0.022 C 
ATOM     17  C   UNL     1      34.202 -11.969 -26.671  0.00  0.00    +0.004 C 
ATOM     18  C   UNL     1      33.924 -14.359 -27.298  0.00  0.00    +0.004 C 
ATOM     19  C   UNL     1      31.907 -12.924 -27.063  0.00  0.00    +0.004 C 
ENDBRANCH   1  16
BRANCH   2  20
ATOM     20  O   UNL     1      33.712 -15.812 -25.359  0.00  0.00    -0.472 OA
ATOM     21  C   UNL     1      34.939 -16.499 -25.126  0.00  0.00    +0.252 C 
ENDBRANCH   2  20
BRANCH   5  22
ATOM     22  C   UNL     1      33.483 -16.415 -22.593  0.00  0.00    +0.003 C 
ATOM     23  C   UNL     1      34.516 -16.781 -21.801  0.00  0.00    +0.000 C 
BRANCH  23  24
ATOM     24  C   UNL     1      34.723 -18.132 -21.250  0.00  0.00    +0.000 C 
ATOM     25  C   UNL     1      33.631 -18.969 -21.022  0.00  0.00    +0.001 C 
ATOM     26  C   UNL     1      36.014 -18.575 -20.959  0.00  0.00    +0.001 C 
ATOM     27  C   UNL     1      35.119 -20.691 -20.210  0.00  0.00    +0.064 C 
ATOM     28  C   UNL     1      33.829 -20.247 -20.501  0.00  0.00    +0.016 C 
ATOM     29  C   UNL     1      36.212 -19.854 -20.438  0.00  0.00    +0.016 C 
BRANCH  27  30
ATOM     30  N   UNL     1      35.321 -21.999 -19.677  0.00  0.00    -0.219 N 
ATOM     31  H   UNL     1      36.208 -22.426 -19.704  0.00  0.00    +0.173 HD
BRANCH  30  32
ATOM     32  S   UNL     1      33.970 -22.812 -18.984  0.00  0.00    +0.056 S 
ATOM     33  O   UNL     1      32.821 -21.927 -19.048  0.00  0.00    -0.154 OA
ATOM     34  O   UNL     1      33.878 -24.174 -19.470  0.00  0.00    -0.154 OA
ATOM     35  C   UNL     1      34.479 -22.871 -17.280  0.00  0.00    +0.200 C 
ENDBRANCH  30  32
ENDBRANCH  27  30
ENDBRANCH  23  24
ENDBRANCH   5  22
TORSDOF 7
ENDMDL
MODEL 4
REMARK VINA RESULT:      -8.1     10.897     14.946
REMARK  Name = 57775240
REMARK  7 active torsions:
REMARK  status: ('A' for Active; 'I' for Inactive)
REMARK    1  A    between atoms: C_1  and  C_16
REMARK    2  A    between atoms: C_2  and  O_20
REMARK    3  A    between atoms: C_4  and  N_9
REMARK    4  A    between atoms: C_5  and  C_22
REMARK    5  A    between atoms: C_23  and  C_24
REMARK    6  A    between atoms: C_27  and  N_30
REMARK    7  A    between atoms: N_30  and  S_32
REMARK                            x       y       z     vdW  Elec       q    Type
REMARK                         _______ _______ _______ _____ _____    ______ ____
ROOT
ATOM      1  C   UNL     1      32.082 -11.060 -21.374  0.00  0.00    +0.012 C 
ATOM      2  C   UNL     1      32.079  -9.866 -22.094  0.00  0.00    +0.135 C 
ATOM      3  C   UNL     1      32.494 -12.243 -21.988  0.00  0.00    +0.014 C 
ATOM      4  C   UNL     1      32.906 -12.231 -23.320  0.00  0.00    +0.059 C 
ATOM      5  C   UNL     1      32.491  -9.854 -23.427  0.00  0.00    +0.035 C 
ATOM      6  C   UNL     1      32.904 -11.036 -24.040  0.00  0.00    +0.018 C 
ENDROOT
BRANCH   4   9
ATOM      7  O   UNL     1      34.594 -14.229 -22.107  0.00  0.00    -0.251 OA
ATOM      8  O   UNL     1      34.500 -16.876 -25.850  0.00  0.00    -0.270 OA
ATOM      9  N   UNL     1      33.334 -13.460 -23.958  0.00  0.00    -0.220 N 
ATOM     10  N   UNL     1      34.583 -15.485 -24.004  0.00  0.00    -0.235 N 
ATOM     11  C   UNL     1      34.203 -14.351 -23.271  0.00  0.00    +0.318 C 
ATOM     12  C   UNL     1      32.886 -13.789 -25.234  0.00  0.00    +0.078 C 
ATOM     13  C   UNL     1      33.236 -14.893 -25.895  0.00  0.00    +0.075 C 
ATOM     14  C   UNL     1      34.159 -15.850 -25.269  0.00  0.00    +0.254 C 
ATOM     15  H   UNL     1      35.225 -16.091 -23.568  0.00  0.00    +0.159 HD
ENDBRANCH   4   9
BRANCH   1  16
ATOM     16  C   UNL     1      31.631 -11.096 -19.904  0.00  0.00    +0.022 C 
ATOM     17  C   UNL     1      31.915 -12.492 -19.307  0.00  0.00    +0.004 C 
ATOM     18  C   UNL     1      32.345 -10.061 -19.006  0.00  0.00    +0.004 C 
ATOM     19  C   UNL     1      30.117 -10.807 -19.818  0.00  0.00    +0.004 C 
ENDBRANCH   1  16
BRANCH   2  20
ATOM     20  O   UNL     1      31.671  -8.714 -21.485  0.00  0.00    -0.472 OA
ATOM     21  C   UNL     1      32.690  -7.838 -21.012  0.00  0.00    +0.252 C 
ENDBRANCH   2  20
BRANCH   5  22
ATOM     22  C   UNL     1      32.497  -8.619 -24.201  0.00  0.00    +0.003 C 
ATOM     23  C   UNL     1      33.501  -7.713 -24.212  0.00  0.00    +0.000 C 
BRANCH  23  24
ATOM     24  C   UNL     1      33.516  -6.474 -25.009  0.00  0.00    +0.000 C 
ATOM     25  C   UNL     1      34.600  -6.190 -25.839  0.00  0.00    +0.001 C 
ATOM     26  C   UNL     1      32.442  -5.586 -24.935  0.00  0.00    +0.001 C 
ATOM     27  C   UNL     1      33.538  -4.128 -26.519  0.00  0.00    +0.064 C 
ATOM     28  C   UNL     1      34.612  -5.017 -26.594  0.00  0.00    +0.016 C 
ATOM     29  C   UNL     1      32.454  -4.412 -25.689  0.00  0.00    +0.016 C 
BRANCH  27  30
ATOM     30  N   UNL     1      33.552  -2.928 -27.291  0.00  0.00    -0.219 N 
ATOM     31  H   UNL     1      34.010  -2.120 -26.964  0.00  0.00    +0.173 HD
BRANCH  30  32
ATOM     32  S   UNL     1      32.742  -2.930 -28.812  0.00  0.00    +0.056 S 
ATOM     33  O   UNL     1      33.488  -2.089 -29.729  0.00  0.00    -0.154 OA
ATOM     34  O   UNL     1      32.357  -4.275 -29.193  0.00  0.00    -0.154 OA
ATOM     35  C   UNL     1      31.264  -2.039 -28.382  0.00  0.00    +0.200 C 
ENDBRANCH  30  32
ENDBRANCH  27  30
ENDBRANCH  23  24
ENDBRANCH   5  22
TORSDOF 7
ENDMDL
MODEL 5
REMARK VINA RESULT:      -7.8      5.130      9.260
REMARK  Name = 57775240
REMARK  7 active torsions:
REMARK  status: ('A' for Active; 'I' for Inactive)
REMARK    1  A    between atoms: C_1  and  C_16
REMARK    2  A    between atoms: C_2  and  O_20
REMARK    3  A    between atoms: C_4  and  N_9
REMARK    4  A    between atoms: C_5  and  C_22
REMARK    5  A    between atoms: C_23  and  C_24
REMARK    6  A    between atoms: C_27  and  N_30
REMARK    7  A    between atoms: N_30  and  S_32
REMARK                            x       y       z     vdW  Elec       q    Type
REMARK                         _______ _______ _______ _____ _____    ______ ____
ROOT
ATOM      1  C   UNL     1      34.230 -18.393 -23.574  0.00  0.00    +0.012 C 
ATOM      2  C   UNL     1      33.941 -17.087 -23.180  0.00  0.00    +0.135 C 
ATOM      3  C   UNL     1      34.404 -19.388 -22.613  0.00  0.00    +0.014 C 
ATOM      4  C   UNL     1      34.288 -19.078 -21.258  0.00  0.00    +0.059 C 
ATOM      5  C   UNL     1      33.826 -16.776 -21.825  0.00  0.00    +0.035 C 
ATOM      6  C   UNL     1      34.000 -17.772 -20.864  0.00  0.00    +0.018 C 
ENDROOT
BRANCH   4   9
ATOM      7  O   UNL     1      36.798 -19.758 -20.013  0.00  0.00    -0.251 OA
ATOM      8  O   UNL     1      34.881 -23.061 -17.476  0.00  0.00    -0.270 OA
ATOM      9  N   UNL     1      34.471 -20.113 -20.259  0.00  0.00    -0.220 N 
ATOM     10  N   UNL     1      35.828 -21.435 -18.819  0.00  0.00    -0.235 N 
ATOM     11  C   UNL     1      35.769 -20.384 -19.748  0.00  0.00    +0.318 C 
ATOM     12  C   UNL     1      33.382 -20.834 -19.779  0.00  0.00    +0.078 C 
ATOM     13  C   UNL     1      33.461 -21.806 -18.869  0.00  0.00    +0.075 C 
ATOM     14  C   UNL     1      34.773 -22.172 -18.315  0.00  0.00    +0.254 C 
ATOM     15  H   UNL     1      36.724 -21.675 -18.490  0.00  0.00    +0.159 HD
ENDBRANCH   4   9
BRANCH   1  16
ATOM     16  C   UNL     1      34.363 -18.756 -25.062  0.00  0.00    +0.022 C 
ATOM     17  C   UNL     1      32.961 -18.816 -25.709  0.00  0.00    +0.004 C 
ATOM     18  C   UNL     1      35.200 -17.747 -25.880  0.00  0.00    +0.004 C 
ATOM     19  C   UNL     1      35.045 -20.134 -25.202  0.00  0.00    +0.004 C 
ENDBRANCH   1  16
BRANCH   2  20
ATOM     20  O   UNL     1      33.775 -16.118 -24.128  0.00  0.00    -0.472 OA
ATOM     21  C   UNL     1      34.814 -15.152 -24.253  0.00  0.00    +0.252 C 
ENDBRANCH   2  20
BRANCH   5  22
ATOM     22  C   UNL     1      33.525 -15.419 -21.387  0.00  0.00    +0.003 C 
ATOM     23  C   UNL     1      32.587 -14.614 -21.935  0.00  0.00    +0.000 C 
BRANCH  23  24
ATOM     24  C   UNL     1      32.271 -13.249 -21.480  0.00  0.00    +0.000 C 
ATOM     25  C   UNL     1      32.170 -12.973 -20.116  0.00  0.00    +0.001 C 
ATOM     26  C   UNL     1      32.075 -12.231 -22.414  0.00  0.00    +0.001 C 
ATOM     27  C   UNL     1      31.675 -10.662 -20.621  0.00  0.00    +0.064 C 
ATOM     28  C   UNL     1      31.871 -11.680 -19.687  0.00  0.00    +0.016 C 
ATOM     29  C   UNL     1      31.777 -10.938 -21.985  0.00  0.00    +0.016 C 
BRANCH  27  30
ATOM     30  N   UNL     1      31.370  -9.340 -20.181  0.00  0.00    -0.219 N 
ATOM     31  H   UNL     1      30.577  -9.162 -19.623  0.00  0.00    +0.173 HD
BRANCH  30  32
ATOM     32  S   UNL     1      32.425  -8.062 -20.650  0.00  0.00    +0.056 S 
ATOM     33  O   UNL     1      32.775  -7.298 -19.467  0.00  0.00    -0.154 OA
ATOM     34  O   UNL     1      33.456  -8.544 -21.548  0.00  0.00    -0.154 OA
ATOM     35  C   UNL     1      31.302  -7.059 -21.597  0.00  0.00    +0.200 C 
ENDBRANCH  30  32
ENDBRANCH  27  30
ENDBRANCH  23  24
ENDBRANCH   5  22
TORSDOF 7
ENDMDL
MODEL 6
REMARK VINA RESULT:      -7.7      4.196     11.269
REMARK  Name = 57775240
REMARK  7 active torsions:
REMARK  status: ('A' for Active; 'I' for Inactive)
REMARK    1  A    between atoms: C_1  and  C_16
REMARK    2  A    between atoms: C_2  and  O_20
REMARK    3  A    between atoms: C_4  and  N_9
REMARK    4  A    between atoms: C_5  and  C_22
REMARK    5  A    between atoms: C_23  and  C_24
REMARK    6  A    between atoms: C_27  and  N_30
REMARK    7  A    between atoms: N_30  and  S_32
REMARK                            x       y       z     vdW  Elec       q    Type
REMARK                         _______ _______ _______ _____ _____    ______ ____
ROOT
ATOM      1  C   UNL     1      33.646 -15.700 -23.999  0.00  0.00    +0.012 C 
ATOM      2  C   UNL     1      33.929 -16.795 -23.183  0.00  0.00    +0.135 C 
ATOM      3  C   UNL     1      33.177 -14.514 -23.435  0.00  0.00    +0.014 C 
ATOM      4  C   UNL     1      32.993 -14.422 -22.055  0.00  0.00    +0.059 C 
ATOM      5  C   UNL     1      33.743 -16.704 -21.804  0.00  0.00    +0.035 C 
ATOM      6  C   UNL     1      33.275 -15.518 -21.240  0.00  0.00    +0.018 C 
ENDROOT
BRANCH   4   9
ATOM      7  O   UNL     1      32.420 -12.004 -23.517  0.00  0.00    -0.251 OA
ATOM      8  O   UNL     1      31.157  -9.764 -19.721  0.00  0.00    -0.270 OA
ATOM      9  N   UNL     1      32.504 -13.189 -21.469  0.00  0.00    -0.220 N 
ATOM     10  N   UNL     1      31.865 -10.901 -21.605  0.00  0.00    -0.235 N 
ATOM     11  C   UNL     1      32.298 -12.047 -22.290  0.00  0.00    +0.318 C 
ATOM     12  C   UNL     1      32.216 -13.117 -20.110  0.00  0.00    +0.078 C 
ATOM     13  C   UNL     1      31.772 -12.023 -19.490  0.00  0.00    +0.075 C 
ATOM     14  C   UNL     1      31.565 -10.788 -20.260  0.00  0.00    +0.254 C 
ATOM     15  H   UNL     1      31.765 -10.084 -22.144  0.00  0.00    +0.159 HD
ENDBRANCH   4   9
BRANCH   1  16
ATOM     16  C   UNL     1      33.842 -15.780 -25.522  0.00  0.00    +0.022 C 
ATOM     17  C   UNL     1      35.328 -16.056 -25.840  0.00  0.00    +0.004 C 
ATOM     18  C   UNL     1      33.015 -16.894 -26.201  0.00  0.00    +0.004 C 
ATOM     19  C   UNL     1      33.426 -14.442 -26.170  0.00  0.00    +0.004 C 
ENDBRANCH   1  16
BRANCH   2  20
ATOM     20  O   UNL     1      34.385 -17.953 -23.745  0.00  0.00    -0.472 OA
ATOM     21  C   UNL     1      35.730 -18.324 -23.457  0.00  0.00    +0.252 C 
ENDBRANCH   2  20
BRANCH   5  22
ATOM     22  C   UNL     1      34.030 -17.835 -20.929  0.00  0.00    +0.003 C 
ATOM     23  C   UNL     1      33.461 -19.057 -21.027  0.00  0.00    +0.000 C 
BRANCH  23  24
ATOM     24  C   UNL     1      33.766 -20.205 -20.154  0.00  0.00    +0.000 C 
ATOM     25  C   UNL     1      32.733 -20.884 -19.508  0.00  0.00    +0.001 C 
ATOM     26  C   UNL     1      35.088 -20.614 -19.976  0.00  0.00    +0.001 C 
ATOM     27  C   UNL     1      34.344 -22.380 -18.504  0.00  0.00    +0.064 C 
ATOM     28  C   UNL     1      33.022 -21.971 -18.682  0.00  0.00    +0.016 C 
ATOM     29  C   UNL     1      35.377 -21.700 -19.150  0.00  0.00    +0.016 C 
BRANCH  27  30
ATOM     30  N   UNL     1      34.639 -23.491 -17.659  0.00  0.00    -0.219 N 
ATOM     31  H   UNL     1      34.782 -24.390 -18.036  0.00  0.00    +0.173 HD
BRANCH  30  32
ATOM     32  S   UNL     1      34.738 -23.218 -15.961  0.00  0.00    +0.056 S 
ATOM     33  O   UNL     1      35.784 -22.242 -15.715  0.00  0.00    -0.154 OA
ATOM     34  O   UNL     1      33.420 -23.046 -15.385  0.00  0.00    -0.154 OA
ATOM     35  C   UNL     1      35.368 -24.794 -15.426  0.00  0.00    +0.200 C 
ENDBRANCH  30  32
ENDBRANCH  27  30
ENDBRANCH  23  24
ENDBRANCH   5  22
TORSDOF 7
ENDMDL
MODEL 7
REMARK VINA RESULT:      -7.6      4.557     11.988
REMARK  Name = 57775240
REMARK  7 active torsions:
REMARK  status: ('A' for Active; 'I' for Inactive)
REMARK    1  A    between atoms: C_1  and  C_16
REMARK    2  A    between atoms: C_2  and  O_20
REMARK    3  A    between atoms: C_4  and  N_9
REMARK    4  A    between atoms: C_5  and  C_22
REMARK    5  A    between atoms: C_23  and  C_24
REMARK    6  A    between atoms: C_27  and  N_30
REMARK    7  A    between atoms: N_30  and  S_32
REMARK                            x       y       z     vdW  Elec       q    Type
REMARK                         _______ _______ _______ _____ _____    ______ ____
ROOT
ATOM      1  C   UNL     1      33.081 -14.492 -24.662  0.00  0.00    +0.012 C 
ATOM      2  C   UNL     1      33.670 -15.552 -23.974  0.00  0.00    +0.135 C 
ATOM      3  C   UNL     1      32.682 -13.349 -23.970  0.00  0.00    +0.014 C 
ATOM      4  C   UNL     1      32.874 -13.265 -22.591  0.00  0.00    +0.059 C 
ATOM      5  C   UNL     1      33.862 -15.469 -22.594  0.00  0.00    +0.035 C 
ATOM      6  C   UNL     1      33.464 -14.325 -21.903  0.00  0.00    +0.018 C 
ENDROOT
BRANCH   4   9
ATOM      7  O   UNL     1      32.962 -10.579 -23.635  0.00  0.00    -0.251 OA
ATOM      8  O   UNL     1      31.287  -8.796 -19.757  0.00  0.00    -0.270 OA
ATOM      9  N   UNL     1      32.458 -12.076 -21.872  0.00  0.00    -0.220 N 
ATOM     10  N   UNL     1      32.194  -9.720 -21.673  0.00  0.00    -0.235 N 
ATOM     11  C   UNL     1      32.588 -10.798 -22.480  0.00  0.00    +0.318 C 
ATOM     12  C   UNL     1      31.913 -12.175 -20.596  0.00  0.00    +0.078 C 
ATOM     13  C   UNL     1      31.513 -11.135 -19.863  0.00  0.00    +0.075 C 
ATOM     14  C   UNL     1      31.646  -9.775 -20.405  0.00  0.00    +0.254 C 
ATOM     15  H   UNL     1      32.323  -8.821 -22.053  0.00  0.00    +0.159 HD
ENDBRANCH   4   9
BRANCH   1  16
ATOM     16  C   UNL     1      32.859 -14.565 -26.181  0.00  0.00    +0.022 C 
ATOM     17  C   UNL     1      31.739 -13.583 -26.591  0.00  0.00    +0.004 C 
ATOM     18  C   UNL     1      34.110 -14.203 -27.014  0.00  0.00    +0.004 C 
ATOM     19  C   UNL     1      32.446 -15.999 -26.578  0.00  0.00    +0.004 C 
ENDBRANCH   1  16
BRANCH   2  20
ATOM     20  O   UNL     1      34.055 -16.669 -24.659  0.00  0.00    -0.472 OA
ATOM     21  C   UNL     1      35.444 -16.801 -24.950  0.00  0.00    +0.252 C 
ENDBRANCH   2  20
BRANCH   5  22
ATOM     22  C   UNL     1      34.475 -16.563 -21.852  0.00  0.00    +0.003 C 
ATOM     23  C   UNL     1      34.056 -17.848 -21.873  0.00  0.00    +0.000 C 
BRANCH  23  24
ATOM     24  C   UNL     1      34.688 -18.957 -21.137  0.00  0.00    +0.000 C 
ATOM     25  C   UNL     1      36.078 -19.026 -21.035  0.00  0.00    +0.001 C 
ATOM     26  C   UNL     1      33.895 -19.938 -20.539  0.00  0.00    +0.001 C 
ATOM     27  C   UNL     1      35.882 -21.057 -19.739  0.00  0.00    +0.064 C 
ATOM     28  C   UNL     1      36.674 -20.076 -20.337  0.00  0.00    +0.016 C 
ATOM     29  C   UNL     1      34.492 -20.988 -19.841  0.00  0.00    +0.016 C 
BRANCH  27  30
ATOM     30  N   UNL     1      36.493 -22.131 -19.025  0.00  0.00    -0.219 N 
ATOM     31  H   UNL     1      36.709 -22.980 -19.475  0.00  0.00    +0.173 HD
BRANCH  30  32
ATOM     32  S   UNL     1      36.844 -21.901 -17.355  0.00  0.00    +0.056 S 
ATOM     33  O   UNL     1      37.814 -22.901 -16.949  0.00  0.00    -0.154 OA
ATOM     34  O   UNL     1      37.062 -20.499 -17.058  0.00  0.00    -0.154 OA
ATOM     35  C   UNL     1      35.286 -22.375 -16.639  0.00  0.00    +0.200 C 
ENDBRANCH  30  32
ENDBRANCH  27  30
ENDBRANCH  23  24
ENDBRANCH   5  22
TORSDOF 7
ENDMDL
