MODEL 1
REMARK VINA RESULT:      -8.5      0.000      0.000
REMARK  Name = 7594
REMARK  3 active torsions:
REMARK  status: ('A' for Active; 'I' for Inactive)
REMARK    1  A    between atoms: N_1  and  C_8
REMARK    2  A    between atoms: N_2  and  C_4
REMARK    3  A    between atoms: N_2  and  C_14
REMARK                            x       y       z     vdW  Elec       q    Type
REMARK                         _______ _______ _______ _____ _____    ______ ____
ROOT
ATOM      1  N   UNL     1      33.693 -23.190 -16.096  0.00  0.00    -0.325 N 
ATOM      2  N   UNL     1      31.729 -22.849 -17.185  0.00  0.00    -0.369 N 
ATOM      3  C   UNL     1      33.078 -23.112 -17.339  0.00  0.00    +0.200 C 
ATOM      4  H   UNL     1      33.103 -23.019 -15.327  0.00  0.00    +0.169 HD
ATOM      5  H   UNL     1      31.349 -22.732 -16.284  0.00  0.00    +0.159 HD
ATOM      6  H   UNL     1      31.148 -22.778 -17.978  0.00  0.00    +0.159 HD
ENDROOT
BRANCH   1   7
ATOM      7  C   UNL     1      35.035 -23.478 -15.769  0.00  0.00    +0.059 C 
ATOM      8  C   UNL     1      35.371 -24.725 -15.242  0.00  0.00    +0.017 C 
ATOM      9  C   UNL     1      36.024 -22.517 -15.973  0.00  0.00    +0.017 C 
ATOM     10  C   UNL     1      36.698 -25.010 -14.919  0.00  0.00    +0.001 C 
ATOM     11  C   UNL     1      37.350 -22.802 -15.648  0.00  0.00    +0.001 C 
ATOM     12  C   UNL     1      37.687 -24.049 -15.121  0.00  0.00    +0.000 C 
ENDBRANCH   1   7
BRANCH   3  13
ATOM     13  N   UNL     1      33.693 -23.286 -18.484  0.00  0.00    -0.214 NA
BRANCH  13  14
ATOM     14  C   UNL     1      34.116 -22.171 -19.215  0.00  0.00    +0.084 C 
ATOM     15  C   UNL     1      33.175 -21.299 -19.764  0.00  0.00    +0.019 C 
ATOM     16  C   UNL     1      35.478 -21.931 -19.396  0.00  0.00    +0.019 C 
ATOM     17  C   UNL     1      33.596 -20.188 -20.493  0.00  0.00    +0.002 C 
ATOM     18  C   UNL     1      35.900 -20.819 -20.125  0.00  0.00    +0.002 C 
ATOM     19  C   UNL     1      34.959 -19.948 -20.674  0.00  0.00    +0.000 C 
ENDBRANCH  13  14
ENDBRANCH   3  13
TORSDOF 3
ENDMDL
MODEL 2
REMARK VINA RESULT:      -8.4      4.895      7.318
REMARK  Name = 7594
REMARK  3 active torsions:
REMARK  status: ('A' for Active; 'I' for Inactive)
REMARK    1  A    between atoms: N_1  and  C_8
REMARK    2  A    between atoms: N_2  and  C_4
REMARK    3  A    between atoms: N_2  and  C_14
REMARK                            x       y       z     vdW  Elec       q    Type
REMARK                         _______ _______ _______ _____ _____    ______ ____
ROOT
ATOM      1  N   UNL     1      34.765 -18.862 -22.991  0.00  0.00    -0.325 N 
ATOM      2  N   UNL     1      35.299 -17.239 -24.487  0.00  0.00    -0.369 N 
ATOM      3  C   UNL     1      35.145 -17.536 -23.145  0.00  0.00    +0.200 C 
ATOM      4  H   UNL     1      34.635 -19.360 -23.830  0.00  0.00    +0.169 HD
ATOM      5  H   UNL     1      35.125 -17.929 -25.168  0.00  0.00    +0.159 HD
ATOM      6  H   UNL     1      35.582 -16.336 -24.763  0.00  0.00    +0.159 HD
ENDROOT
BRANCH   1   7
ATOM      7  C   UNL     1      34.537 -19.606 -21.813  0.00  0.00    +0.059 C 
ATOM      8  C   UNL     1      33.241 -19.743 -21.316  0.00  0.00    +0.017 C 
ATOM      9  C   UNL     1      35.607 -20.201 -21.147  0.00  0.00    +0.017 C 
ATOM     10  C   UNL     1      33.017 -20.478 -20.152  0.00  0.00    +0.001 C 
ATOM     11  C   UNL     1      35.383 -20.935 -19.982  0.00  0.00    +0.001 C 
ATOM     12  C   UNL     1      34.087 -21.073 -19.484  0.00  0.00    +0.000 C 
ENDBRANCH   1   7
BRANCH   3  13
ATOM     13  N   UNL     1      35.347 -16.701 -22.154  0.00  0.00    -0.214 NA
BRANCH  13  14
ATOM     14  C   UNL     1      34.396 -15.713 -21.879  0.00  0.00    +0.084 C 
ATOM     15  C   UNL     1      34.229 -14.642 -22.758  0.00  0.00    +0.019 C 
ATOM     16  C   UNL     1      33.613 -15.798 -20.728  0.00  0.00    +0.019 C 
ATOM     17  C   UNL     1      33.280 -13.658 -22.486  0.00  0.00    +0.002 C 
ATOM     18  C   UNL     1      32.664 -14.814 -20.455  0.00  0.00    +0.002 C 
ATOM     19  C   UNL     1      32.498 -13.743 -21.333  0.00  0.00    +0.000 C 
ENDBRANCH  13  14
ENDBRANCH   3  13
TORSDOF 3
ENDMDL
MODEL 3
REMARK VINA RESULT:      -8.4      4.896      7.326
REMARK  Name = 7594
REMARK  3 active torsions:
REMARK  status: ('A' for Active; 'I' for Inactive)
REMARK    1  A    between atoms: N_1  and  C_8
REMARK    2  A    between atoms: N_2  and  C_4
REMARK    3  A    between atoms: N_2  and  C_14
REMARK                            x       y       z     vdW  Elec       q    Type
REMARK                         _______ _______ _______ _____ _____    ______ ____
ROOT
ATOM      1  N   UNL     1      34.755 -18.870 -22.994  0.00  0.00    -0.325 N 
ATOM      2  N   UNL     1      35.290 -17.254 -24.498  0.00  0.00    -0.369 N 
ATOM      3  C   UNL     1      35.139 -17.545 -23.154  0.00  0.00    +0.200 C 
ATOM      4  H   UNL     1      34.623 -19.370 -23.830  0.00  0.00    +0.169 HD
ATOM      5  H   UNL     1      35.113 -17.946 -25.175  0.00  0.00    +0.159 HD
ATOM      6  H   UNL     1      35.575 -16.353 -24.777  0.00  0.00    +0.159 HD
ENDROOT
BRANCH   1   7
ATOM      7  C   UNL     1      34.529 -19.608 -21.812  0.00  0.00    +0.059 C 
ATOM      8  C   UNL     1      35.600 -20.205 -21.148  0.00  0.00    +0.017 C 
ATOM      9  C   UNL     1      33.235 -19.738 -21.309  0.00  0.00    +0.017 C 
ATOM     10  C   UNL     1      35.376 -20.934 -19.980  0.00  0.00    +0.001 C 
ATOM     11  C   UNL     1      33.011 -20.469 -20.142  0.00  0.00    +0.001 C 
ATOM     12  C   UNL     1      34.082 -21.067 -19.477  0.00  0.00    +0.000 C 
ENDBRANCH   1   7
BRANCH   3  13
ATOM     13  N   UNL     1      35.345 -16.706 -22.166  0.00  0.00    -0.214 NA
BRANCH  13  14
ATOM     14  C   UNL     1      34.396 -15.716 -21.894  0.00  0.00    +0.084 C 
ATOM     15  C   UNL     1      33.615 -15.797 -20.741  0.00  0.00    +0.019 C 
ATOM     16  C   UNL     1      34.231 -14.646 -22.774  0.00  0.00    +0.019 C 
ATOM     17  C   UNL     1      32.669 -14.809 -20.468  0.00  0.00    +0.002 C 
ATOM     18  C   UNL     1      33.285 -13.658 -22.502  0.00  0.00    +0.002 C 
ATOM     19  C   UNL     1      32.503 -13.740 -21.349  0.00  0.00    +0.000 C 
ENDBRANCH  13  14
ENDBRANCH   3  13
TORSDOF 3
ENDMDL
MODEL 4
REMARK VINA RESULT:      -8.2      5.145      8.730
REMARK  Name = 7594
REMARK  3 active torsions:
REMARK  status: ('A' for Active; 'I' for Inactive)
REMARK    1  A    between atoms: N_1  and  C_8
REMARK    2  A    between atoms: N_2  and  C_4
REMARK    3  A    between atoms: N_2  and  C_14
REMARK                            x       y       z     vdW  Elec       q    Type
REMARK                         _______ _______ _______ _____ _____    ______ ____
ROOT
ATOM      1  N   UNL     1      34.293 -16.376 -23.414  0.00  0.00    -0.325 N 
ATOM      2  N   UNL     1      35.529 -18.177 -24.038  0.00  0.00    -0.369 N 
ATOM      3  C   UNL     1      35.131 -17.391 -22.971  0.00  0.00    +0.200 C 
ATOM      4  H   UNL     1      34.143 -16.352 -24.386  0.00  0.00    +0.169 HD
ATOM      5  H   UNL     1      35.225 -17.961 -24.950  0.00  0.00    +0.159 HD
ATOM      6  H   UNL     1      36.117 -18.952 -23.886  0.00  0.00    +0.159 HD
ENDROOT
BRANCH   1   7
ATOM      7  C   UNL     1      33.622 -15.375 -22.679  0.00  0.00    +0.059 C 
ATOM      8  C   UNL     1      33.187 -14.215 -23.320  0.00  0.00    +0.017 C 
ATOM      9  C   UNL     1      33.394 -15.546 -21.315  0.00  0.00    +0.017 C 
ATOM     10  C   UNL     1      32.524 -13.225 -22.594  0.00  0.00    +0.001 C 
ATOM     11  C   UNL     1      32.732 -14.556 -20.589  0.00  0.00    +0.001 C 
ATOM     12  C   UNL     1      32.297 -13.395 -21.229  0.00  0.00    +0.000 C 
ENDBRANCH   1   7
BRANCH   3  13
ATOM     13  N   UNL     1      35.471 -17.581 -21.719  0.00  0.00    -0.214 NA
BRANCH  13  14
ATOM     14  C   UNL     1      35.166 -18.797 -21.098  0.00  0.00    +0.084 C 
ATOM     15  C   UNL     1      33.835 -19.195 -20.961  0.00  0.00    +0.019 C 
ATOM     16  C   UNL     1      36.190 -19.611 -20.617  0.00  0.00    +0.019 C 
ATOM     17  C   UNL     1      33.530 -20.407 -20.343  0.00  0.00    +0.002 C 
ATOM     18  C   UNL     1      35.886 -20.824 -19.999  0.00  0.00    +0.002 C 
ATOM     19  C   UNL     1      34.556 -21.221 -19.861  0.00  0.00    +0.000 C 
ENDBRANCH  13  14
ENDBRANCH   3  13
TORSDOF 3
ENDMDL
MODEL 5
REMARK VINA RESULT:      -8.1      2.262      4.010
REMARK  Name = 7594
REMARK  3 active torsions:
REMARK  status: ('A' for Active; 'I' for Inactive)
REMARK    1  A    between atoms: N_1  and  C_8
REMARK    2  A    between atoms: N_2  and  C_4
REMARK    3  A    between atoms: N_2  and  C_14
REMARK                            x       y       z     vdW  Elec       q    Type
REMARK                         _______ _______ _______ _____ _____    ______ ____
ROOT
ATOM      1  N   UNL     1      33.131 -23.319 -15.530  0.00  0.00    -0.325 N 
ATOM      2  N   UNL     1      35.311 -22.879 -15.991  0.00  0.00    -0.369 N 
ATOM      3  C   UNL     1      34.085 -23.220 -16.534  0.00  0.00    +0.200 C 
ATOM      4  H   UNL     1      33.467 -23.170 -14.617  0.00  0.00    +0.169 HD
ATOM      5  H   UNL     1      35.403 -22.761 -15.018  0.00  0.00    +0.159 HD
ATOM      6  H   UNL     1      36.092 -22.755 -16.579  0.00  0.00    +0.159 HD
ENDROOT
BRANCH   1   7
ATOM      7  C   UNL     1      31.750 -23.600 -15.621  0.00  0.00    +0.059 C 
ATOM      8  C   UNL     1      31.215 -24.689 -14.933  0.00  0.00    +0.017 C 
ATOM      9  C   UNL     1      30.924 -22.789 -16.397  0.00  0.00    +0.017 C 
ATOM     10  C   UNL     1      29.851 -24.966 -15.023  0.00  0.00    +0.001 C 
ATOM     11  C   UNL     1      29.560 -23.067 -16.488  0.00  0.00    +0.001 C 
ATOM     12  C   UNL     1      29.023 -24.156 -15.800  0.00  0.00    +0.000 C 
ENDBRANCH   1   7
BRANCH   3  13
ATOM     13  N   UNL     1      33.843 -23.403 -17.810  0.00  0.00    -0.214 NA
BRANCH  13  14
ATOM     14  C   UNL     1      34.052 -22.353 -18.709  0.00  0.00    +0.084 C 
ATOM     15  C   UNL     1      32.968 -21.611 -19.179  0.00  0.00    +0.019 C 
ATOM     16  C   UNL     1      35.344 -22.046 -19.136  0.00  0.00    +0.019 C 
ATOM     17  C   UNL     1      33.176 -20.563 -20.075  0.00  0.00    +0.002 C 
ATOM     18  C   UNL     1      35.553 -20.999 -20.032  0.00  0.00    +0.002 C 
ATOM     19  C   UNL     1      34.469 -20.257 -20.502  0.00  0.00    +0.000 C 
ENDBRANCH  13  14
ENDBRANCH   3  13
TORSDOF 3
ENDMDL
MODEL 6
REMARK VINA RESULT:      -8.1      5.189      9.181
REMARK  Name = 7594
REMARK  3 active torsions:
REMARK  status: ('A' for Active; 'I' for Inactive)
REMARK    1  A    between atoms: N_1  and  C_8
REMARK    2  A    between atoms: N_2  and  C_4
REMARK    3  A    between atoms: N_2  and  C_14
REMARK                            x       y       z     vdW  Elec       q    Type
REMARK                         _______ _______ _______ _____ _____    ______ ____
ROOT
ATOM      1  N   UNL     1      34.560 -17.429 -24.471  0.00  0.00    -0.325 N 
ATOM      2  N   UNL     1      35.055 -19.608 -24.060  0.00  0.00    -0.369 N 
ATOM      3  C   UNL     1      34.749 -18.387 -23.484  0.00  0.00    +0.200 C 
ATOM      4  H   UNL     1      34.699 -17.745 -25.392  0.00  0.00    +0.169 HD
ATOM      5  H   UNL     1      35.123 -19.687 -25.039  0.00  0.00    +0.159 HD
ATOM      6  H   UNL     1      35.205 -20.397 -23.490  0.00  0.00    +0.159 HD
ENDROOT
BRANCH   1   7
ATOM      7  C   UNL     1      34.195 -16.071 -24.352  0.00  0.00    +0.059 C 
ATOM      8  C   UNL     1      33.474 -15.452 -25.373  0.00  0.00    +0.017 C 
ATOM      9  C   UNL     1      34.556 -15.350 -23.215  0.00  0.00    +0.017 C 
ATOM     10  C   UNL     1      33.114 -14.109 -25.256  0.00  0.00    +0.001 C 
ATOM     11  C   UNL     1      34.196 -14.007 -23.099  0.00  0.00    +0.001 C 
ATOM     12  C   UNL     1      33.475 -13.386 -24.119  0.00  0.00    +0.000 C 
ENDBRANCH   1   7
BRANCH   3  13
ATOM     13  N   UNL     1      34.632 -18.162 -22.197  0.00  0.00    -0.214 NA
BRANCH  13  14
ATOM     14  C   UNL     1      34.516 -19.242 -21.316  0.00  0.00    +0.084 C 
ATOM     15  C   UNL     1      35.662 -19.862 -20.818  0.00  0.00    +0.019 C 
ATOM     16  C   UNL     1      33.254 -19.700 -20.936  0.00  0.00    +0.019 C 
ATOM     17  C   UNL     1      35.547 -20.938 -19.939  0.00  0.00    +0.002 C 
ATOM     18  C   UNL     1      33.138 -20.777 -20.058  0.00  0.00    +0.002 C 
ATOM     19  C   UNL     1      34.285 -21.396 -19.559  0.00  0.00    +0.000 C 
ENDBRANCH  13  14
ENDBRANCH   3  13
TORSDOF 3
ENDMDL
MODEL 7
REMARK VINA RESULT:      -8.0      7.173     10.928
REMARK  Name = 7594
REMARK  3 active torsions:
REMARK  status: ('A' for Active; 'I' for Inactive)
REMARK    1  A    between atoms: N_1  and  C_8
REMARK    2  A    between atoms: N_2  and  C_4
REMARK    3  A    between atoms: N_2  and  C_14
REMARK                            x       y       z     vdW  Elec       q    Type
REMARK                         _______ _______ _______ _____ _____    ______ ____
ROOT
ATOM      1  N   UNL     1      33.095 -13.753 -22.902  0.00  0.00    -0.325 N 
ATOM      2  N   UNL     1      33.405 -14.505 -20.781  0.00  0.00    -0.369 N 
ATOM      3  C   UNL     1      33.898 -14.526 -22.074  0.00  0.00    +0.200 C 
ATOM      4  H   UNL     1      32.309 -13.352 -22.467  0.00  0.00    +0.169 HD
ATOM      5  H   UNL     1      32.584 -14.001 -20.575  0.00  0.00    +0.159 HD
ATOM      6  H   UNL     1      33.874 -14.996 -20.067  0.00  0.00    +0.159 HD
ENDROOT
BRANCH   1   7
ATOM      7  C   UNL     1      33.236 -13.455 -24.275  0.00  0.00    +0.059 C 
ATOM      8  C   UNL     1      32.853 -14.393 -25.233  0.00  0.00    +0.017 C 
ATOM      9  C   UNL     1      33.758 -12.225 -24.670  0.00  0.00    +0.017 C 
ATOM     10  C   UNL     1      32.993 -14.099 -26.590  0.00  0.00    +0.001 C 
ATOM     11  C   UNL     1      33.899 -11.931 -26.027  0.00  0.00    +0.001 C 
ATOM     12  C   UNL     1      33.516 -12.868 -26.987  0.00  0.00    +0.000 C 
ENDBRANCH   1   7
BRANCH   3  13
ATOM     13  N   UNL     1      34.977 -15.160 -22.465  0.00  0.00    -0.214 NA
BRANCH  13  14
ATOM     14  C   UNL     1      34.935 -16.547 -22.642  0.00  0.00    +0.084 C 
ATOM     15  C   UNL     1      34.975 -17.392 -21.533  0.00  0.00    +0.019 C 
ATOM     16  C   UNL     1      34.855 -17.085 -23.926  0.00  0.00    +0.019 C 
ATOM     17  C   UNL     1      34.932 -18.775 -21.708  0.00  0.00    +0.002 C 
ATOM     18  C   UNL     1      34.813 -18.468 -24.102  0.00  0.00    +0.002 C 
ATOM     19  C   UNL     1      34.852 -19.313 -22.993  0.00  0.00    +0.000 C 
ENDBRANCH  13  14
ENDBRANCH   3  13
TORSDOF 3
ENDMDL
MODEL 8
REMARK VINA RESULT:      -8.0     12.059     15.176
REMARK  Name = 7594
REMARK  3 active torsions:
REMARK  status: ('A' for Active; 'I' for Inactive)
REMARK    1  A    between atoms: N_1  and  C_8
REMARK    2  A    between atoms: N_2  and  C_4
REMARK    3  A    between atoms: N_2  and  C_14
REMARK                            x       y       z     vdW  Elec       q    Type
REMARK                         _______ _______ _______ _____ _____    ______ ____
ROOT
ATOM      1  N   UNL     1      33.047  -7.854 -21.243  0.00  0.00    -0.325 N 
ATOM      2  N   UNL     1      32.422  -9.178 -19.506  0.00  0.00    -0.369 N 
ATOM      3  C   UNL     1      32.282  -8.950 -20.863  0.00  0.00    +0.200 C 
ATOM      4  H   UNL     1      33.526  -7.405 -20.511  0.00  0.00    +0.169 HD
ATOM      5  H   UNL     1      32.991  -8.585 -18.962  0.00  0.00    +0.159 HD
ATOM      6  H   UNL     1      31.951  -9.933 -19.082  0.00  0.00    +0.159 HD
ENDROOT
BRANCH   1   7
ATOM      7  C   UNL     1      33.241  -7.289 -22.522  0.00  0.00    +0.059 C 
ATOM      8  C   UNL     1      34.412  -7.558 -23.230  0.00  0.00    +0.017 C 
ATOM      9  C   UNL     1      32.263  -6.464 -23.075  0.00  0.00    +0.017 C 
ATOM     10  C   UNL     1      34.605  -6.999 -24.494  0.00  0.00    +0.001 C 
ATOM     11  C   UNL     1      32.456  -5.905 -24.339  0.00  0.00    +0.001 C 
ATOM     12  C   UNL     1      33.627  -6.173 -25.048  0.00  0.00    +0.000 C 
ENDBRANCH   1   7
BRANCH   3  13
ATOM     13  N   UNL     1      31.554  -9.669 -21.684  0.00  0.00    -0.214 NA
BRANCH  13  14
ATOM     14  C   UNL     1      32.064 -10.870 -22.185  0.00  0.00    +0.084 C 
ATOM     15  C   UNL     1      32.909 -10.860 -23.295  0.00  0.00    +0.019 C 
ATOM     16  C   UNL     1      31.729 -12.079 -21.576  0.00  0.00    +0.019 C 
ATOM     17  C   UNL     1      33.419 -12.058 -23.795  0.00  0.00    +0.002 C 
ATOM     18  C   UNL     1      32.238 -13.277 -22.075  0.00  0.00    +0.002 C 
ATOM     19  C   UNL     1      33.083 -13.267 -23.185  0.00  0.00    +0.000 C 
ENDBRANCH  13  14
ENDBRANCH   3  13
TORSDOF 3
ENDMDL
MODEL 9
REMARK VINA RESULT:      -7.9     11.868     13.733
REMARK  Name = 7594
REMARK  3 active torsions:
REMARK  status: ('A' for Active; 'I' for Inactive)
REMARK    1  A    between atoms: N_1  and  C_8
REMARK    2  A    between atoms: N_2  and  C_4
REMARK    3  A    between atoms: N_2  and  C_14
REMARK                            x       y       z     vdW  Elec       q    Type
REMARK                         _______ _______ _______ _____ _____    ______ ____
ROOT
ATOM      1  N   UNL     1      34.442 -10.761 -24.506  0.00  0.00    -0.325 N 
ATOM      2  N   UNL     1      34.681  -8.672 -23.646  0.00  0.00    -0.369 N 
ATOM      3  C   UNL     1      33.787  -9.697 -23.901  0.00  0.00    +0.200 C 
ATOM      4  H   UNL     1      35.399 -10.616 -24.685  0.00  0.00    +0.169 HD
ATOM      5  H   UNL     1      35.626  -8.766 -23.907  0.00  0.00    +0.159 HD
ATOM      6  H   UNL     1      34.372  -7.848 -23.204  0.00  0.00    +0.159 HD
ENDROOT
BRANCH   1   7
ATOM      7  C   UNL     1      33.943 -12.021 -24.903  0.00  0.00    +0.059 C 
ATOM      8  C   UNL     1      33.753 -13.024 -23.953  0.00  0.00    +0.017 C 
ATOM      9  C   UNL     1      33.641 -12.260 -26.242  0.00  0.00    +0.017 C 
ATOM     10  C   UNL     1      33.260 -14.269 -24.345  0.00  0.00    +0.001 C 
ATOM     11  C   UNL     1      33.149 -13.505 -26.634  0.00  0.00    +0.001 C 
ATOM     12  C   UNL     1      32.959 -14.510 -25.685  0.00  0.00    +0.000 C 
ENDBRANCH   1   7
BRANCH   3  13
ATOM     13  N   UNL     1      32.510  -9.684 -23.600  0.00  0.00    -0.214 NA
BRANCH  13  14
ATOM     14  C   UNL     1      32.110  -9.947 -22.286  0.00  0.00    +0.084 C 
ATOM     15  C   UNL     1      31.498 -11.161 -21.973  0.00  0.00    +0.019 C 
ATOM     16  C   UNL     1      32.320  -8.995 -21.289  0.00  0.00    +0.019 C 
ATOM     17  C   UNL     1      31.099 -11.425 -20.664  0.00  0.00    +0.002 C 
ATOM     18  C   UNL     1      31.921  -9.257 -19.978  0.00  0.00    +0.002 C 
ATOM     19  C   UNL     1      31.310 -10.472 -19.666  0.00  0.00    +0.000 C 
ENDBRANCH  13  14
ENDBRANCH   3  13
TORSDOF 3
ENDMDL
