MODEL 1
REMARK VINA RESULT:      -9.2      0.000      0.000
REMARK  Name = 42553
REMARK  4 active torsions:
REMARK  status: ('A' for Active; 'I' for Inactive)
REMARK    1  A    between atoms: C_1  and  C_4
REMARK    2  A    between atoms: C_1  and  C_11
REMARK    3  A    between atoms: C_1  and  C_18
REMARK    4  A    between atoms: C_1  and  O_25
REMARK                            x       y       z     vdW  Elec       q    Type
REMARK                         _______ _______ _______ _____ _____    ______ ____
ROOT
ATOM      1  C   UNL     1      34.463 -23.690 -15.253  0.00  0.00    +0.123 C 
ENDROOT
BRANCH   1   4
ATOM      2  N   UNL     1      30.851 -22.935 -15.464  0.00  0.00    +0.387 N 
ATOM      3  C   UNL     1      32.342 -24.608 -14.146  0.00  0.00    -0.003 C 
ATOM      4  C   UNL     1      33.029 -24.174 -15.461  0.00  0.00    +0.012 C 
ATOM      5  C   UNL     1      32.157 -23.097 -16.144  0.00  0.00    -0.074 C 
ATOM      6  C   UNL     1      32.013 -23.370 -13.296  0.00  0.00    -0.023 C 
ATOM      7  C   UNL     1      30.998 -25.250 -14.536  0.00  0.00    -0.023 C 
ATOM      8  C   UNL     1      31.097 -22.429 -14.097  0.00  0.00    -0.077 C 
ATOM      9  C   UNL     1      30.184 -24.252 -15.375  0.00  0.00    -0.077 C 
ATOM     10  H   UNL     1      30.261 -22.285 -15.985  0.00  0.00    -0.080 HD
ENDBRANCH   1   4
BRANCH   1  11
ATOM     11  C   UNL     1      34.966 -23.013 -16.539  0.00  0.00    +0.002 C 
ATOM     12  C   UNL     1      36.204 -22.420 -16.547  0.00  0.00    -0.023 C 
ATOM     13  C   UNL     1      34.136 -23.035 -17.633  0.00  0.00    -0.002 C 
ATOM     14  C   UNL     1      36.641 -21.812 -17.724  0.00  0.00    -0.004 C 
ATOM     15  C   UNL     1      37.096 -22.404 -15.349  0.00  0.00    +0.031 C 
ATOM     16  C   UNL     1      34.573 -22.427 -18.810  0.00  0.00    -0.000 C 
ATOM     17  C   UNL     1      35.825 -21.816 -18.855  0.00  0.00    -0.000 C 
ENDBRANCH   1  11
BRANCH   1  18
ATOM     18  C   UNL     1      35.459 -24.760 -14.778  0.00  0.00    +0.002 C 
ATOM     19  C   UNL     1      35.929 -24.717 -13.489  0.00  0.00    -0.023 C 
ATOM     20  C   UNL     1      35.835 -25.722 -15.685  0.00  0.00    -0.002 C 
ATOM     21  C   UNL     1      36.832 -25.698 -13.079  0.00  0.00    -0.004 C 
ATOM     22  C   UNL     1      35.512 -23.664 -12.516  0.00  0.00    +0.031 C 
ATOM     23  C   UNL     1      36.738 -26.702 -15.275  0.00  0.00    -0.000 C 
ATOM     24  C   UNL     1      37.237 -26.690 -13.972  0.00  0.00    -0.000 C 
ENDBRANCH   1  18
BRANCH   1  25
ATOM     25  O   UNL     1      34.368 -22.712 -14.195  0.00  0.00    -0.379 OA
ATOM     26  H   UNL     1      33.991 -21.890 -14.547  0.00  0.00    +0.211 HD
ENDBRANCH   1  25
TORSDOF 4
ENDMDL
MODEL 2
REMARK VINA RESULT:      -8.0      0.673      1.513
REMARK  Name = 42553
REMARK  4 active torsions:
REMARK  status: ('A' for Active; 'I' for Inactive)
REMARK    1  A    between atoms: C_1  and  C_4
REMARK    2  A    between atoms: C_1  and  C_11
REMARK    3  A    between atoms: C_1  and  C_18
REMARK    4  A    between atoms: C_1  and  O_25
REMARK                            x       y       z     vdW  Elec       q    Type
REMARK                         _______ _______ _______ _____ _____    ______ ____
ROOT
ATOM      1  C   UNL     1      34.753 -23.444 -15.172  0.00  0.00    +0.123 C 
ENDROOT
BRANCH   1   4
ATOM      2  N   UNL     1      31.195 -22.822 -14.386  0.00  0.00    +0.387 N 
ATOM      3  C   UNL     1      32.742 -24.906 -14.547  0.00  0.00    -0.003 C 
ATOM      4  C   UNL     1      33.278 -23.751 -15.424  0.00  0.00    +0.012 C 
ATOM      5  C   UNL     1      32.390 -22.506 -15.202  0.00  0.00    -0.074 C 
ATOM      6  C   UNL     1      32.601 -24.432 -13.092  0.00  0.00    -0.023 C 
ATOM      7  C   UNL     1      31.324 -25.228 -15.051  0.00  0.00    -0.023 C 
ATOM      8  C   UNL     1      31.647 -23.228 -13.037  0.00  0.00    -0.077 C 
ATOM      9  C   UNL     1      30.469 -23.951 -15.007  0.00  0.00    -0.077 C 
ATOM     10  H   UNL     1      30.583 -22.009 -14.328  0.00  0.00    -0.080 HD
ENDBRANCH   1   4
BRANCH   1  11
ATOM     11  C   UNL     1      35.349 -22.743 -16.404  0.00  0.00    +0.002 C 
ATOM     12  C   UNL     1      34.686 -22.812 -17.604  0.00  0.00    -0.023 C 
ATOM     13  C   UNL     1      36.536 -22.072 -16.238  0.00  0.00    -0.002 C 
ATOM     14  C   UNL     1      35.244 -22.169 -18.708  0.00  0.00    -0.004 C 
ATOM     15  C   UNL     1      33.395 -23.546 -17.768  0.00  0.00    +0.031 C 
ATOM     16  C   UNL     1      37.094 -21.430 -17.343  0.00  0.00    -0.000 C 
ATOM     17  C   UNL     1      36.449 -21.478 -18.578  0.00  0.00    -0.000 C 
ENDBRANCH   1  11
BRANCH   1  18
ATOM     18  C   UNL     1      35.618 -24.647 -14.760  0.00  0.00    +0.002 C 
ATOM     19  C   UNL     1      36.240 -24.642 -13.537  0.00  0.00    -0.023 C 
ATOM     20  C   UNL     1      35.724 -25.684 -15.655  0.00  0.00    -0.002 C 
ATOM     21  C   UNL     1      37.020 -25.743 -13.185  0.00  0.00    -0.004 C 
ATOM     22  C   UNL     1      36.116 -23.505 -12.577  0.00  0.00    +0.031 C 
ATOM     23  C   UNL     1      36.503 -26.786 -15.303  0.00  0.00    -0.000 C 
ATOM     24  C   UNL     1      37.151 -26.815 -14.068  0.00  0.00    -0.000 C 
ENDBRANCH   1  18
BRANCH   1  25
ATOM     25  O   UNL     1      34.749 -22.533 -14.051  0.00  0.00    -0.379 OA
ATOM     26  H   UNL     1      35.661 -22.291 -13.827  0.00  0.00    +0.211 HD
ENDBRANCH   1  25
TORSDOF 4
ENDMDL
MODEL 3
REMARK VINA RESULT:      -7.4      1.088      4.290
REMARK  Name = 42553
REMARK  4 active torsions:
REMARK  status: ('A' for Active; 'I' for Inactive)
REMARK    1  A    between atoms: C_1  and  C_4
REMARK    2  A    between atoms: C_1  and  C_11
REMARK    3  A    between atoms: C_1  and  C_18
REMARK    4  A    between atoms: C_1  and  O_25
REMARK                            x       y       z     vdW  Elec       q    Type
REMARK                         _______ _______ _______ _____ _____    ______ ____
ROOT
ATOM      1  C   UNL     1      34.720 -24.192 -15.537  0.00  0.00    +0.123 C 
ENDROOT
BRANCH   1   4
ATOM      2  N   UNL     1      31.401 -24.638 -13.972  0.00  0.00    +0.387 N 
ATOM      3  C   UNL     1      32.624 -22.742 -15.264  0.00  0.00    -0.003 C 
ATOM      4  C   UNL     1      33.638 -23.688 -14.583  0.00  0.00    +0.012 C 
ATOM      5  C   UNL     1      32.865 -24.856 -13.929  0.00  0.00    -0.074 C 
ATOM      6  C   UNL     1      31.706 -23.547 -16.198  0.00  0.00    -0.023 C 
ATOM      7  C   UNL     1      31.731 -22.167 -14.150  0.00  0.00    -0.023 C 
ATOM      8  C   UNL     1      30.973 -24.627 -15.387  0.00  0.00    -0.077 C 
ATOM      9  C   UNL     1      31.089 -23.324 -13.368  0.00  0.00    -0.077 C 
ATOM     10  H   UNL     1      30.920 -25.376 -13.458  0.00  0.00    -0.080 HD
ENDBRANCH   1   4
BRANCH   1  11
ATOM     11  C   UNL     1      35.714 -25.075 -14.764  0.00  0.00    +0.002 C 
ATOM     12  C   UNL     1      36.092 -24.712 -13.495  0.00  0.00    -0.023 C 
ATOM     13  C   UNL     1      36.183 -26.201 -15.395  0.00  0.00    -0.002 C 
ATOM     14  C   UNL     1      36.994 -25.527 -12.813  0.00  0.00    -0.004 C 
ATOM     15  C   UNL     1      35.572 -23.483 -12.823  0.00  0.00    +0.031 C 
ATOM     16  C   UNL     1      37.086 -27.016 -14.712  0.00  0.00    -0.000 C 
ATOM     17  C   UNL     1      37.491 -26.679 -13.422  0.00  0.00    -0.000 C 
ENDBRANCH   1  11
BRANCH   1  18
ATOM     18  C   UNL     1      35.462 -23.103 -16.328  0.00  0.00    +0.002 C 
ATOM     19  C   UNL     1      35.023 -22.765 -17.584  0.00  0.00    -0.023 C 
ATOM     20  C   UNL     1      36.547 -22.512 -15.726  0.00  0.00    -0.002 C 
ATOM     21  C   UNL     1      35.711 -21.775 -18.284  0.00  0.00    -0.004 C 
ATOM     22  C   UNL     1      33.842 -23.418 -18.225  0.00  0.00    +0.031 C 
ATOM     23  C   UNL     1      37.235 -21.521 -16.426  0.00  0.00    -0.000 C 
ATOM     24  C   UNL     1      36.818 -21.153 -17.705  0.00  0.00    -0.000 C 
ENDBRANCH   1  18
BRANCH   1  25
ATOM     25  O   UNL     1      34.008 -24.995 -16.503  0.00  0.00    -0.379 OA
ATOM     26  H   UNL     1      34.626 -25.308 -17.182  0.00  0.00    +0.211 HD
ENDBRANCH   1  25
TORSDOF 4
ENDMDL
MODEL 4
REMARK VINA RESULT:      -7.3      1.250      4.404
REMARK  Name = 42553
REMARK  4 active torsions:
REMARK  status: ('A' for Active; 'I' for Inactive)
REMARK    1  A    between atoms: C_1  and  C_4
REMARK    2  A    between atoms: C_1  and  C_11
REMARK    3  A    between atoms: C_1  and  C_18
REMARK    4  A    between atoms: C_1  and  O_25
REMARK                            x       y       z     vdW  Elec       q    Type
REMARK                         _______ _______ _______ _____ _____    ______ ____
ROOT
ATOM      1  C   UNL     1      34.888 -23.794 -15.284  0.00  0.00    +0.123 C 
ENDROOT
BRANCH   1   4
ATOM      2  N   UNL     1      31.934 -24.289 -13.120  0.00  0.00    +0.387 N 
ATOM      3  C   UNL     1      32.388 -23.257 -15.463  0.00  0.00    -0.003 C 
ATOM      4  C   UNL     1      33.660 -23.215 -14.585  0.00  0.00    +0.012 C 
ATOM      5  C   UNL     1      33.367 -23.941 -13.253  0.00  0.00    -0.074 C 
ATOM      6  C   UNL     1      31.886 -24.704 -15.582  0.00  0.00    -0.023 C 
ATOM      7  C   UNL     1      31.300 -22.468 -14.711  0.00  0.00    -0.023 C 
ATOM      8  C   UNL     1      31.590 -25.260 -14.180  0.00  0.00    -0.077 C 
ATOM      9  C   UNL     1      31.120 -23.068 -13.307  0.00  0.00    -0.077 C 
ATOM     10  H   UNL     1      31.752 -24.686 -12.198  0.00  0.00    -0.080 HD
ENDBRANCH   1   4
BRANCH   1  11
ATOM     11  C   UNL     1      35.922 -24.226 -14.231  0.00  0.00    +0.002 C 
ATOM     12  C   UNL     1      36.551 -25.439 -14.364  0.00  0.00    -0.023 C 
ATOM     13  C   UNL     1      36.167 -23.361 -13.192  0.00  0.00    -0.002 C 
ATOM     14  C   UNL     1      37.485 -25.811 -13.398  0.00  0.00    -0.004 C 
ATOM     15  C   UNL     1      36.273 -26.369 -15.500  0.00  0.00    +0.031 C 
ATOM     16  C   UNL     1      37.101 -23.734 -12.226  0.00  0.00    -0.000 C 
ATOM     17  C   UNL     1      37.760 -24.958 -12.329  0.00  0.00    -0.000 C 
ENDBRANCH   1  11
BRANCH   1  18
ATOM     18  C   UNL     1      35.537 -22.883 -16.340  0.00  0.00    +0.002 C 
ATOM     19  C   UNL     1      34.951 -22.760 -17.575  0.00  0.00    -0.023 C 
ATOM     20  C   UNL     1      36.692 -22.228 -15.986  0.00  0.00    -0.002 C 
ATOM     21  C   UNL     1      35.557 -21.929 -18.517  0.00  0.00    -0.004 C 
ATOM     22  C   UNL     1      33.696 -23.480 -17.944  0.00  0.00    +0.031 C 
ATOM     23  C   UNL     1      37.298 -21.397 -16.929  0.00  0.00    -0.000 C 
ATOM     24  C   UNL     1      36.731 -21.248 -18.194  0.00  0.00    -0.000 C 
ENDBRANCH   1  18
BRANCH   1  25
ATOM     25  O   UNL     1      34.395 -24.956 -15.986  0.00  0.00    -0.379 OA
ATOM     26  H   UNL     1      33.935 -25.540 -15.361  0.00  0.00    +0.211 HD
ENDBRANCH   1  25
TORSDOF 4
ENDMDL
MODEL 5
REMARK VINA RESULT:      -7.1     14.981     17.559
REMARK  Name = 42553
REMARK  4 active torsions:
REMARK  status: ('A' for Active; 'I' for Inactive)
REMARK    1  A    between atoms: C_1  and  C_4
REMARK    2  A    between atoms: C_1  and  C_11
REMARK    3  A    between atoms: C_1  and  C_18
REMARK    4  A    between atoms: C_1  and  O_25
REMARK                            x       y       z     vdW  Elec       q    Type
REMARK                         _______ _______ _______ _____ _____    ______ ____
ROOT
ATOM      1  C   UNL     1      32.834  -8.467 -22.806  0.00  0.00    +0.123 C 
ENDROOT
BRANCH   1   4
ATOM      2  N   UNL     1      32.085  -5.069 -24.051  0.00  0.00    +0.387 N 
ATOM      3  C   UNL     1      30.782  -6.932 -22.790  0.00  0.00    -0.003 C 
ATOM      4  C   UNL     1      31.940  -7.533 -23.619  0.00  0.00    +0.012 C 
ATOM      5  C   UNL     1      32.748  -6.378 -24.253  0.00  0.00    -0.074 C 
ATOM      6  C   UNL     1      31.332  -5.880 -21.812  0.00  0.00    -0.023 C 
ATOM      7  C   UNL     1      29.866  -6.185 -23.777  0.00  0.00    -0.023 C 
ATOM      8  C   UNL     1      32.057  -4.778 -22.602  0.00  0.00    -0.077 C 
ATOM      9  C   UNL     1      30.695  -5.148 -24.551  0.00  0.00    -0.077 C 
ATOM     10  H   UNL     1      32.590  -4.338 -24.553  0.00  0.00    -0.080 HD
ENDBRANCH   1   4
BRANCH   1  11
ATOM     11  C   UNL     1      33.638  -9.366 -23.761  0.00  0.00    +0.002 C 
ATOM     12  C   UNL     1      34.848  -8.928 -24.238  0.00  0.00    -0.023 C 
ATOM     13  C   UNL     1      33.094 -10.582 -24.093  0.00  0.00    -0.002 C 
ATOM     14  C   UNL     1      35.561  -9.760 -25.102  0.00  0.00    -0.004 C 
ATOM     15  C   UNL     1      35.427  -7.602 -23.867  0.00  0.00    +0.031 C 
ATOM     16  C   UNL     1      33.806 -11.413 -24.957  0.00  0.00    -0.000 C 
ATOM     17  C   UNL     1      35.039 -11.002 -25.461  0.00  0.00    -0.000 C 
ENDBRANCH   1  11
BRANCH   1  18
ATOM     18  C   UNL     1      32.114  -9.312 -21.743  0.00  0.00    +0.002 C 
ATOM     19  C   UNL     1      32.226  -8.967 -20.419  0.00  0.00    -0.023 C 
ATOM     20  C   UNL     1      31.381 -10.389 -22.181  0.00  0.00    -0.002 C 
ATOM     21  C   UNL     1      31.564  -9.747 -19.471  0.00  0.00    -0.004 C 
ATOM     22  C   UNL     1      33.027  -7.793 -19.959  0.00  0.00    +0.031 C 
ATOM     23  C   UNL     1      30.720 -11.169 -21.233  0.00  0.00    -0.000 C 
ATOM     24  C   UNL     1      30.811 -10.849 -19.879  0.00  0.00    -0.000 C 
ENDBRANCH   1  18
BRANCH   1  25
ATOM     25  O   UNL     1      33.733  -7.586 -22.097  0.00  0.00    -0.379 OA
ATOM     26  H   UNL     1      34.521  -8.081 -21.821  0.00  0.00    +0.211 HD
ENDBRANCH   1  25
TORSDOF 4
ENDMDL
MODEL 6
REMARK VINA RESULT:      -6.8     14.857     17.722
REMARK  Name = 42553
REMARK  4 active torsions:
REMARK  status: ('A' for Active; 'I' for Inactive)
REMARK    1  A    between atoms: C_1  and  C_4
REMARK    2  A    between atoms: C_1  and  C_11
REMARK    3  A    between atoms: C_1  and  C_18
REMARK    4  A    between atoms: C_1  and  O_25
REMARK                            x       y       z     vdW  Elec       q    Type
REMARK                         _______ _______ _______ _____ _____    ______ ____
ROOT
ATOM      1  C   UNL     1      32.193  -8.630 -22.911  0.00  0.00    +0.123 C 
ENDROOT
BRANCH   1   4
ATOM      2  N   UNL     1      31.218  -5.326 -21.572  0.00  0.00    +0.387 N 
ATOM      3  C   UNL     1      31.664  -6.336 -23.926  0.00  0.00    -0.003 C 
ATOM      4  C   UNL     1      32.426  -7.123 -22.834  0.00  0.00    +0.012 C 
ATOM      5  C   UNL     1      32.036  -6.555 -21.451  0.00  0.00    -0.074 C 
ATOM      6  C   UNL     1      30.161  -6.323 -23.605  0.00  0.00    -0.023 C 
ATOM      7  C   UNL     1      32.150  -4.878 -23.847  0.00  0.00    -0.023 C 
ATOM      8  C   UNL     1      29.940  -5.680 -22.226  0.00  0.00    -0.077 C 
ATOM      9  C   UNL     1      31.934  -4.349 -22.420  0.00  0.00    -0.077 C 
ATOM     10  H   UNL     1      31.049  -4.923 -20.650  0.00  0.00    -0.080 HD
ENDBRANCH   1   4
BRANCH   1  11
ATOM     11  C   UNL     1      32.071  -9.203 -21.489  0.00  0.00    +0.002 C 
ATOM     12  C   UNL     1      31.343 -10.348 -21.286  0.00  0.00    -0.023 C 
ATOM     13  C   UNL     1      32.709  -8.527 -20.478  0.00  0.00    -0.002 C 
ATOM     14  C   UNL     1      31.246 -10.851 -19.988  0.00  0.00    -0.004 C 
ATOM     15  C   UNL     1      30.655 -11.072 -22.397  0.00  0.00    +0.031 C 
ATOM     16  C   UNL     1      32.611  -9.030 -19.181  0.00  0.00    -0.000 C 
ATOM     17  C   UNL     1      31.880 -10.191 -18.936  0.00  0.00    -0.000 C 
ENDBRANCH   1  11
BRANCH   1  18
ATOM     18  C   UNL     1      33.232  -9.418 -23.727  0.00  0.00    +0.002 C 
ATOM     19  C   UNL     1      34.482  -8.886 -23.919  0.00  0.00    -0.023 C 
ATOM     20  C   UNL     1      32.847 -10.638 -24.231  0.00  0.00    -0.002 C 
ATOM     21  C   UNL     1      35.408  -9.617 -24.662  0.00  0.00    -0.004 C 
ATOM     22  C   UNL     1      34.884  -7.558 -23.365  0.00  0.00    +0.031 C 
ATOM     23  C   UNL     1      33.773 -11.369 -24.974  0.00  0.00    -0.000 C 
ATOM     24  C   UNL     1      35.053 -10.859 -25.189  0.00  0.00    -0.000 C 
ENDBRANCH   1  18
BRANCH   1  25
ATOM     25  O   UNL     1      30.932  -8.770 -23.600  0.00  0.00    -0.379 OA
ATOM     26  H   UNL     1      30.439  -7.935 -23.545  0.00  0.00    +0.211 HD
ENDBRANCH   1  25
TORSDOF 4
ENDMDL
MODEL 7
REMARK VINA RESULT:      -6.7      1.712      5.190
REMARK  Name = 42553
REMARK  4 active torsions:
REMARK  status: ('A' for Active; 'I' for Inactive)
REMARK    1  A    between atoms: C_1  and  C_4
REMARK    2  A    between atoms: C_1  and  C_11
REMARK    3  A    between atoms: C_1  and  C_18
REMARK    4  A    between atoms: C_1  and  O_25
REMARK                            x       y       z     vdW  Elec       q    Type
REMARK                         _______ _______ _______ _____ _____    ______ ____
ROOT
ATOM      1  C   UNL     1      35.173 -23.282 -15.681  0.00  0.00    +0.123 C 
ENDROOT
BRANCH   1   4
ATOM      2  N   UNL     1      36.225 -26.082 -13.510  0.00  0.00    +0.387 N 
ATOM      3  C   UNL     1      37.402 -24.419 -15.126  0.00  0.00    -0.003 C 
ATOM      4  C   UNL     1      35.917 -24.605 -15.511  0.00  0.00    +0.012 C 
ATOM      5  C   UNL     1      35.240 -25.509 -14.455  0.00  0.00    -0.074 C 
ATOM      6  C   UNL     1      37.506 -23.943 -13.668  0.00  0.00    -0.023 C 
ATOM      7  C   UNL     1      38.058 -25.811 -15.187  0.00  0.00    -0.023 C 
ATOM      8  C   UNL     1      36.836 -24.974 -12.745  0.00  0.00    -0.077 C 
ATOM      9  C   UNL     1      37.284 -26.776 -14.275  0.00  0.00    -0.077 C 
ATOM     10  H   UNL     1      35.767 -26.741 -12.881  0.00  0.00    -0.080 HD
ENDBRANCH   1   4
BRANCH   1  11
ATOM     11  C   UNL     1      33.691 -23.477 -15.321  0.00  0.00    +0.002 C 
ATOM     12  C   UNL     1      33.307 -23.434 -14.004  0.00  0.00    -0.023 C 
ATOM     13  C   UNL     1      32.811 -23.690 -16.354  0.00  0.00    -0.002 C 
ATOM     14  C   UNL     1      31.958 -23.612 -13.699  0.00  0.00    -0.004 C 
ATOM     15  C   UNL     1      34.277 -23.201 -12.891  0.00  0.00    +0.031 C 
ATOM     16  C   UNL     1      31.462 -23.869 -16.049  0.00  0.00    -0.000 C 
ATOM     17  C   UNL     1      31.035 -23.830 -14.722  0.00  0.00    -0.000 C 
ENDBRANCH   1  11
BRANCH   1  18
ATOM     18  C   UNL     1      35.313 -22.618 -17.061  0.00  0.00    +0.002 C 
ATOM     19  C   UNL     1      36.432 -21.875 -17.340  0.00  0.00    -0.023 C 
ATOM     20  C   UNL     1      34.291 -22.808 -17.961  0.00  0.00    -0.002 C 
ATOM     21  C   UNL     1      36.539 -21.282 -18.598  0.00  0.00    -0.004 C 
ATOM     22  C   UNL     1      37.534 -21.678 -16.351  0.00  0.00    +0.031 C 
ATOM     23  C   UNL     1      34.398 -22.214 -19.218  0.00  0.00    -0.000 C 
ATOM     24  C   UNL     1      35.521 -21.452 -19.537  0.00  0.00    -0.000 C 
ENDBRANCH   1  18
BRANCH   1  25
ATOM     25  O   UNL     1      35.791 -22.391 -14.727  0.00  0.00    -0.379 OA
ATOM     26  H   UNL     1      36.571 -22.821 -14.341  0.00  0.00    +0.211 HD
ENDBRANCH   1  25
TORSDOF 4
ENDMDL
MODEL 8
REMARK VINA RESULT:      -6.5     14.432     17.048
REMARK  Name = 42553
REMARK  4 active torsions:
REMARK  status: ('A' for Active; 'I' for Inactive)
REMARK    1  A    between atoms: C_1  and  C_4
REMARK    2  A    between atoms: C_1  and  C_11
REMARK    3  A    between atoms: C_1  and  C_18
REMARK    4  A    between atoms: C_1  and  O_25
REMARK                            x       y       z     vdW  Elec       q    Type
REMARK                         _______ _______ _______ _____ _____    ______ ____
ROOT
ATOM      1  C   UNL     1      32.582  -8.469 -22.263  0.00  0.00    +0.123 C 
ENDROOT
BRANCH   1   4
ATOM      2  N   UNL     1      31.267  -9.891 -19.115  0.00  0.00    +0.387 N 
ATOM      3  C   UNL     1      31.665 -10.750 -21.537  0.00  0.00    -0.003 C 
ATOM      4  C   UNL     1      31.476  -9.216 -21.519  0.00  0.00    +0.012 C 
ATOM      5  C   UNL     1      31.359  -8.748 -20.051  0.00  0.00    -0.074 C 
ATOM      6  C   UNL     1      32.828 -11.142 -20.611  0.00  0.00    -0.023 C 
ATOM      7  C   UNL     1      30.389 -11.365 -20.934  0.00  0.00    -0.023 C 
ATOM      8  C   UNL     1      32.532 -10.653 -19.184  0.00  0.00    -0.077 C 
ATOM      9  C   UNL     1      30.155 -10.772 -19.534  0.00  0.00    -0.077 C 
ATOM     10  H   UNL     1      31.102  -9.557 -18.166  0.00  0.00    -0.080 HD
ENDBRANCH   1   4
BRANCH   1  11
ATOM     11  C   UNL     1      32.001  -7.195 -22.900  0.00  0.00    +0.002 C 
ATOM     12  C   UNL     1      31.979  -6.030 -22.175  0.00  0.00    -0.023 C 
ATOM     13  C   UNL     1      31.524  -7.292 -24.185  0.00  0.00    -0.002 C 
ATOM     14  C   UNL     1      31.449  -4.887 -22.773  0.00  0.00    -0.004 C 
ATOM     15  C   UNL     1      32.502  -5.942 -20.779  0.00  0.00    +0.031 C 
ATOM     16  C   UNL     1      30.993  -6.148 -24.782  0.00  0.00    -0.000 C 
ATOM     17  C   UNL     1      30.956  -4.947 -24.076  0.00  0.00    -0.000 C 
ENDBRANCH   1  11
BRANCH   1  18
ATOM     18  C   UNL     1      33.351  -9.296 -23.307  0.00  0.00    +0.002 C 
ATOM     19  C   UNL     1      34.518  -8.799 -23.832  0.00  0.00    -0.023 C 
ATOM     20  C   UNL     1      32.821 -10.511 -23.666  0.00  0.00    -0.002 C 
ATOM     21  C   UNL     1      35.199  -9.565 -24.777  0.00  0.00    -0.004 C 
ATOM     22  C   UNL     1      35.080  -7.475 -23.431  0.00  0.00    +0.031 C 
ATOM     23  C   UNL     1      33.502 -11.278 -24.612  0.00  0.00    -0.000 C 
ATOM     24  C   UNL     1      34.691 -10.805 -25.167  0.00  0.00    -0.000 C 
ENDBRANCH   1  18
BRANCH   1  25
ATOM     25  O   UNL     1      33.532  -8.108 -21.237  0.00  0.00    -0.379 OA
ATOM     26  H   UNL     1      34.351  -7.793 -21.651  0.00  0.00    +0.211 HD
ENDBRANCH   1  25
TORSDOF 4
ENDMDL
