MODEL 1
REMARK VINA RESULT:      -7.1      0.000      0.000
REMARK  Name = 445037
REMARK  5 active torsions:
REMARK  status: ('A' for Active; 'I' for Inactive)
REMARK    1  A    between atoms: C_2  and  O_7
REMARK    2  A    between atoms: C_3  and  O_9
REMARK    3  A    between atoms: C_4  and  O_11
REMARK    4  A    between atoms: C_6  and  C_14
REMARK    5  A    between atoms: C_14  and  O_15
REMARK                            x       y       z     vdW  Elec       q    Type
REMARK                         _______ _______ _______ _____ _____    ______ ____
ROOT
ATOM      1  O   UNL     1      38.770 -24.212 -15.035  0.00  0.00    -0.444 OA
ATOM      2  C   UNL     1      37.122 -23.723 -13.262  0.00  0.00    +0.212 C 
ATOM      3  C   UNL     1      37.388 -25.079 -12.599  0.00  0.00    +0.169 C 
ATOM      4  C   UNL     1      37.436 -23.756 -14.762  0.00  0.00    +0.315 C 
ATOM      5  C   UNL     1      38.585 -25.757 -13.195  0.00  0.00    +0.049 C 
ATOM      6  C   UNL     1      39.187 -25.295 -14.300  0.00  0.00    +0.214 C 
ENDROOT
BRANCH   2   7
ATOM      7  O   UNL     1      37.948 -22.726 -12.661  0.00  0.00    -0.376 OA
ATOM      8  H   UNL     1      37.517 -22.391 -11.858  0.00  0.00    +0.211 HD
ENDBRANCH   2   7
BRANCH   3   9
ATOM      9  O   UNL     1      36.251 -25.919 -12.775  0.00  0.00    -0.377 OA
ATOM     10  H   UNL     1      35.597 -25.466 -13.330  0.00  0.00    +0.211 HD
ENDBRANCH   3   9
BRANCH   4  11
ATOM     11  O   UNL     1      36.466 -24.558 -15.433  0.00  0.00    -0.348 OA
ATOM     12  H   UNL     1      36.917 -25.199 -16.005  0.00  0.00    +0.214 HD
ENDBRANCH   4  11
BRANCH   6  14
ATOM     13  O   UNL     1      41.199 -26.531 -14.035  0.00  0.00    -0.242 OA
ATOM     14  C   UNL     1      40.386 -25.992 -14.765  0.00  0.00    +0.372 C 
BRANCH  14  15
ATOM     15  O   UNL     1      40.447 -25.942 -16.112  0.00  0.00    -0.475 OA
ATOM     16  H   UNL     1      40.898 -26.611 -16.586  0.00  0.00    +0.296 HD
ENDBRANCH  14  15
ENDBRANCH   6  14
TORSDOF 5
ENDMDL
MODEL 2
REMARK VINA RESULT:      -7.0      1.140      1.944
REMARK  Name = 445037
REMARK  5 active torsions:
REMARK  status: ('A' for Active; 'I' for Inactive)
REMARK    1  A    between atoms: C_2  and  O_7
REMARK    2  A    between atoms: C_3  and  O_9
REMARK    3  A    between atoms: C_4  and  O_11
REMARK    4  A    between atoms: C_6  and  C_14
REMARK    5  A    between atoms: C_14  and  O_15
REMARK                            x       y       z     vdW  Elec       q    Type
REMARK                         _______ _______ _______ _____ _____    ______ ____
ROOT
ATOM      1  O   UNL     1      39.025 -24.818 -13.178  0.00  0.00    -0.444 OA
ATOM      2  C   UNL     1      36.576 -25.126 -13.082  0.00  0.00    +0.212 C 
ATOM      3  C   UNL     1      36.582 -25.840 -14.438  0.00  0.00    +0.169 C 
ATOM      4  C   UNL     1      37.766 -24.169 -12.941  0.00  0.00    +0.315 C 
ATOM      5  C   UNL     1      37.977 -26.158 -14.886  0.00  0.00    +0.049 C 
ATOM      6  C   UNL     1      39.054 -25.677 -14.249  0.00  0.00    +0.214 C 
ENDROOT
BRANCH   2   7
ATOM      7  O   UNL     1      36.659 -26.090 -12.032  0.00  0.00    -0.376 OA
ATOM      8  H   UNL     1      36.505 -26.976 -12.395  0.00  0.00    +0.211 HD
ENDBRANCH   2   7
BRANCH   3   9
ATOM      9  O   UNL     1      35.969 -25.002 -15.413  0.00  0.00    -0.377 OA
ATOM     10  H   UNL     1      35.471 -24.299 -14.968  0.00  0.00    +0.211 HD
ENDBRANCH   3   9
BRANCH   4  11
ATOM     11  O   UNL     1      37.585 -23.055 -13.813  0.00  0.00    -0.348 OA
ATOM     12  H   UNL     1      37.256 -23.366 -14.671  0.00  0.00    +0.214 HD
ENDBRANCH   4  11
BRANCH   6  14
ATOM     13  O   UNL     1      41.252 -26.552 -14.017  0.00  0.00    -0.242 OA
ATOM     14  C   UNL     1      40.372 -26.099 -14.726  0.00  0.00    +0.372 C 
BRANCH  14  15
ATOM     15  O   UNL     1      40.455 -25.906 -16.060  0.00  0.00    -0.475 OA
ATOM     16  H   UNL     1      40.040 -26.507 -16.647  0.00  0.00    +0.296 HD
ENDBRANCH  14  15
ENDBRANCH   6  14
TORSDOF 5
ENDMDL
MODEL 3
REMARK VINA RESULT:      -6.9      1.719      2.837
REMARK  Name = 445037
REMARK  5 active torsions:
REMARK  status: ('A' for Active; 'I' for Inactive)
REMARK    1  A    between atoms: C_2  and  O_7
REMARK    2  A    between atoms: C_3  and  O_9
REMARK    3  A    between atoms: C_4  and  O_11
REMARK    4  A    between atoms: C_6  and  C_14
REMARK    5  A    between atoms: C_14  and  O_15
REMARK                            x       y       z     vdW  Elec       q    Type
REMARK                         _______ _______ _______ _____ _____    ______ ____
ROOT
ATOM      1  O   UNL     1      38.510 -26.953 -14.220  0.00  0.00    -0.444 OA
ATOM      2  C   UNL     1      36.284 -26.133 -14.907  0.00  0.00    +0.212 C 
ATOM      3  C   UNL     1      36.818 -24.702 -15.038  0.00  0.00    +0.169 C 
ATOM      4  C   UNL     1      37.108 -26.956 -13.909  0.00  0.00    +0.315 C 
ATOM      5  C   UNL     1      38.314 -24.663 -14.946  0.00  0.00    +0.049 C 
ATOM      6  C   UNL     1      39.032 -25.737 -14.589  0.00  0.00    +0.214 C 
ENDROOT
BRANCH   2   7
ATOM      7  O   UNL     1      36.348 -26.786 -16.175  0.00  0.00    -0.376 OA
ATOM      8  H   UNL     1      37.149 -27.331 -16.218  0.00  0.00    +0.211 HD
ENDBRANCH   2   7
BRANCH   3   9
ATOM      9  O   UNL     1      36.274 -23.901 -13.993  0.00  0.00    -0.377 OA
ATOM     10  H   UNL     1      35.917 -23.081 -14.366  0.00  0.00    +0.211 HD
ENDBRANCH   3   9
BRANCH   4  11
ATOM     11  O   UNL     1      36.870 -26.477 -12.588  0.00  0.00    -0.348 OA
ATOM     12  H   UNL     1      37.693 -26.122 -12.219  0.00  0.00    +0.214 HD
ENDBRANCH   4  11
BRANCH   6  14
ATOM     13  O   UNL     1      41.094 -24.556 -14.629  0.00  0.00    -0.242 OA
ATOM     14  C   UNL     1      40.490 -25.613 -14.591  0.00  0.00    +0.372 C 
BRANCH  14  15
ATOM     15  O   UNL     1      41.050 -26.841 -14.548  0.00  0.00    -0.475 OA
ATOM     16  H   UNL     1      41.881 -26.962 -14.133  0.00  0.00    +0.296 HD
ENDBRANCH  14  15
ENDBRANCH   6  14
TORSDOF 5
ENDMDL
MODEL 4
REMARK VINA RESULT:      -6.8      1.425      1.446
REMARK  Name = 445037
REMARK  5 active torsions:
REMARK  status: ('A' for Active; 'I' for Inactive)
REMARK    1  A    between atoms: C_2  and  O_7
REMARK    2  A    between atoms: C_3  and  O_9
REMARK    3  A    between atoms: C_4  and  O_11
REMARK    4  A    between atoms: C_6  and  C_14
REMARK    5  A    between atoms: C_14  and  O_15
REMARK                            x       y       z     vdW  Elec       q    Type
REMARK                         _______ _______ _______ _____ _____    ______ ____
ROOT
ATOM      1  O   UNL     1      37.734 -25.144 -15.357  0.00  0.00    -0.444 OA
ATOM      2  C   UNL     1      36.130 -24.916 -13.493  0.00  0.00    +0.212 C 
ATOM      3  C   UNL     1      37.199 -25.343 -12.480  0.00  0.00    +0.169 C 
ATOM      4  C   UNL     1      36.418 -25.479 -14.890  0.00  0.00    +0.315 C 
ATOM      5  C   UNL     1      38.561 -25.389 -13.106  0.00  0.00    +0.049 C 
ATOM      6  C   UNL     1      38.739 -25.267 -14.429  0.00  0.00    +0.214 C 
ENDROOT
BRANCH   2   7
ATOM      7  O   UNL     1      36.100 -23.493 -13.588  0.00  0.00    -0.376 OA
ATOM      8  H   UNL     1      36.954 -23.174 -13.919  0.00  0.00    +0.211 HD
ENDBRANCH   2   7
BRANCH   3   9
ATOM      9  O   UNL     1      36.881 -26.638 -11.979  0.00  0.00    -0.377 OA
ATOM     10  H   UNL     1      37.297 -26.760 -11.112  0.00  0.00    +0.211 HD
ENDBRANCH   3   9
BRANCH   4  11
ATOM     11  O   UNL     1      36.212 -26.890 -14.886  0.00  0.00    -0.348 OA
ATOM     12  H   UNL     1      36.250 -27.225 -15.795  0.00  0.00    +0.214 HD
ENDBRANCH   4  11
BRANCH   6  14
ATOM     13  O   UNL     1      41.066 -24.790 -14.339  0.00  0.00    -0.242 OA
ATOM     14  C   UNL     1      40.113 -25.262 -14.933  0.00  0.00    +0.372 C 
BRANCH  14  15
ATOM     15  O   UNL     1      40.154 -25.854 -16.146  0.00  0.00    -0.475 OA
ATOM     16  H   UNL     1      39.361 -26.138 -16.556  0.00  0.00    +0.296 HD
ENDBRANCH  14  15
ENDBRANCH   6  14
TORSDOF 5
ENDMDL
MODEL 5
REMARK VINA RESULT:      -6.6      1.588      4.215
REMARK  Name = 445037
REMARK  5 active torsions:
REMARK  status: ('A' for Active; 'I' for Inactive)
REMARK    1  A    between atoms: C_2  and  O_7
REMARK    2  A    between atoms: C_3  and  O_9
REMARK    3  A    between atoms: C_4  and  O_11
REMARK    4  A    between atoms: C_6  and  C_14
REMARK    5  A    between atoms: C_14  and  O_15
REMARK                            x       y       z     vdW  Elec       q    Type
REMARK                         _______ _______ _______ _____ _____    ______ ____
ROOT
ATOM      1  O   UNL     1      36.922 -26.398 -12.629  0.00  0.00    -0.444 OA
ATOM      2  C   UNL     1      38.306 -26.003 -14.635  0.00  0.00    +0.212 C 
ATOM      3  C   UNL     1      37.958 -24.510 -14.620  0.00  0.00    +0.169 C 
ATOM      4  C   UNL     1      37.217 -26.845 -13.961  0.00  0.00    +0.315 C 
ATOM      5  C   UNL     1      37.256 -24.123 -13.352  0.00  0.00    +0.049 C 
ATOM      6  C   UNL     1      36.828 -25.037 -12.470  0.00  0.00    +0.214 C 
ENDROOT
BRANCH   2   7
ATOM      7  O   UNL     1      39.529 -26.217 -13.931  0.00  0.00    -0.376 OA
ATOM      8  H   UNL     1      40.096 -25.436 -14.023  0.00  0.00    +0.211 HD
ENDBRANCH   2   7
BRANCH   3   9
ATOM      9  O   UNL     1      37.106 -24.215 -15.723  0.00  0.00    -0.377 OA
ATOM     10  H   UNL     1      36.253 -24.660 -15.601  0.00  0.00    +0.211 HD
ENDBRANCH   3   9
BRANCH   4  11
ATOM     11  O   UNL     1      36.048 -26.851 -14.778  0.00  0.00    -0.348 OA
ATOM     12  H   UNL     1      35.295 -27.181 -14.262  0.00  0.00    +0.214 HD
ENDBRANCH   4  11
BRANCH   6  14
ATOM     13  O   UNL     1      35.267 -25.084 -10.678  0.00  0.00    -0.242 OA
ATOM     14  C   UNL     1      36.212 -24.553 -11.233  0.00  0.00    +0.372 C 
BRANCH  14  15
ATOM     15  O   UNL     1      36.850 -23.440 -10.814  0.00  0.00    -0.475 OA
ATOM     16  H   UNL     1      37.682 -23.212 -11.178  0.00  0.00    +0.296 HD
ENDBRANCH  14  15
ENDBRANCH   6  14
TORSDOF 5
ENDMDL
MODEL 6
REMARK VINA RESULT:      -6.5      1.823      3.818
REMARK  Name = 445037
REMARK  5 active torsions:
REMARK  status: ('A' for Active; 'I' for Inactive)
REMARK    1  A    between atoms: C_2  and  O_7
REMARK    2  A    between atoms: C_3  and  O_9
REMARK    3  A    between atoms: C_4  and  O_11
REMARK    4  A    between atoms: C_6  and  C_14
REMARK    5  A    between atoms: C_14  and  O_15
REMARK                            x       y       z     vdW  Elec       q    Type
REMARK                         _______ _______ _______ _____ _____    ______ ____
ROOT
ATOM      1  O   UNL     1      36.020 -25.254 -15.388  0.00  0.00    -0.444 OA
ATOM      2  C   UNL     1      37.325 -26.715 -13.885  0.00  0.00    +0.212 C 
ATOM      3  C   UNL     1      38.567 -25.832 -14.055  0.00  0.00    +0.169 C 
ATOM      4  C   UNL     1      36.387 -26.611 -15.093  0.00  0.00    +0.315 C 
ATOM      5  C   UNL     1      38.237 -24.549 -14.758  0.00  0.00    +0.049 C 
ATOM      6  C   UNL     1      37.042 -24.338 -15.327  0.00  0.00    +0.214 C 
ENDROOT
BRANCH   2   7
ATOM      7  O   UNL     1      36.600 -26.303 -12.726  0.00  0.00    -0.376 OA
ATOM      8  H   UNL     1      36.593 -27.024 -12.077  0.00  0.00    +0.211 HD
ENDBRANCH   2   7
BRANCH   3   9
ATOM      9  O   UNL     1      39.542 -26.535 -14.820  0.00  0.00    -0.377 OA
ATOM     10  H   UNL     1      39.239 -27.444 -14.973  0.00  0.00    +0.211 HD
ENDBRANCH   3   9
BRANCH   4  11
ATOM     11  O   UNL     1      36.991 -27.241 -16.220  0.00  0.00    -0.348 OA
ATOM     12  H   UNL     1      36.312 -27.703 -16.735  0.00  0.00    +0.214 HD
ENDBRANCH   4  11
BRANCH   6  14
ATOM     13  O   UNL     1      35.905 -22.789 -16.726  0.00  0.00    -0.242 OA
ATOM     14  C   UNL     1      36.797 -23.028 -15.932  0.00  0.00    +0.372 C 
BRANCH  14  15
ATOM     15  O   UNL     1      37.707 -22.141 -15.477  0.00  0.00    -0.475 OA
ATOM     16  H   UNL     1      37.660 -21.833 -14.593  0.00  0.00    +0.296 HD
ENDBRANCH  14  15
ENDBRANCH   6  14
TORSDOF 5
ENDMDL
MODEL 7
REMARK VINA RESULT:      -6.5      1.679      3.666
REMARK  Name = 445037
REMARK  5 active torsions:
REMARK  status: ('A' for Active; 'I' for Inactive)
REMARK    1  A    between atoms: C_2  and  O_7
REMARK    2  A    between atoms: C_3  and  O_9
REMARK    3  A    between atoms: C_4  and  O_11
REMARK    4  A    between atoms: C_6  and  C_14
REMARK    5  A    between atoms: C_14  and  O_15
REMARK                            x       y       z     vdW  Elec       q    Type
REMARK                         _______ _______ _______ _____ _____    ______ ____
ROOT
ATOM      1  O   UNL     1      36.937 -23.631 -13.850  0.00  0.00    -0.444 OA
ATOM      2  C   UNL     1      36.938 -25.735 -15.144  0.00  0.00    +0.212 C 
ATOM      3  C   UNL     1      37.727 -26.449 -14.041  0.00  0.00    +0.169 C 
ATOM      4  C   UNL     1      37.193 -24.223 -15.134  0.00  0.00    +0.315 C 
ATOM      5  C   UNL     1      37.808 -25.617 -12.797  0.00  0.00    +0.049 C 
ATOM      6  C   UNL     1      37.407 -24.338 -12.770  0.00  0.00    +0.214 C 
ENDROOT
BRANCH   2   7
ATOM      7  O   UNL     1      35.541 -25.948 -14.949  0.00  0.00    -0.376 OA
ATOM      8  H   UNL     1      35.137 -25.139 -14.597  0.00  0.00    +0.211 HD
ENDBRANCH   2   7
BRANCH   3   9
ATOM      9  O   UNL     1      39.049 -26.711 -14.504  0.00  0.00    -0.377 OA
ATOM     10  H   UNL     1      39.689 -26.284 -13.913  0.00  0.00    +0.211 HD
ENDBRANCH   3   9
BRANCH   4  11
ATOM     11  O   UNL     1      38.526 -23.962 -15.568  0.00  0.00    -0.348 OA
ATOM     12  H   UNL     1      39.152 -24.270 -14.894  0.00  0.00    +0.214 HD
ENDBRANCH   4  11
BRANCH   6  14
ATOM     13  O   UNL     1      36.784 -23.902 -10.518  0.00  0.00    -0.242 OA
ATOM     14  C   UNL     1      37.467 -23.632 -11.489  0.00  0.00    +0.372 C 
BRANCH  14  15
ATOM     15  O   UNL     1      38.388 -22.647 -11.557  0.00  0.00    -0.475 OA
ATOM     16  H   UNL     1      38.939 -22.469 -10.821  0.00  0.00    +0.296 HD
ENDBRANCH  14  15
ENDBRANCH   6  14
TORSDOF 5
ENDMDL
MODEL 8
REMARK VINA RESULT:      -6.4      2.181      3.215
REMARK  Name = 445037
REMARK  5 active torsions:
REMARK  status: ('A' for Active; 'I' for Inactive)
REMARK    1  A    between atoms: C_2  and  O_7
REMARK    2  A    between atoms: C_3  and  O_9
REMARK    3  A    between atoms: C_4  and  O_11
REMARK    4  A    between atoms: C_6  and  C_14
REMARK    5  A    between atoms: C_14  and  O_15
REMARK                            x       y       z     vdW  Elec       q    Type
REMARK                         _______ _______ _______ _____ _____    ______ ____
ROOT
ATOM      1  O   UNL     1      35.820 -23.180 -13.457  0.00  0.00    -0.444 OA
ATOM      2  C   UNL     1      36.654 -24.065 -11.307  0.00  0.00    +0.212 C 
ATOM      3  C   UNL     1      37.640 -24.986 -12.034  0.00  0.00    +0.169 C 
ATOM      4  C   UNL     1      35.442 -23.728 -12.185  0.00  0.00    +0.315 C 
ATOM      5  C   UNL     1      37.722 -24.660 -13.495  0.00  0.00    +0.049 C 
ATOM      6  C   UNL     1      36.872 -23.805 -14.081  0.00  0.00    +0.214 C 
ENDROOT
BRANCH   2   7
ATOM      7  O   UNL     1      37.304 -22.841 -10.965  0.00  0.00    -0.376 OA
ATOM      8  H   UNL     1      38.258 -22.994 -10.887  0.00  0.00    +0.211 HD
ENDBRANCH   2   7
BRANCH   3   9
ATOM      9  O   UNL     1      37.213 -26.338 -11.890  0.00  0.00    -0.377 OA
ATOM     10  H   UNL     1      37.801 -26.799 -11.272  0.00  0.00    +0.211 HD
ENDBRANCH   3   9
BRANCH   4  11
ATOM     11  O   UNL     1      34.631 -24.891 -12.342  0.00  0.00    -0.348 OA
ATOM     12  H   UNL     1      33.863 -24.831 -11.753  0.00  0.00    +0.214 HD
ENDBRANCH   4  11
BRANCH   6  14
ATOM     13  O   UNL     1      36.181 -23.326 -16.304  0.00  0.00    -0.242 OA
ATOM     14  C   UNL     1      37.077 -23.505 -15.499  0.00  0.00    +0.372 C 
BRANCH  14  15
ATOM     15  O   UNL     1      38.400 -23.461 -15.767  0.00  0.00    -0.475 OA
ATOM     16  H   UNL     1      38.966 -24.133 -15.442  0.00  0.00    +0.296 HD
ENDBRANCH  14  15
ENDBRANCH   6  14
TORSDOF 5
ENDMDL
MODEL 9
REMARK VINA RESULT:      -6.3      2.378      3.532
REMARK  Name = 445037
REMARK  5 active torsions:
REMARK  status: ('A' for Active; 'I' for Inactive)
REMARK    1  A    between atoms: C_2  and  O_7
REMARK    2  A    between atoms: C_3  and  O_9
REMARK    3  A    between atoms: C_4  and  O_11
REMARK    4  A    between atoms: C_6  and  C_14
REMARK    5  A    between atoms: C_14  and  O_15
REMARK                            x       y       z     vdW  Elec       q    Type
REMARK                         _______ _______ _______ _____ _____    ______ ____
ROOT
ATOM      1  O   UNL     1      38.096 -23.668 -13.190  0.00  0.00    -0.444 OA
ATOM      2  C   UNL     1      36.476 -24.791 -11.702  0.00  0.00    +0.212 C 
ATOM      3  C   UNL     1      35.323 -24.457 -12.654  0.00  0.00    +0.169 C 
ATOM      4  C   UNL     1      37.630 -23.790 -11.837  0.00  0.00    +0.315 C 
ATOM      5  C   UNL     1      35.827 -23.923 -13.962  0.00  0.00    +0.049 C 
ATOM      6  C   UNL     1      37.115 -23.604 -14.149  0.00  0.00    +0.214 C 
ENDROOT
BRANCH   2   7
ATOM      7  O   UNL     1      36.983 -26.091 -12.001  0.00  0.00    -0.376 OA
ATOM      8  H   UNL     1      36.256 -26.733 -11.985  0.00  0.00    +0.211 HD
ENDBRANCH   2   7
BRANCH   3   9
ATOM      9  O   UNL     1      34.486 -23.474 -12.052  0.00  0.00    -0.377 OA
ATOM     10  H   UNL     1      34.813 -22.589 -12.275  0.00  0.00    +0.211 HD
ENDBRANCH   3   9
BRANCH   4  11
ATOM     11  O   UNL     1      37.227 -22.527 -11.311  0.00  0.00    -0.348 OA
ATOM     12  H   UNL     1      36.262 -22.449 -11.362  0.00  0.00    +0.214 HD
ENDBRANCH   4  11
BRANCH   6  14
ATOM     13  O   UNL     1      36.830 -22.465 -16.216  0.00  0.00    -0.242 OA
ATOM     14  C   UNL     1      37.518 -23.152 -15.482  0.00  0.00    +0.372 C 
BRANCH  14  15
ATOM     15  O   UNL     1      38.755 -23.613 -15.763  0.00  0.00    -0.475 OA
ATOM     16  H   UNL     1      39.415 -23.025 -16.073  0.00  0.00    +0.296 HD
ENDBRANCH  14  15
ENDBRANCH   6  14
TORSDOF 5
ENDMDL
