MODEL 1
REMARK VINA RESULT:     -10.1      0.000      0.000
REMARK  Name = 5496910
REMARK  4 active torsions:
REMARK  status: ('A' for Active; 'I' for Inactive)
REMARK    1  A    between atoms: N_2  and  C_14
REMARK    2  A    between atoms: C_3  and  C_6
REMARK    3  A    between atoms: C_7  and  O_12
REMARK    4  A    between atoms: C_14  and  C_17
REMARK                            x       y       z     vdW  Elec       q    Type
REMARK                         _______ _______ _______ _____ _____    ______ ____
ROOT
ATOM      1  O   UNL     1      35.678 -16.049 -23.349  0.00  0.00    -0.270 OA
ATOM      2  N   UNL     1      34.249 -17.439 -22.165  0.00  0.00    -0.299 N 
ATOM      3  C   UNL     1      34.630 -16.203 -22.700  0.00  0.00    +0.249 C 
ATOM      4  H   UNL     1      33.405 -17.487 -21.661  0.00  0.00    +0.150 HD
ENDROOT
BRANCH   3   6
ATOM      5  F   UNL     1      32.258 -13.372 -19.593  0.00  0.00    -0.204 F 
ATOM      6  C   UNL     1      33.748 -15.073 -22.443  0.00  0.00    +0.089 C 
ATOM      7  C   UNL     1      33.234 -14.313 -23.493  0.00  0.00    +0.138 C 
ATOM      8  C   UNL     1      33.418 -14.755 -21.126  0.00  0.00    +0.037 C 
ATOM      9  C   UNL     1      32.390 -13.235 -23.226  0.00  0.00    +0.039 C 
ATOM     10  C   UNL     1      32.574 -13.677 -20.858  0.00  0.00    +0.140 C 
ATOM     11  C   UNL     1      32.061 -12.917 -21.909  0.00  0.00    +0.033 C 
BRANCH   7  12
ATOM     12  O   UNL     1      33.545 -14.607 -24.788  0.00  0.00    -0.505 OA
ATOM     13  H   UNL     1      33.150 -15.345 -25.208  0.00  0.00    +0.292 HD
ENDBRANCH   7  12
ENDBRANCH   3   6
BRANCH   2  14
ATOM     14  C   UNL     1      35.029 -18.646 -22.313  0.00  0.00    +0.094 C 
ATOM     15  C   UNL     1      34.898 -19.186 -23.735  0.00  0.00    +0.026 C 
BRANCH  14  17
ATOM     16 BR   UNL     1      33.529 -22.840 -18.040  0.00  0.00    -0.049 Br
ATOM     17  C   UNL     1      34.660 -19.674 -21.264  0.00  0.00    -0.004 C 
ATOM     18  C   UNL     1      35.663 -20.420 -20.669  0.00  0.00    -0.002 C 
ATOM     19  C   UNL     1      33.331 -19.845 -20.923  0.00  0.00    -0.002 C 
ATOM     20  C   UNL     1      35.324 -21.368 -19.703  0.00  0.00    +0.006 C 
ATOM     21  C   UNL     1      32.991 -20.794 -19.958  0.00  0.00    +0.006 C 
ATOM     22  C   UNL     1      33.989 -21.554 -19.348  0.00  0.00    +0.035 C 
ENDBRANCH  14  17
ENDBRANCH   2  14
TORSDOF 4
ENDMDL
MODEL 2
REMARK VINA RESULT:      -9.8      4.799      8.415
REMARK  Name = 5496910
REMARK  4 active torsions:
REMARK  status: ('A' for Active; 'I' for Inactive)
REMARK    1  A    between atoms: N_2  and  C_14
REMARK    2  A    between atoms: C_3  and  C_6
REMARK    3  A    between atoms: C_7  and  O_12
REMARK    4  A    between atoms: C_14  and  C_17
REMARK                            x       y       z     vdW  Elec       q    Type
REMARK                         _______ _______ _______ _____ _____    ______ ____
ROOT
ATOM      1  O   UNL     1      32.901 -13.846 -25.176  0.00  0.00    -0.270 OA
ATOM      2  N   UNL     1      34.209 -12.382 -23.943  0.00  0.00    -0.299 N 
ATOM      3  C   UNL     1      33.703 -13.651 -24.247  0.00  0.00    +0.249 C 
ATOM      4  H   UNL     1      34.841 -12.301 -23.193  0.00  0.00    +0.150 HD
ENDROOT
BRANCH   3   6
ATOM      5  F   UNL     1      34.716 -15.425 -19.875  0.00  0.00    -0.204 F 
ATOM      6  C   UNL     1      34.139 -14.755 -23.404  0.00  0.00    +0.089 C 
ATOM      7  C   UNL     1      34.474 -15.990 -23.958  0.00  0.00    +0.138 C 
ATOM      8  C   UNL     1      34.221 -14.564 -22.024  0.00  0.00    +0.037 C 
ATOM      9  C   UNL     1      34.890 -17.035 -23.133  0.00  0.00    +0.039 C 
ATOM     10  C   UNL     1      34.638 -15.609 -21.199  0.00  0.00    +0.140 C 
ATOM     11  C   UNL     1      34.972 -16.844 -21.754  0.00  0.00    +0.033 C 
BRANCH   7  12
ATOM     12  O   UNL     1      34.400 -16.196 -25.304  0.00  0.00    -0.505 OA
ATOM     13  H   UNL     1      34.757 -15.564 -25.895  0.00  0.00    +0.292 HD
ENDBRANCH   7  12
ENDBRANCH   3   6
BRANCH   2  14
ATOM     14  C   UNL     1      33.853 -11.186 -24.671  0.00  0.00    +0.094 C 
ATOM     15  C   UNL     1      34.996 -10.774 -25.597  0.00  0.00    +0.026 C 
BRANCH  14  17
ATOM     16 BR   UNL     1      32.140  -6.648 -20.854  0.00  0.00    -0.049 Br
ATOM     17  C   UNL     1      33.434 -10.072 -23.734  0.00  0.00    -0.004 C 
ATOM     18  C   UNL     1      32.358 -10.273 -22.887  0.00  0.00    -0.002 C 
ATOM     19  C   UNL     1      34.135  -8.880 -23.745  0.00  0.00    -0.002 C 
ATOM     20  C   UNL     1      31.972  -9.248 -22.023  0.00  0.00    +0.006 C 
ATOM     21  C   UNL     1      33.748  -7.854 -22.883  0.00  0.00    +0.006 C 
ATOM     22  C   UNL     1      32.666  -8.039 -22.021  0.00  0.00    +0.035 C 
ENDBRANCH  14  17
ENDBRANCH   2  14
TORSDOF 4
ENDMDL
MODEL 3
REMARK VINA RESULT:      -9.6      5.120      8.689
REMARK  Name = 5496910
REMARK  4 active torsions:
REMARK  status: ('A' for Active; 'I' for Inactive)
REMARK    1  A    between atoms: N_2  and  C_14
REMARK    2  A    between atoms: C_3  and  C_6
REMARK    3  A    between atoms: C_7  and  O_12
REMARK    4  A    between atoms: C_14  and  C_17
REMARK                            x       y       z     vdW  Elec       q    Type
REMARK                         _______ _______ _______ _____ _____    ______ ____
ROOT
ATOM      1  O   UNL     1      32.759 -13.800 -24.798  0.00  0.00    -0.270 OA
ATOM      2  N   UNL     1      34.142 -12.280 -23.725  0.00  0.00    -0.299 N 
ATOM      3  C   UNL     1      33.583 -13.551 -23.902  0.00  0.00    +0.249 C 
ATOM      4  H   UNL     1      34.790 -12.155 -22.994  0.00  0.00    +0.150 HD
ENDROOT
BRANCH   3   6
ATOM      5  F   UNL     1      35.991 -17.629 -22.974  0.00  0.00    -0.204 F 
ATOM      6  C   UNL     1      33.993 -14.589 -22.966  0.00  0.00    +0.089 C 
ATOM      7  C   UNL     1      33.583 -14.554 -21.634  0.00  0.00    +0.138 C 
ATOM      8  C   UNL     1      34.806 -15.628 -23.419  0.00  0.00    +0.037 C 
ATOM      9  C   UNL     1      33.987 -15.558 -20.754  0.00  0.00    +0.039 C 
ATOM     10  C   UNL     1      35.210 -16.632 -22.539  0.00  0.00    +0.140 C 
ATOM     11  C   UNL     1      34.800 -16.596 -21.206  0.00  0.00    +0.033 C 
BRANCH   7  12
ATOM     12  O   UNL     1      32.789 -13.547 -21.172  0.00  0.00    -0.505 OA
ATOM     13  H   UNL     1      33.025 -13.085 -20.392  0.00  0.00    +0.292 HD
ENDBRANCH   7  12
ENDBRANCH   3   6
BRANCH   2  14
ATOM     14  C   UNL     1      33.818 -11.143 -24.555  0.00  0.00    +0.094 C 
ATOM     15  C   UNL     1      34.991 -10.814 -25.476  0.00  0.00    +0.026 C 
BRANCH  14  17
ATOM     16 BR   UNL     1      32.033  -6.306 -21.163  0.00  0.00    -0.049 Br
ATOM     17  C   UNL     1      33.381  -9.956 -23.722  0.00  0.00    -0.004 C 
ATOM     18  C   UNL     1      32.254 -10.068 -22.927  0.00  0.00    -0.002 C 
ATOM     19  C   UNL     1      34.118  -8.787 -23.775  0.00  0.00    -0.002 C 
ATOM     20  C   UNL     1      31.851  -8.975 -22.160  0.00  0.00    +0.006 C 
ATOM     21  C   UNL     1      33.715  -7.693 -23.008  0.00  0.00    +0.006 C 
ATOM     22  C   UNL     1      32.581  -7.788 -22.201  0.00  0.00    +0.035 C 
ENDBRANCH  14  17
ENDBRANCH   2  14
TORSDOF 4
ENDMDL
MODEL 4
REMARK VINA RESULT:      -9.5      1.441      2.107
REMARK  Name = 5496910
REMARK  4 active torsions:
REMARK  status: ('A' for Active; 'I' for Inactive)
REMARK    1  A    between atoms: N_2  and  C_14
REMARK    2  A    between atoms: C_3  and  C_6
REMARK    3  A    between atoms: C_7  and  O_12
REMARK    4  A    between atoms: C_14  and  C_17
REMARK                            x       y       z     vdW  Elec       q    Type
REMARK                         _______ _______ _______ _____ _____    ______ ____
ROOT
ATOM      1  O   UNL     1      35.693 -16.044 -23.625  0.00  0.00    -0.270 OA
ATOM      2  N   UNL     1      34.308 -17.347 -22.298  0.00  0.00    -0.299 N 
ATOM      3  C   UNL     1      34.684 -16.144 -22.907  0.00  0.00    +0.249 C 
ATOM      4  H   UNL     1      33.495 -17.353 -21.742  0.00  0.00    +0.150 HD
ENDROOT
BRANCH   3   6
ATOM      5  F   UNL     1      33.199 -11.708 -24.094  0.00  0.00    -0.204 F 
ATOM      6  C   UNL     1      33.846 -14.982 -22.645  0.00  0.00    +0.089 C 
ATOM      7  C   UNL     1      32.977 -14.956 -21.554  0.00  0.00    +0.138 C 
ATOM      8  C   UNL     1      33.921 -13.884 -23.503  0.00  0.00    +0.037 C 
ATOM      9  C   UNL     1      32.183 -13.834 -21.321  0.00  0.00    +0.039 C 
ATOM     10  C   UNL     1      33.127 -12.761 -23.270  0.00  0.00    +0.140 C 
ATOM     11  C   UNL     1      32.258 -12.737 -22.179  0.00  0.00    +0.033 C 
BRANCH   7  12
ATOM     12  O   UNL     1      32.889 -16.019 -20.705  0.00  0.00    -0.505 OA
ATOM     13  H   UNL     1      33.510 -16.718 -20.764  0.00  0.00    +0.292 HD
ENDBRANCH   7  12
ENDBRANCH   3   6
BRANCH   2  14
ATOM     14  C   UNL     1      35.048 -18.579 -22.441  0.00  0.00    +0.094 C 
ATOM     15  C   UNL     1      34.893 -19.124 -23.859  0.00  0.00    +0.026 C 
BRANCH  14  17
ATOM     16 BR   UNL     1      33.438 -22.688 -18.127  0.00  0.00    -0.049 Br
ATOM     17  C   UNL     1      34.653 -19.588 -21.383  0.00  0.00    -0.004 C 
ATOM     18  C   UNL     1      33.317 -19.734 -21.055  0.00  0.00    -0.002 C 
ATOM     19  C   UNL     1      35.637 -20.341 -20.768  0.00  0.00    -0.002 C 
ATOM     20  C   UNL     1      32.953 -20.663 -20.081  0.00  0.00    +0.006 C 
ATOM     21  C   UNL     1      35.274 -21.270 -19.793  0.00  0.00    +0.006 C 
ATOM     22  C   UNL     1      33.931 -21.431 -19.450  0.00  0.00    +0.035 C 
ENDBRANCH  14  17
ENDBRANCH   2  14
TORSDOF 4
ENDMDL
MODEL 5
REMARK VINA RESULT:      -9.5      5.027      7.241
REMARK  Name = 5496910
REMARK  4 active torsions:
REMARK  status: ('A' for Active; 'I' for Inactive)
REMARK    1  A    between atoms: N_2  and  C_14
REMARK    2  A    between atoms: C_3  and  C_6
REMARK    3  A    between atoms: C_7  and  O_12
REMARK    4  A    between atoms: C_14  and  C_17
REMARK                            x       y       z     vdW  Elec       q    Type
REMARK                         _______ _______ _______ _____ _____    ______ ____
ROOT
ATOM      1  O   UNL     1      33.930 -23.467 -19.656  0.00  0.00    -0.270 OA
ATOM      2  N   UNL     1      34.320 -22.360 -17.656  0.00  0.00    -0.299 N 
ATOM      3  C   UNL     1      34.272 -22.436 -19.053  0.00  0.00    +0.249 C 
ATOM      4  H   UNL     1      34.601 -21.510 -17.246  0.00  0.00    +0.150 HD
ENDROOT
BRANCH   3   6
ATOM      5  F   UNL     1      37.722 -19.497 -20.712  0.00  0.00    -0.204 F 
ATOM      6  C   UNL     1      34.667 -21.245 -19.792  0.00  0.00    +0.089 C 
ATOM      7  C   UNL     1      33.710 -20.420 -20.385  0.00  0.00    +0.138 C 
ATOM      8  C   UNL     1      36.022 -20.932 -19.903  0.00  0.00    +0.037 C 
ATOM      9  C   UNL     1      34.109 -19.284 -21.089  0.00  0.00    +0.039 C 
ATOM     10  C   UNL     1      36.421 -19.796 -20.606  0.00  0.00    +0.140 C 
ATOM     11  C   UNL     1      35.464 -18.973 -21.199  0.00  0.00    +0.033 C 
BRANCH   7  12
ATOM     12  O   UNL     1      32.382 -20.708 -20.289  0.00  0.00    -0.505 OA
ATOM     13  H   UNL     1      32.084 -21.589 -20.404  0.00  0.00    +0.292 HD
ENDBRANCH   7  12
ENDBRANCH   3   6
BRANCH   2  14
ATOM     14  C   UNL     1      33.983 -23.462 -16.786  0.00  0.00    +0.094 C 
ATOM     15  C   UNL     1      32.515 -23.375 -16.372  0.00  0.00    +0.026 C 
BRANCH  14  17
ATOM     16 BR   UNL     1      37.800 -23.764 -11.945  0.00  0.00    -0.049 Br
ATOM     17  C   UNL     1      34.919 -23.535 -15.597  0.00  0.00    -0.004 C 
ATOM     18  C   UNL     1      36.224 -23.100 -15.739  0.00  0.00    -0.002 C 
ATOM     19  C   UNL     1      34.448 -24.036 -14.397  0.00  0.00    -0.002 C 
ATOM     20  C   UNL     1      37.087 -23.167 -14.645  0.00  0.00    +0.006 C 
ATOM     21  C   UNL     1      35.310 -24.105 -13.302  0.00  0.00    +0.006 C 
ATOM     22  C   UNL     1      36.630 -23.669 -13.427  0.00  0.00    +0.035 C 
ENDBRANCH  14  17
ENDBRANCH   2  14
TORSDOF 4
ENDMDL
MODEL 6
REMARK VINA RESULT:      -9.4      3.758      6.936
REMARK  Name = 5496910
REMARK  4 active torsions:
REMARK  status: ('A' for Active; 'I' for Inactive)
REMARK    1  A    between atoms: N_2  and  C_14
REMARK    2  A    between atoms: C_3  and  C_6
REMARK    3  A    between atoms: C_7  and  O_12
REMARK    4  A    between atoms: C_14  and  C_17
REMARK                            x       y       z     vdW  Elec       q    Type
REMARK                         _______ _______ _______ _____ _____    ______ ____
ROOT
ATOM      1  O   UNL     1      34.797 -19.377 -23.297  0.00  0.00    -0.270 OA
ATOM      2  N   UNL     1      34.210 -17.706 -21.800  0.00  0.00    -0.299 N 
ATOM      3  C   UNL     1      34.559 -19.021 -22.130  0.00  0.00    +0.249 C 
ATOM      4  H   UNL     1      34.035 -17.495 -20.855  0.00  0.00    +0.150 HD
ENDROOT
BRANCH   3   6
ATOM      5  F   UNL     1      37.119 -21.755 -19.087  0.00  0.00    -0.204 F 
ATOM      6  C   UNL     1      34.611 -19.984 -21.039  0.00  0.00    +0.089 C 
ATOM      7  C   UNL     1      33.441 -20.473 -20.459  0.00  0.00    +0.138 C 
ATOM      8  C   UNL     1      35.854 -20.417 -20.575  0.00  0.00    +0.037 C 
ATOM      9  C   UNL     1      33.513 -21.395 -19.415  0.00  0.00    +0.039 C 
ATOM     10  C   UNL     1      35.926 -21.339 -19.531  0.00  0.00    +0.140 C 
ATOM     11  C   UNL     1      34.755 -21.827 -18.951  0.00  0.00    +0.033 C 
BRANCH   7  12
ATOM     12  O   UNL     1      32.218 -20.061 -20.897  0.00  0.00    -0.505 OA
ATOM     13  H   UNL     1      31.470 -20.613 -20.782  0.00  0.00    +0.292 HD
ENDBRANCH   7  12
ENDBRANCH   3   6
BRANCH   2  14
ATOM     14  C   UNL     1      34.093 -16.644 -22.772  0.00  0.00    +0.094 C 
ATOM     15  C   UNL     1      35.457 -16.343 -23.389  0.00  0.00    +0.026 C 
BRANCH  14  17
ATOM     16 BR   UNL     1      31.439 -11.635 -20.332  0.00  0.00    -0.049 Br
ATOM     17  C   UNL     1      33.441 -15.416 -22.173  0.00  0.00    -0.004 C 
ATOM     18  C   UNL     1      33.089 -14.366 -23.003  0.00  0.00    -0.002 C 
ATOM     19  C   UNL     1      33.212 -15.369 -20.809  0.00  0.00    -0.002 C 
ATOM     20  C   UNL     1      32.488 -13.234 -22.452  0.00  0.00    +0.006 C 
ATOM     21  C   UNL     1      32.612 -14.237 -20.257  0.00  0.00    +0.006 C 
ATOM     22  C   UNL     1      32.250 -13.170 -21.080  0.00  0.00    +0.035 C 
ENDBRANCH  14  17
ENDBRANCH   2  14
TORSDOF 4
ENDMDL
MODEL 7
REMARK VINA RESULT:      -9.3      5.108      8.277
REMARK  Name = 5496910
REMARK  4 active torsions:
REMARK  status: ('A' for Active; 'I' for Inactive)
REMARK    1  A    between atoms: N_2  and  C_14
REMARK    2  A    between atoms: C_3  and  C_6
REMARK    3  A    between atoms: C_7  and  O_12
REMARK    4  A    between atoms: C_14  and  C_17
REMARK                            x       y       z     vdW  Elec       q    Type
REMARK                         _______ _______ _______ _____ _____    ______ ____
ROOT
ATOM      1  O   UNL     1      33.821 -23.766 -19.477  0.00  0.00    -0.270 OA
ATOM      2  N   UNL     1      34.832 -21.800 -18.778  0.00  0.00    -0.299 N 
ATOM      3  C   UNL     1      34.031 -22.931 -18.581  0.00  0.00    +0.249 C 
ATOM      4  H   UNL     1      34.954 -21.180 -18.024  0.00  0.00    +0.150 HD
ENDROOT
BRANCH   3   6
ATOM      5  F   UNL     1      30.111 -22.908 -15.766  0.00  0.00    -0.204 F 
ATOM      6  C   UNL     1      33.419 -23.086 -17.269  0.00  0.00    +0.089 C 
ATOM      7  C   UNL     1      34.193 -23.392 -16.150  0.00  0.00    +0.138 C 
ATOM      8  C   UNL     1      32.040 -22.922 -17.139  0.00  0.00    +0.037 C 
ATOM      9  C   UNL     1      33.588 -23.537 -14.902  0.00  0.00    +0.039 C 
ATOM     10  C   UNL     1      31.434 -23.065 -15.891  0.00  0.00    +0.140 C 
ATOM     11  C   UNL     1      32.210 -23.373 -14.773  0.00  0.00    +0.033 C 
BRANCH   7  12
ATOM     12  O   UNL     1      35.542 -23.557 -16.256  0.00  0.00    -0.505 OA
ATOM     13  H   UNL     1      35.909 -24.419 -16.263  0.00  0.00    +0.292 HD
ENDBRANCH   7  12
ENDBRANCH   3   6
BRANCH   2  14
ATOM     14  C   UNL     1      35.486 -21.494 -20.029  0.00  0.00    +0.094 C 
ATOM     15  C   UNL     1      36.998 -21.651 -19.883  0.00  0.00    +0.026 C 
BRANCH  14  17
ATOM     16 BR   UNL     1      33.868 -15.918 -22.120  0.00  0.00    -0.049 Br
ATOM     17  C   UNL     1      35.090 -20.126 -20.541  0.00  0.00    -0.004 C 
ATOM     18  C   UNL     1      33.747 -19.812 -20.660  0.00  0.00    -0.002 C 
ATOM     19  C   UNL     1      36.078 -19.219 -20.880  0.00  0.00    -0.002 C 
ATOM     20  C   UNL     1      33.381 -18.552 -21.131  0.00  0.00    +0.006 C 
ATOM     21  C   UNL     1      35.713 -17.958 -21.353  0.00  0.00    +0.006 C 
ATOM     22  C   UNL     1      34.364 -17.625 -21.478  0.00  0.00    +0.035 C 
ENDBRANCH  14  17
ENDBRANCH   2  14
TORSDOF 4
ENDMDL
MODEL 8
REMARK VINA RESULT:      -9.2      3.606      6.850
REMARK  Name = 5496910
REMARK  4 active torsions:
REMARK  status: ('A' for Active; 'I' for Inactive)
REMARK    1  A    between atoms: N_2  and  C_14
REMARK    2  A    between atoms: C_3  and  C_6
REMARK    3  A    between atoms: C_7  and  O_12
REMARK    4  A    between atoms: C_14  and  C_17
REMARK                            x       y       z     vdW  Elec       q    Type
REMARK                         _______ _______ _______ _____ _____    ______ ____
ROOT
ATOM      1  O   UNL     1      34.392 -19.315 -23.369  0.00  0.00    -0.270 OA
ATOM      2  N   UNL     1      34.389 -17.529 -21.891  0.00  0.00    -0.299 N 
ATOM      3  C   UNL     1      34.532 -18.883 -22.212  0.00  0.00    +0.249 C 
ATOM      4  H   UNL     1      34.514 -17.258 -20.953  0.00  0.00    +0.150 HD
ENDROOT
BRANCH   3   6
ATOM      5  F   UNL     1      33.088 -22.174 -18.992  0.00  0.00    -0.204 F 
ATOM      6  C   UNL     1      34.834 -19.793 -21.116  0.00  0.00    +0.089 C 
ATOM      7  C   UNL     1      36.130 -19.903 -20.614  0.00  0.00    +0.138 C 
ATOM      8  C   UNL     1      33.806 -20.561 -20.568  0.00  0.00    +0.037 C 
ATOM      9  C   UNL     1      36.399 -20.780 -19.563  0.00  0.00    +0.039 C 
ATOM     10  C   UNL     1      34.074 -21.438 -19.518  0.00  0.00    +0.140 C 
ATOM     11  C   UNL     1      35.371 -21.547 -19.016  0.00  0.00    +0.033 C 
BRANCH   7  12
ATOM     12  O   UNL     1      37.148 -19.162 -21.136  0.00  0.00    -0.505 OA
ATOM     13  H   UNL     1      37.609 -19.467 -21.892  0.00  0.00    +0.292 HD
ENDBRANCH   7  12
ENDBRANCH   3   6
BRANCH   2  14
ATOM     14  C   UNL     1      34.067 -16.508 -22.861  0.00  0.00    +0.094 C 
ATOM     15  C   UNL     1      35.308 -16.144 -23.673  0.00  0.00    +0.026 C 
BRANCH  14  17
ATOM     16 BR   UNL     1      31.451 -11.600 -20.186  0.00  0.00    -0.049 Br
ATOM     17  C   UNL     1      33.426 -15.303 -22.205  0.00  0.00    -0.004 C 
ATOM     18  C   UNL     1      33.220 -15.310 -20.837  0.00  0.00    -0.002 C 
ATOM     19  C   UNL     1      33.060 -14.223 -22.988  0.00  0.00    -0.002 C 
ATOM     20  C   UNL     1      32.629 -14.200 -20.232  0.00  0.00    +0.006 C 
ATOM     21  C   UNL     1      32.468 -13.113 -22.384  0.00  0.00    +0.006 C 
ATOM     22  C   UNL     1      32.254 -13.103 -21.005  0.00  0.00    +0.035 C 
ENDBRANCH  14  17
ENDBRANCH   2  14
TORSDOF 4
ENDMDL
MODEL 9
REMARK VINA RESULT:      -9.2      6.225      9.226
REMARK  Name = 5496910
REMARK  4 active torsions:
REMARK  status: ('A' for Active; 'I' for Inactive)
REMARK    1  A    between atoms: N_2  and  C_14
REMARK    2  A    between atoms: C_3  and  C_6
REMARK    3  A    between atoms: C_7  and  O_12
REMARK    4  A    between atoms: C_14  and  C_17
REMARK                            x       y       z     vdW  Elec       q    Type
REMARK                         _______ _______ _______ _____ _____    ______ ____
ROOT
ATOM      1  O   UNL     1      35.005 -24.560 -16.082  0.00  0.00    -0.270 OA
ATOM      2  N   UNL     1      34.437 -22.548 -17.085  0.00  0.00    -0.299 N 
ATOM      3  C   UNL     1      34.190 -23.634 -16.238  0.00  0.00    +0.249 C 
ATOM      4  H   UNL     1      33.746 -21.850 -17.160  0.00  0.00    +0.150 HD
ENDROOT
BRANCH   3   6
ATOM      5  F   UNL     1      29.484 -22.570 -16.129  0.00  0.00    -0.204 F 
ATOM      6  C   UNL     1      32.908 -23.655 -15.548  0.00  0.00    +0.089 C 
ATOM      7  C   UNL     1      32.786 -24.222 -14.280  0.00  0.00    +0.138 C 
ATOM      8  C   UNL     1      31.792 -23.097 -16.172  0.00  0.00    +0.037 C 
ATOM      9  C   UNL     1      31.549 -24.232 -13.636  0.00  0.00    +0.039 C 
ATOM     10  C   UNL     1      30.554 -23.106 -15.529  0.00  0.00    +0.140 C 
ATOM     11  C   UNL     1      30.434 -23.674 -14.261  0.00  0.00    +0.033 C 
BRANCH   7  12
ATOM     12  O   UNL     1      33.864 -24.773 -13.653  0.00  0.00    -0.505 OA
ATOM     13  H   UNL     1      34.407 -25.385 -14.108  0.00  0.00    +0.292 HD
ENDBRANCH   7  12
ENDBRANCH   3   6
BRANCH   2  14
ATOM     14  C   UNL     1      35.650 -22.396 -17.855  0.00  0.00    +0.094 C 
ATOM     15  C   UNL     1      36.793 -21.942 -16.950  0.00  0.00    +0.026 C 
BRANCH  14  17
ATOM     16 BR   UNL     1      34.803 -18.642 -22.680  0.00  0.00    -0.049 Br
ATOM     17  C   UNL     1      35.443 -21.474 -19.038  0.00  0.00    -0.004 C 
ATOM     18  C   UNL     1      34.163 -21.284 -19.529  0.00  0.00    -0.002 C 
ATOM     19  C   UNL     1      36.537 -20.843 -19.602  0.00  0.00    -0.002 C 
ATOM     20  C   UNL     1      33.971 -20.435 -20.619  0.00  0.00    +0.006 C 
ATOM     21  C   UNL     1      36.346 -19.995 -20.693  0.00  0.00    +0.006 C 
ATOM     22  C   UNL     1      35.062 -19.790 -21.201  0.00  0.00    +0.035 C 
ENDBRANCH  14  17
ENDBRANCH   2  14
TORSDOF 4
ENDMDL
