MODEL 1
REMARK VINA RESULT:      -7.5      0.000      0.000
REMARK  Name = 21777
REMARK  6 active torsions:
REMARK  status: ('A' for Active; 'I' for Inactive)
REMARK    1  A    between atoms: C_1  and  N_3
REMARK    2  A    between atoms: C_1  and  C_10
REMARK    3  A    between atoms: N_3  and  C_6
REMARK    4  A    between atoms: C_6  and  C_7
REMARK    5  A    between atoms: C_7  and  C_9
REMARK    6  A    between atoms: C_10  and  C_11
REMARK                            x       y       z     vdW  Elec       q    Type
REMARK                         _______ _______ _______ _____ _____    ______ ____
ROOT
ATOM      1  C   UNL     1      35.293 -17.624 -21.581  0.00  0.00    -0.058 C 
ATOM      2  C   UNL     1      34.801 -16.315 -20.961  0.00  0.00    -0.023 C 
ENDROOT
BRANCH   1   3
ATOM      3  N   UNL     1      35.826 -17.330 -22.914  0.00  0.00    +0.385 N 
ATOM      4  H   UNL     1      36.803 -17.619 -22.955  0.00  0.00    -0.084 HD
ATOM      5  H   UNL     1      35.747 -16.328 -23.086  0.00  0.00    -0.084 HD
BRANCH   3   6
ATOM      6  C   UNL     1      35.074 -18.041 -23.935  0.00  0.00    -0.080 C 
BRANCH   6   7
ATOM      7  C   UNL     1      34.780 -17.118 -25.117  0.00  0.00    -0.006 C 
BRANCH   7   9
ATOM      8 CL   UNL     1      33.119 -15.190 -26.066  0.00  0.00    -0.114 Cl
ATOM      9  C   UNL     1      33.960 -15.913 -24.675  0.00  0.00    +0.093 C 
ENDBRANCH   7   9
ENDBRANCH   6   7
ENDBRANCH   3   6
ENDBRANCH   1   3
BRANCH   1  10
ATOM     10  C   UNL     1      34.178 -18.679 -21.693  0.00  0.00    +0.005 C 
BRANCH  10  11
ATOM     11  C   UNL     1      34.376 -19.868 -20.784  0.00  0.00    -0.024 C 
ATOM     12  C   UNL     1      33.269 -20.485 -20.223  0.00  0.00    -0.004 C 
ATOM     13  C   UNL     1      35.660 -20.320 -20.528  0.00  0.00    -0.004 C 
ATOM     14  C   UNL     1      33.452 -21.584 -19.383  0.00  0.00    -0.000 C 
ATOM     15  C   UNL     1      35.843 -21.419 -19.688  0.00  0.00    -0.000 C 
ATOM     16  C   UNL     1      34.739 -22.051 -19.115  0.00  0.00    -0.000 C 
ENDBRANCH  10  11
ENDBRANCH   1  10
TORSDOF 6
ENDMDL
MODEL 2
REMARK VINA RESULT:      -7.5      0.060      1.293
REMARK  Name = 21777
REMARK  6 active torsions:
REMARK  status: ('A' for Active; 'I' for Inactive)
REMARK    1  A    between atoms: C_1  and  N_3
REMARK    2  A    between atoms: C_1  and  C_10
REMARK    3  A    between atoms: N_3  and  C_6
REMARK    4  A    between atoms: C_6  and  C_7
REMARK    5  A    between atoms: C_7  and  C_9
REMARK    6  A    between atoms: C_10  and  C_11
REMARK                            x       y       z     vdW  Elec       q    Type
REMARK                         _______ _______ _______ _____ _____    ______ ____
ROOT
ATOM      1  C   UNL     1      35.280 -17.598 -21.550  0.00  0.00    -0.058 C 
ATOM      2  C   UNL     1      34.789 -16.261 -20.991  0.00  0.00    -0.023 C 
ENDROOT
BRANCH   1   3
ATOM      3  N   UNL     1      35.832 -17.364 -22.888  0.00  0.00    +0.385 N 
ATOM      4  H   UNL     1      36.782 -17.733 -22.928  0.00  0.00    -0.084 HD
ATOM      5  H   UNL     1      35.835 -16.360 -23.070  0.00  0.00    -0.084 HD
BRANCH   3   6
ATOM      6  C   UNL     1      35.021 -18.021 -23.899  0.00  0.00    -0.080 C 
BRANCH   6   7
ATOM      7  C   UNL     1      34.804 -17.092 -25.092  0.00  0.00    -0.006 C 
BRANCH   7   9
ATOM      8 CL   UNL     1      33.076 -15.265 -26.120  0.00  0.00    -0.114 Cl
ATOM      9  C   UNL     1      33.946 -15.895 -24.702  0.00  0.00    +0.093 C 
ENDBRANCH   7   9
ENDBRANCH   6   7
ENDBRANCH   3   6
ENDBRANCH   1   3
BRANCH   1  10
ATOM     10  C   UNL     1      34.159 -18.650 -21.632  0.00  0.00    +0.005 C 
BRANCH  10  11
ATOM     11  C   UNL     1      34.388 -19.849 -20.745  0.00  0.00    -0.024 C 
ATOM     12  C   UNL     1      35.683 -20.282 -20.508  0.00  0.00    -0.004 C 
ATOM     13  C   UNL     1      33.299 -20.494 -20.181  0.00  0.00    -0.004 C 
ATOM     14  C   UNL     1      35.894 -21.390 -19.687  0.00  0.00    -0.000 C 
ATOM     15  C   UNL     1      33.509 -21.602 -19.360  0.00  0.00    -0.000 C 
ATOM     16  C   UNL     1      34.807 -22.050 -19.113  0.00  0.00    -0.000 C 
ENDBRANCH  10  11
ENDBRANCH   1  10
TORSDOF 6
ENDMDL
MODEL 3
REMARK VINA RESULT:      -7.5      1.873      2.521
REMARK  Name = 21777
REMARK  6 active torsions:
REMARK  status: ('A' for Active; 'I' for Inactive)
REMARK    1  A    between atoms: C_1  and  N_3
REMARK    2  A    between atoms: C_1  and  C_10
REMARK    3  A    between atoms: N_3  and  C_6
REMARK    4  A    between atoms: C_6  and  C_7
REMARK    5  A    between atoms: C_7  and  C_9
REMARK    6  A    between atoms: C_10  and  C_11
REMARK                            x       y       z     vdW  Elec       q    Type
REMARK                         _______ _______ _______ _____ _____    ______ ____
ROOT
ATOM      1  C   UNL     1      34.991 -18.031 -23.068  0.00  0.00    -0.058 C 
ATOM      2  C   UNL     1      34.865 -19.048 -24.203  0.00  0.00    -0.023 C 
ENDROOT
BRANCH   1   3
ATOM      3  N   UNL     1      35.670 -16.841 -23.589  0.00  0.00    +0.385 N 
ATOM      4  H   UNL     1      36.265 -17.110 -24.372  0.00  0.00    -0.084 HD
ATOM      5  H   UNL     1      36.232 -16.430 -22.844  0.00  0.00    -0.084 HD
BRANCH   3   6
ATOM      6  C   UNL     1      34.702 -15.855 -24.041  0.00  0.00    -0.080 C 
BRANCH   6   7
ATOM      7  C   UNL     1      33.700 -15.546 -22.929  0.00  0.00    -0.006 C 
BRANCH   7   9
ATOM      8 CL   UNL     1      34.599 -15.420 -20.369  0.00  0.00    -0.114 Cl
ATOM      9  C   UNL     1      34.298 -14.584 -21.910  0.00  0.00    +0.093 C 
ENDBRANCH   7   9
ENDBRANCH   6   7
ENDBRANCH   3   6
ENDBRANCH   1   3
BRANCH   1  10
ATOM     10  C   UNL     1      35.775 -18.584 -21.864  0.00  0.00    +0.005 C 
BRANCH  10  11
ATOM     11  C   UNL     1      34.990 -19.571 -21.033  0.00  0.00    -0.024 C 
ATOM     12  C   UNL     1      33.611 -19.458 -20.968  0.00  0.00    -0.004 C 
ATOM     13  C   UNL     1      35.665 -20.572 -20.353  0.00  0.00    -0.004 C 
ATOM     14  C   UNL     1      32.886 -20.370 -20.200  0.00  0.00    -0.000 C 
ATOM     15  C   UNL     1      34.940 -21.485 -19.585  0.00  0.00    -0.000 C 
ATOM     16  C   UNL     1      33.551 -21.384 -19.509  0.00  0.00    -0.000 C 
ENDBRANCH  10  11
ENDBRANCH   1  10
TORSDOF 6
ENDMDL
MODEL 4
REMARK VINA RESULT:      -7.5      1.838      2.741
REMARK  Name = 21777
REMARK  6 active torsions:
REMARK  status: ('A' for Active; 'I' for Inactive)
REMARK    1  A    between atoms: C_1  and  N_3
REMARK    2  A    between atoms: C_1  and  C_10
REMARK    3  A    between atoms: N_3  and  C_6
REMARK    4  A    between atoms: C_6  and  C_7
REMARK    5  A    between atoms: C_7  and  C_9
REMARK    6  A    between atoms: C_10  and  C_11
REMARK                            x       y       z     vdW  Elec       q    Type
REMARK                         _______ _______ _______ _____ _____    ______ ____
ROOT
ATOM      1  C   UNL     1      34.937 -18.058 -23.039  0.00  0.00    -0.058 C 
ATOM      2  C   UNL     1      34.911 -19.011 -24.236  0.00  0.00    -0.023 C 
ENDROOT
BRANCH   1   3
ATOM      3  N   UNL     1      35.526 -16.788 -23.474  0.00  0.00    +0.385 N 
ATOM      4  H   UNL     1      36.273 -16.977 -24.142  0.00  0.00    -0.084 HD
ATOM      5  H   UNL     1      35.896 -16.302 -22.657  0.00  0.00    -0.084 HD
BRANCH   3   6
ATOM      6  C   UNL     1      34.522 -15.947 -24.104  0.00  0.00    -0.080 C 
BRANCH   6   7
ATOM      7  C   UNL     1      33.623 -15.310 -23.045  0.00  0.00    -0.006 C 
BRANCH   7   9
ATOM      8 CL   UNL     1      34.440 -15.423 -20.457  0.00  0.00    -0.114 Cl
ATOM      9  C   UNL     1      34.450 -14.557 -22.011  0.00  0.00    +0.093 C 
ENDBRANCH   7   9
ENDBRANCH   6   7
ENDBRANCH   3   6
ENDBRANCH   1   3
BRANCH   1  10
ATOM     10  C   UNL     1      35.744 -18.621 -21.855  0.00  0.00    +0.005 C 
BRANCH  10  11
ATOM     11  C   UNL     1      34.975 -19.612 -21.014  0.00  0.00    -0.024 C 
ATOM     12  C   UNL     1      35.664 -20.600 -20.330  0.00  0.00    -0.004 C 
ATOM     13  C   UNL     1      33.596 -19.512 -20.941  0.00  0.00    -0.004 C 
ATOM     14  C   UNL     1      34.953 -21.515 -19.553  0.00  0.00    -0.000 C 
ATOM     15  C   UNL     1      32.884 -20.427 -20.164  0.00  0.00    -0.000 C 
ATOM     16  C   UNL     1      33.563 -21.429 -19.470  0.00  0.00    -0.000 C 
ENDBRANCH  10  11
ENDBRANCH   1  10
TORSDOF 6
ENDMDL
MODEL 5
REMARK VINA RESULT:      -6.7      3.842      6.573
REMARK  Name = 21777
REMARK  6 active torsions:
REMARK  status: ('A' for Active; 'I' for Inactive)
REMARK    1  A    between atoms: C_1  and  N_3
REMARK    2  A    between atoms: C_1  and  C_10
REMARK    3  A    between atoms: N_3  and  C_6
REMARK    4  A    between atoms: C_6  and  C_7
REMARK    5  A    between atoms: C_7  and  C_9
REMARK    6  A    between atoms: C_10  and  C_11
REMARK                            x       y       z     vdW  Elec       q    Type
REMARK                         _______ _______ _______ _____ _____    ______ ____
ROOT
ATOM      1  C   UNL     1      34.713 -19.965 -20.884  0.00  0.00    -0.058 C 
ATOM      2  C   UNL     1      33.282 -20.215 -20.404  0.00  0.00    -0.023 C 
ENDROOT
BRANCH   1   3
ATOM      3  N   UNL     1      35.636 -20.505 -19.882  0.00  0.00    +0.385 N 
ATOM      4  H   UNL     1      35.591 -19.930 -19.041  0.00  0.00    -0.084 HD
ATOM      5  H   UNL     1      36.581 -20.493 -20.267  0.00  0.00    -0.084 HD
BRANCH   3   6
ATOM      6  C   UNL     1      35.285 -21.874 -19.546  0.00  0.00    -0.080 C 
BRANCH   6   7
ATOM      7  C   UNL     1      35.502 -22.127 -18.055  0.00  0.00    -0.006 C 
BRANCH   7   9
ATOM      8 CL   UNL     1      37.446 -22.607 -16.220  0.00  0.00    -0.114 Cl
ATOM      9  C   UNL     1      36.886 -21.664 -17.620  0.00  0.00    +0.093 C 
ENDBRANCH   7   9
ENDBRANCH   6   7
ENDBRANCH   3   6
ENDBRANCH   1   3
BRANCH   1  10
ATOM     10  C   UNL     1      35.008 -18.470 -21.104  0.00  0.00    +0.005 C 
BRANCH  10  11
ATOM     11  C   UNL     1      34.869 -18.030 -22.542  0.00  0.00    -0.024 C 
ATOM     12  C   UNL     1      34.658 -18.983 -23.525  0.00  0.00    -0.004 C 
ATOM     13  C   UNL     1      34.953 -16.682 -22.850  0.00  0.00    -0.004 C 
ATOM     14  C   UNL     1      34.529 -18.577 -24.854  0.00  0.00    -0.000 C 
ATOM     15  C   UNL     1      34.824 -16.275 -24.179  0.00  0.00    -0.000 C 
ATOM     16  C   UNL     1      34.612 -17.223 -25.180  0.00  0.00    -0.000 C 
ENDBRANCH  10  11
ENDBRANCH   1  10
TORSDOF 6
ENDMDL
MODEL 6
REMARK VINA RESULT:      -6.5      5.545      8.157
REMARK  Name = 21777
REMARK  6 active torsions:
REMARK  status: ('A' for Active; 'I' for Inactive)
REMARK    1  A    between atoms: C_1  and  N_3
REMARK    2  A    between atoms: C_1  and  C_10
REMARK    3  A    between atoms: N_3  and  C_6
REMARK    4  A    between atoms: C_6  and  C_7
REMARK    5  A    between atoms: C_7  and  C_9
REMARK    6  A    between atoms: C_10  and  C_11
REMARK                            x       y       z     vdW  Elec       q    Type
REMARK                         _______ _______ _______ _____ _____    ______ ____
ROOT
ATOM      1  C   UNL     1      33.518 -22.820 -17.227  0.00  0.00    -0.058 C 
ATOM      2  C   UNL     1      34.688 -23.101 -16.282  0.00  0.00    -0.023 C 
ENDROOT
BRANCH   1   3
ATOM      3  N   UNL     1      32.403 -23.694 -16.851  0.00  0.00    +0.385 N 
ATOM      4  H   UNL     1      32.693 -24.294 -16.080  0.00  0.00    -0.084 HD
ATOM      5  H   UNL     1      32.142 -24.259 -17.660  0.00  0.00    -0.084 HD
BRANCH   3   6
ATOM      6  C   UNL     1      31.252 -22.908 -16.439  0.00  0.00    -0.080 C 
BRANCH   6   7
ATOM      7  C   UNL     1      31.112 -22.930 -14.918  0.00  0.00    -0.006 C 
BRANCH   7   9
ATOM      8 CL   UNL     1      30.103 -25.442 -14.690  0.00  0.00    -0.114 Cl
ATOM      9  C   UNL     1      31.436 -24.311 -14.362  0.00  0.00    +0.093 C 
ENDBRANCH   7   9
ENDBRANCH   6   7
ENDBRANCH   3   6
ENDBRANCH   1   3
BRANCH   1  10
ATOM     10  C   UNL     1      33.883 -23.057 -18.704  0.00  0.00    +0.005 C 
BRANCH  10  11
ATOM     11  C   UNL     1      34.091 -21.784 -19.488  0.00  0.00    -0.024 C 
ATOM     12  C   UNL     1      32.990 -21.042 -19.883  0.00  0.00    -0.004 C 
ATOM     13  C   UNL     1      35.380 -21.380 -19.796  0.00  0.00    -0.004 C 
ATOM     14  C   UNL     1      33.183 -19.865 -20.607  0.00  0.00    -0.000 C 
ATOM     15  C   UNL     1      35.574 -20.203 -20.520  0.00  0.00    -0.000 C 
ATOM     16  C   UNL     1      34.475 -19.446 -20.925  0.00  0.00    -0.000 C 
ENDBRANCH  10  11
ENDBRANCH   1  10
TORSDOF 6
ENDMDL
MODEL 7
REMARK VINA RESULT:      -6.5      5.224      8.018
REMARK  Name = 21777
REMARK  6 active torsions:
REMARK  status: ('A' for Active; 'I' for Inactive)
REMARK    1  A    between atoms: C_1  and  N_3
REMARK    2  A    between atoms: C_1  and  C_10
REMARK    3  A    between atoms: N_3  and  C_6
REMARK    4  A    between atoms: C_6  and  C_7
REMARK    5  A    between atoms: C_7  and  C_9
REMARK    6  A    between atoms: C_10  and  C_11
REMARK                            x       y       z     vdW  Elec       q    Type
REMARK                         _______ _______ _______ _____ _____    ______ ____
ROOT
ATOM      1  C   UNL     1      33.393 -22.837 -17.066  0.00  0.00    -0.058 C 
ATOM      2  C   UNL     1      34.276 -23.597 -16.075  0.00  0.00    -0.023 C 
ENDROOT
BRANCH   1   3
ATOM      3  N   UNL     1      31.996 -23.194 -16.805  0.00  0.00    +0.385 N 
ATOM      4  H   UNL     1      31.766 -24.046 -17.316  0.00  0.00    -0.084 HD
ATOM      5  H   UNL     1      31.398 -22.426 -17.113  0.00  0.00    -0.084 HD
BRANCH   3   6
ATOM      6  C   UNL     1      31.779 -23.415 -15.385  0.00  0.00    -0.080 C 
BRANCH   6   7
ATOM      7  C   UNL     1      30.429 -22.841 -14.958  0.00  0.00    -0.006 C 
BRANCH   7   9
ATOM      8 CL   UNL     1      27.852 -22.366 -15.673  0.00  0.00    -0.114 Cl
ATOM      9  C   UNL     1      29.308 -23.375 -15.841  0.00  0.00    +0.093 C 
ENDBRANCH   7   9
ENDBRANCH   6   7
ENDBRANCH   3   6
ENDBRANCH   1   3
BRANCH   1  10
ATOM     10  C   UNL     1      33.741 -23.157 -18.531  0.00  0.00    +0.005 C 
BRANCH  10  11
ATOM     11  C   UNL     1      34.147 -21.945 -19.335  0.00  0.00    -0.024 C 
ATOM     12  C   UNL     1      35.493 -21.690 -19.547  0.00  0.00    -0.004 C 
ATOM     13  C   UNL     1      33.167 -21.112 -19.848  0.00  0.00    -0.004 C 
ATOM     14  C   UNL     1      35.868 -20.571 -20.290  0.00  0.00    -0.000 C 
ATOM     15  C   UNL     1      33.541 -19.992 -20.592  0.00  0.00    -0.000 C 
ATOM     16  C   UNL     1      34.892 -19.721 -20.813  0.00  0.00    -0.000 C 
ENDBRANCH  10  11
ENDBRANCH   1  10
TORSDOF 6
ENDMDL
MODEL 8
REMARK VINA RESULT:      -6.5      2.873      6.093
REMARK  Name = 21777
REMARK  6 active torsions:
REMARK  status: ('A' for Active; 'I' for Inactive)
REMARK    1  A    between atoms: C_1  and  N_3
REMARK    2  A    between atoms: C_1  and  C_10
REMARK    3  A    between atoms: N_3  and  C_6
REMARK    4  A    between atoms: C_6  and  C_7
REMARK    5  A    between atoms: C_7  and  C_9
REMARK    6  A    between atoms: C_10  and  C_11
REMARK                            x       y       z     vdW  Elec       q    Type
REMARK                         _______ _______ _______ _____ _____    ______ ____
ROOT
ATOM      1  C   UNL     1      35.290 -18.087 -21.712  0.00  0.00    -0.058 C 
ATOM      2  C   UNL     1      34.842 -19.038 -22.823  0.00  0.00    -0.023 C 
ENDROOT
BRANCH   1   3
ATOM      3  N   UNL     1      36.018 -18.865 -20.705  0.00  0.00    +0.385 N 
ATOM      4  H   UNL     1      35.698 -18.592 -19.776  0.00  0.00    -0.084 HD
ATOM      5  H   UNL     1      37.016 -18.678 -20.804  0.00  0.00    -0.084 HD
BRANCH   3   6
ATOM      6  C   UNL     1      35.788 -20.287 -20.892  0.00  0.00    -0.080 C 
BRANCH   6   7
ATOM      7  C   UNL     1      35.610 -20.978 -19.541  0.00  0.00    -0.006 C 
BRANCH   7   9
ATOM      8 CL   UNL     1      32.946 -20.585 -19.896  0.00  0.00    -0.114 Cl
ATOM      9  C   UNL     1      34.268 -21.696 -19.469  0.00  0.00    +0.093 C 
ENDBRANCH   7   9
ENDBRANCH   6   7
ENDBRANCH   3   6
ENDBRANCH   1   3
BRANCH   1  10
ATOM     10  C   UNL     1      34.108 -17.360 -21.046  0.00  0.00    +0.005 C 
BRANCH  10  11
ATOM     11  C   UNL     1      33.796 -16.019 -21.665  0.00  0.00    -0.024 C 
ATOM     12  C   UNL     1      34.606 -15.534 -22.679  0.00  0.00    -0.004 C 
ATOM     13  C   UNL     1      32.703 -15.299 -21.209  0.00  0.00    -0.004 C 
ATOM     14  C   UNL     1      34.317 -14.294 -23.251  0.00  0.00    -0.000 C 
ATOM     15  C   UNL     1      32.414 -14.060 -21.781  0.00  0.00    -0.000 C 
ATOM     16  C   UNL     1      33.221 -13.557 -22.802  0.00  0.00    -0.000 C 
ENDBRANCH  10  11
ENDBRANCH   1  10
TORSDOF 6
ENDMDL
MODEL 9
REMARK VINA RESULT:      -6.4      2.843      6.772
REMARK  Name = 21777
REMARK  6 active torsions:
REMARK  status: ('A' for Active; 'I' for Inactive)
REMARK    1  A    between atoms: C_1  and  N_3
REMARK    2  A    between atoms: C_1  and  C_10
REMARK    3  A    between atoms: N_3  and  C_6
REMARK    4  A    between atoms: C_6  and  C_7
REMARK    5  A    between atoms: C_7  and  C_9
REMARK    6  A    between atoms: C_10  and  C_11
REMARK                            x       y       z     vdW  Elec       q    Type
REMARK                         _______ _______ _______ _____ _____    ______ ____
ROOT
ATOM      1  C   UNL     1      33.697 -15.649 -22.015  0.00  0.00    -0.058 C 
ATOM      2  C   UNL     1      32.633 -15.494 -20.926  0.00  0.00    -0.023 C 
ENDROOT
BRANCH   1   3
ATOM      3  N   UNL     1      34.825 -16.397 -21.453  0.00  0.00    +0.385 N 
ATOM      4  H   UNL     1      34.504 -16.930 -20.645  0.00  0.00    -0.084 HD
ATOM      5  H   UNL     1      35.551 -15.737 -21.175  0.00  0.00    -0.084 HD
BRANCH   3   6
ATOM      6  C   UNL     1      35.377 -17.310 -22.439  0.00  0.00    -0.080 C 
BRANCH   6   7
ATOM      7  C   UNL     1      34.616 -18.636 -22.420  0.00  0.00    -0.006 C 
BRANCH   7   9
ATOM      8 CL   UNL     1      32.859 -19.790 -20.699  0.00  0.00    -0.114 Cl
ATOM      9  C   UNL     1      34.502 -19.177 -21.001  0.00  0.00    +0.093 C 
ENDBRANCH   7   9
ENDBRANCH   6   7
ENDBRANCH   3   6
ENDBRANCH   1   3
BRANCH   1  10
ATOM     10  C   UNL     1      34.193 -14.294 -22.551  0.00  0.00    +0.005 C 
BRANCH  10  11
ATOM     11  C   UNL     1      33.824 -14.042 -23.993  0.00  0.00    -0.024 C 
ATOM     12  C   UNL     1      33.820 -12.743 -24.476  0.00  0.00    -0.004 C 
ATOM     13  C   UNL     1      33.498 -15.114 -24.808  0.00  0.00    -0.004 C 
ATOM     14  C   UNL     1      33.479 -12.510 -25.808  0.00  0.00    -0.000 C 
ATOM     15  C   UNL     1      33.157 -14.882 -26.140  0.00  0.00    -0.000 C 
ATOM     16  C   UNL     1      33.147 -13.580 -26.641  0.00  0.00    -0.000 C 
ENDBRANCH  10  11
ENDBRANCH   1  10
TORSDOF 6
ENDMDL
