MODEL 1
REMARK VINA RESULT:     -11.1      0.000      0.000
REMARK  Name = 72165228
REMARK  6 active torsions:
REMARK  status: ('A' for Active; 'I' for Inactive)
REMARK    1  A    between atoms: C_3  and  C_9
REMARK    2  A    between atoms: C_5  and  C_22
REMARK    3  A    between atoms: C_14  and  O_18
REMARK    4  A    between atoms: N_21  and  C_24
REMARK    5  A    between atoms: C_29  and  O_30
REMARK    6  A    between atoms: O_30  and  C_34
REMARK                            x       y       z     vdW  Elec       q    Type
REMARK                         _______ _______ _______ _____ _____    ______ ____
ROOT
ATOM      1  N   UNL     1      37.419 -22.763 -16.032  0.00  0.00    -0.229 NA
ATOM      2  C   UNL     1      36.447 -23.227 -15.215  0.00  0.00    +0.133 C 
ATOM      3  C   UNL     1      35.105 -23.281 -15.558  0.00  0.00    +0.047 C 
ATOM      4  C   UNL     1      34.738 -22.832 -16.821  0.00  0.00    +0.010 C 
ATOM      5  C   UNL     1      35.709 -22.348 -17.691  0.00  0.00    +0.073 C 
ATOM      6  C   UNL     1      37.024 -22.334 -17.252  0.00  0.00    +0.105 C 
ATOM      7  N   UNL     1      36.827 -23.668 -13.965  0.00  0.00    -0.291 N 
ATOM      8  C   UNL     1      37.630 -25.053 -12.236  0.00  0.00    +0.132 C 
ATOM      9  C   UNL     1      37.264 -23.697 -11.652  0.00  0.00    +0.052 C 
ATOM     10  C   UNL     1      37.758 -24.775 -13.733  0.00  0.00    +0.121 C 
ATOM     11  C   UNL     1      36.341 -23.096 -12.713  0.00  0.00    +0.095 C 
ENDROOT
BRANCH   3  14
ATOM     12  N   UNL     1      33.160 -22.974 -14.071  0.00  0.00    -0.236 N 
ATOM     13  N   UNL     1      32.304 -23.629 -13.269  0.00  0.00    -0.180 NA
ATOM     14  C   UNL     1      34.091 -23.780 -14.659  0.00  0.00    +0.069 C 
ATOM     15  C   UNL     1      33.824 -25.051 -14.211  0.00  0.00    +0.038 C 
ATOM     16  C   UNL     1      32.714 -24.897 -13.359  0.00  0.00    +0.119 C 
ATOM     17  H   UNL     1      33.120 -22.002 -14.221  0.00  0.00    +0.174 HD
ENDBRANCH   3  14
BRANCH   5  20
ATOM     18  O   UNL     1      34.771 -22.636 -19.800  0.00  0.00    -0.270 OA
ATOM     19  N   UNL     1      35.744 -20.556 -19.318  0.00  0.00    -0.280 N 
ATOM     20  C   UNL     1      35.358 -21.871 -19.017  0.00  0.00    +0.251 C 
ATOM     21  H   UNL     1      36.202 -20.070 -18.596  0.00  0.00    +0.155 HD
BRANCH  19  22
ATOM     22  C   UNL     1      35.561 -19.837 -20.525  0.00  0.00    +0.051 C 
ATOM     23  C   UNL     1      34.322 -19.855 -21.166  0.00  0.00    +0.018 C 
ATOM     24  C   UNL     1      36.619 -19.112 -21.072  0.00  0.00    +0.018 C 
ATOM     25  C   UNL     1      34.142 -19.147 -22.354  0.00  0.00    +0.038 C 
ATOM     26  C   UNL     1      36.440 -18.403 -22.259  0.00  0.00    +0.038 C 
ATOM     27  C   UNL     1      35.201 -18.421 -22.902  0.00  0.00    +0.145 C 
BRANCH  27  28
ATOM     28  O   UNL     1      35.024 -17.730 -24.060  0.00  0.00    -0.418 OA
BRANCH  28  32
ATOM     29 CL   UNL     1      33.791 -15.954 -25.538  0.00  0.00    +0.000 Cl
ATOM     30  F   UNL     1      33.611 -16.288 -23.005  0.00  0.00    -0.149 F 
ATOM     31  F   UNL     1      35.551 -15.539 -23.723  0.00  0.00    -0.149 F 
ATOM     32  C   UNL     1      34.532 -16.390 -23.994  0.00  0.00    +0.489 C 
ENDBRANCH  28  32
ENDBRANCH  27  28
ENDBRANCH  19  22
ENDBRANCH   5  20
BRANCH   8  33
ATOM     33  O   UNL     1      36.575 -25.983 -12.020  0.00  0.00    -0.383 OA
ATOM     34  H   UNL     1      36.396 -26.054 -11.070  0.00  0.00    +0.210 HD
ENDBRANCH   8  33
TORSDOF 6
ENDMDL
MODEL 2
REMARK VINA RESULT:     -10.4      7.023     12.878
REMARK  Name = 72165228
REMARK  6 active torsions:
REMARK  status: ('A' for Active; 'I' for Inactive)
REMARK    1  A    between atoms: C_3  and  C_9
REMARK    2  A    between atoms: C_5  and  C_22
REMARK    3  A    between atoms: C_14  and  O_18
REMARK    4  A    between atoms: N_21  and  C_24
REMARK    5  A    between atoms: C_29  and  O_30
REMARK    6  A    between atoms: O_30  and  C_34
REMARK                            x       y       z     vdW  Elec       q    Type
REMARK                         _______ _______ _______ _____ _____    ______ ____
ROOT
ATOM      1  N   UNL     1      33.408 -11.127 -24.549  0.00  0.00    -0.229 NA
ATOM      2  C   UNL     1      32.832 -10.618 -23.436  0.00  0.00    +0.133 C 
ATOM      3  C   UNL     1      32.507 -11.370 -22.318  0.00  0.00    +0.047 C 
ATOM      4  C   UNL     1      32.791 -12.731 -22.343  0.00  0.00    +0.010 C 
ATOM      5  C   UNL     1      33.382 -13.291 -23.469  0.00  0.00    +0.073 C 
ATOM      6  C   UNL     1      33.668 -12.454 -24.537  0.00  0.00    +0.105 C 
ATOM      7  N   UNL     1      32.556  -9.268 -23.427  0.00  0.00    -0.291 N 
ATOM      8  C   UNL     1      32.824  -6.936 -23.209  0.00  0.00    +0.132 C 
ATOM      9  C   UNL     1      31.392  -7.232 -23.630  0.00  0.00    +0.052 C 
ATOM     10  C   UNL     1      33.572  -8.221 -23.562  0.00  0.00    +0.121 C 
ATOM     11  C   UNL     1      31.217  -8.707 -23.268  0.00  0.00    +0.095 C 
ENDROOT
BRANCH   3  14
ATOM     12  N   UNL     1      32.408  -9.717 -20.488  0.00  0.00    -0.236 N 
ATOM     13  N   UNL     1      31.687  -9.334 -19.421  0.00  0.00    -0.180 NA
ATOM     14  C   UNL     1      31.890 -10.795 -21.145  0.00  0.00    +0.069 C 
ATOM     15  C   UNL     1      30.751 -11.140 -20.460  0.00  0.00    +0.038 C 
ATOM     16  C   UNL     1      30.676 -10.207 -19.408  0.00  0.00    +0.119 C 
ATOM     17  H   UNL     1      33.234  -9.263 -20.770  0.00  0.00    +0.174 HD
ENDBRANCH   3  14
BRANCH   5  20
ATOM     18  O   UNL     1      33.504 -15.326 -24.589  0.00  0.00    -0.270 OA
ATOM     19  N   UNL     1      34.168 -15.282 -22.339  0.00  0.00    -0.280 N 
ATOM     20  C   UNL     1      33.691 -14.709 -23.528  0.00  0.00    +0.251 C 
ATOM     21  H   UNL     1      34.267 -14.667 -21.578  0.00  0.00    +0.155 HD
BRANCH  19  22
ATOM     22  C   UNL     1      34.526 -16.630 -22.091  0.00  0.00    +0.051 C 
ATOM     23  C   UNL     1      33.760 -17.406 -21.221  0.00  0.00    +0.018 C 
ATOM     24  C   UNL     1      35.644 -17.182 -22.717  0.00  0.00    +0.018 C 
ATOM     25  C   UNL     1      34.112 -18.733 -20.976  0.00  0.00    +0.038 C 
ATOM     26  C   UNL     1      35.996 -18.509 -22.473  0.00  0.00    +0.038 C 
ATOM     27  C   UNL     1      35.230 -19.285 -21.601  0.00  0.00    +0.145 C 
BRANCH  27  28
ATOM     28  O   UNL     1      35.572 -20.581 -21.363  0.00  0.00    -0.418 OA
BRANCH  28  32
ATOM     29 CL   UNL     1      35.162 -21.592 -18.983  0.00  0.00    +0.000 Cl
ATOM     30  F   UNL     1      37.267 -21.784 -20.430  0.00  0.00    -0.149 F 
ATOM     31  F   UNL     1      36.838 -19.772 -19.650  0.00  0.00    -0.149 F 
ATOM     32  C   UNL     1      36.279 -20.896 -20.163  0.00  0.00    +0.489 C 
ENDBRANCH  28  32
ENDBRANCH  27  28
ENDBRANCH  19  22
ENDBRANCH   5  20
BRANCH   8  33
ATOM     33  O   UNL     1      32.889  -6.726 -21.803  0.00  0.00    -0.383 OA
ATOM     34  H   UNL     1      32.291  -6.004 -21.556  0.00  0.00    +0.210 HD
ENDBRANCH   8  33
TORSDOF 6
ENDMDL
MODEL 3
REMARK VINA RESULT:     -10.0      8.063     11.989
REMARK  Name = 72165228
REMARK  6 active torsions:
REMARK  status: ('A' for Active; 'I' for Inactive)
REMARK    1  A    between atoms: C_3  and  C_9
REMARK    2  A    between atoms: C_5  and  C_22
REMARK    3  A    between atoms: C_14  and  O_18
REMARK    4  A    between atoms: N_21  and  C_24
REMARK    5  A    between atoms: C_29  and  O_30
REMARK    6  A    between atoms: O_30  and  C_34
REMARK                            x       y       z     vdW  Elec       q    Type
REMARK                         _______ _______ _______ _____ _____    ______ ____
ROOT
ATOM      1  N   UNL     1      33.007 -14.911 -20.339  0.00  0.00    -0.229 NA
ATOM      2  C   UNL     1      33.436 -15.431 -21.512  0.00  0.00    +0.133 C 
ATOM      3  C   UNL     1      33.301 -14.797 -22.736  0.00  0.00    +0.047 C 
ATOM      4  C   UNL     1      32.687 -13.550 -22.760  0.00  0.00    +0.010 C 
ATOM      5  C   UNL     1      32.233 -12.982 -21.575  0.00  0.00    +0.073 C 
ATOM      6  C   UNL     1      32.414 -13.697 -20.402  0.00  0.00    +0.105 C 
ATOM      7  N   UNL     1      34.041 -16.669 -21.472  0.00  0.00    -0.291 N 
ATOM      8  C   UNL     1      35.677 -18.346 -21.217  0.00  0.00    +0.132 C 
ATOM      9  C   UNL     1      34.354 -18.999 -21.587  0.00  0.00    +0.052 C 
ATOM     10  C   UNL     1      35.265 -16.960 -20.722  0.00  0.00    +0.121 C 
ATOM     11  C   UNL     1      33.547 -17.845 -22.182  0.00  0.00    +0.095 C 
ENDROOT
BRANCH   3  14
ATOM     12  N   UNL     1      33.074 -15.292 -25.143  0.00  0.00    -0.236 N 
ATOM     13  N   UNL     1      33.677 -15.900 -26.179  0.00  0.00    -0.180 NA
ATOM     14  C   UNL     1      33.768 -15.381 -23.972  0.00  0.00    +0.069 C 
ATOM     15  C   UNL     1      34.904 -16.097 -24.262  0.00  0.00    +0.038 C 
ATOM     16  C   UNL     1      34.794 -16.391 -25.634  0.00  0.00    +0.119 C 
ATOM     17  H   UNL     1      32.211 -14.825 -25.221  0.00  0.00    +0.174 HD
ENDBRANCH   3  14
BRANCH   5  20
ATOM     18  O   UNL     1      30.450 -11.573 -21.077  0.00  0.00    -0.270 OA
ATOM     19  N   UNL     1      32.314 -10.631 -22.145  0.00  0.00    -0.280 N 
ATOM     20  C   UNL     1      31.587 -11.681 -21.565  0.00  0.00    +0.251 C 
ATOM     21  H   UNL     1      33.204 -10.868 -22.490  0.00  0.00    +0.155 HD
BRANCH  19  22
ATOM     22  C   UNL     1      31.936  -9.275 -22.299  0.00  0.00    +0.051 C 
ATOM     23  C   UNL     1      31.211  -8.877 -23.423  0.00  0.00    +0.018 C 
ATOM     24  C   UNL     1      32.287  -8.338 -21.328  0.00  0.00    +0.018 C 
ATOM     25  C   UNL     1      30.838  -7.541 -23.575  0.00  0.00    +0.038 C 
ATOM     26  C   UNL     1      31.915  -7.002 -21.479  0.00  0.00    +0.038 C 
ATOM     27  C   UNL     1      31.190  -6.603 -22.603  0.00  0.00    +0.145 C 
BRANCH  27  28
ATOM     28  O   UNL     1      30.825  -5.301 -22.752  0.00  0.00    -0.418 OA
BRANCH  28  32
ATOM     29 CL   UNL     1      31.578  -2.871 -23.374  0.00  0.00    +0.000 Cl
ATOM     30  F   UNL     1      32.549  -5.083 -24.226  0.00  0.00    -0.149 F 
ATOM     31  F   UNL     1      30.506  -4.624 -24.904  0.00  0.00    -0.149 F 
ATOM     32  C   UNL     1      31.357  -4.558 -23.850  0.00  0.00    +0.489 C 
ENDBRANCH  28  32
ENDBRANCH  27  28
ENDBRANCH  19  22
ENDBRANCH   5  20
BRANCH   8  33
ATOM     33  O   UNL     1      36.497 -18.207 -22.372  0.00  0.00    -0.383 OA
ATOM     34  H   UNL     1      37.326 -18.691 -22.240  0.00  0.00    +0.210 HD
ENDBRANCH   8  33
TORSDOF 6
ENDMDL
MODEL 4
REMARK VINA RESULT:      -9.7      5.375     11.875
REMARK  Name = 72165228
REMARK  6 active torsions:
REMARK  status: ('A' for Active; 'I' for Inactive)
REMARK    1  A    between atoms: C_3  and  C_9
REMARK    2  A    between atoms: C_5  and  C_22
REMARK    3  A    between atoms: C_14  and  O_18
REMARK    4  A    between atoms: N_21  and  C_24
REMARK    5  A    between atoms: C_29  and  O_30
REMARK    6  A    between atoms: O_30  and  C_34
REMARK                            x       y       z     vdW  Elec       q    Type
REMARK                         _______ _______ _______ _____ _____    ______ ____
ROOT
ATOM      1  N   UNL     1      34.298 -16.814 -24.843  0.00  0.00    -0.229 NA
ATOM      2  C   UNL     1      33.853 -15.566 -24.569  0.00  0.00    +0.133 C 
ATOM      3  C   UNL     1      33.693 -15.064 -23.287  0.00  0.00    +0.047 C 
ATOM      4  C   UNL     1      34.010 -15.895 -22.218  0.00  0.00    +0.010 C 
ATOM      5  C   UNL     1      34.470 -17.184 -22.460  0.00  0.00    +0.073 C 
ATOM      6  C   UNL     1      34.595 -17.592 -23.778  0.00  0.00    +0.105 C 
ATOM      7  N   UNL     1      33.543 -14.755 -25.639  0.00  0.00    -0.291 N 
ATOM      8  C   UNL     1      33.770 -13.256 -27.443  0.00  0.00    +0.132 C 
ATOM      9  C   UNL     1      32.305 -13.643 -27.305  0.00  0.00    +0.052 C 
ATOM     10  C   UNL     1      34.503 -14.349 -26.668  0.00  0.00    +0.121 C 
ATOM     11  C   UNL     1      32.219 -14.186 -25.878  0.00  0.00    +0.095 C 
ENDROOT
BRANCH   3  14
ATOM     12  N   UNL     1      33.813 -12.613 -23.540  0.00  0.00    -0.236 N 
ATOM     13  N   UNL     1      33.216 -11.463 -23.183  0.00  0.00    -0.180 NA
ATOM     14  C   UNL     1      33.214 -13.726 -23.028  0.00  0.00    +0.069 C 
ATOM     15  C   UNL     1      32.151 -13.273 -22.285  0.00  0.00    +0.038 C 
ATOM     16  C   UNL     1      32.201 -11.873 -22.416  0.00  0.00    +0.119 C 
ATOM     17  H   UNL     1      34.609 -12.648 -24.118  0.00  0.00    +0.174 HD
ENDBRANCH   3  14
BRANCH   5  20
ATOM     18  O   UNL     1      35.710 -17.750 -20.574  0.00  0.00    -0.270 OA
ATOM     19  N   UNL     1      34.086 -19.277 -21.306  0.00  0.00    -0.280 N 
ATOM     20  C   UNL     1      34.809 -18.077 -21.365  0.00  0.00    +0.251 C 
ATOM     21  H   UNL     1      33.401 -19.398 -22.002  0.00  0.00    +0.155 HD
BRANCH  19  22
ATOM     22  C   UNL     1      34.212 -20.339 -20.377  0.00  0.00    +0.051 C 
ATOM     23  C   UNL     1      35.474 -20.834 -20.050  0.00  0.00    +0.018 C 
ATOM     24  C   UNL     1      33.073 -20.890 -19.788  0.00  0.00    +0.018 C 
ATOM     25  C   UNL     1      35.598 -21.879 -19.135  0.00  0.00    +0.038 C 
ATOM     26  C   UNL     1      33.196 -21.935 -18.873  0.00  0.00    +0.038 C 
ATOM     27  C   UNL     1      34.460 -22.431 -18.547  0.00  0.00    +0.145 C 
BRANCH  27  28
ATOM     28  O   UNL     1      34.581 -23.450 -17.653  0.00  0.00    -0.418 OA
BRANCH  28  32
ATOM     29 CL   UNL     1      35.089 -24.567 -15.340  0.00  0.00    +0.000 Cl
ATOM     30  F   UNL     1      35.427 -22.117 -16.010  0.00  0.00    -0.149 F 
ATOM     31  F   UNL     1      33.333 -22.778 -15.870  0.00  0.00    -0.149 F 
ATOM     32  C   UNL     1      34.578 -23.146 -16.258  0.00  0.00    +0.489 C 
ENDBRANCH  28  32
ENDBRANCH  27  28
ENDBRANCH  19  22
ENDBRANCH   5  20
BRANCH   8  33
ATOM     33  O   UNL     1      34.006 -11.998 -26.820  0.00  0.00    -0.383 OA
ATOM     34  H   UNL     1      33.196 -11.696 -26.383  0.00  0.00    +0.210 HD
ENDBRANCH   8  33
TORSDOF 6
ENDMDL
MODEL 5
REMARK VINA RESULT:      -9.6      1.834      3.395
REMARK  Name = 72165228
REMARK  6 active torsions:
REMARK  status: ('A' for Active; 'I' for Inactive)
REMARK    1  A    between atoms: C_3  and  C_9
REMARK    2  A    between atoms: C_5  and  C_22
REMARK    3  A    between atoms: C_14  and  O_18
REMARK    4  A    between atoms: N_21  and  C_24
REMARK    5  A    between atoms: C_29  and  O_30
REMARK    6  A    between atoms: O_30  and  C_34
REMARK                            x       y       z     vdW  Elec       q    Type
REMARK                         _______ _______ _______ _____ _____    ______ ____
ROOT
ATOM      1  N   UNL     1      33.181 -22.724 -17.767  0.00  0.00    -0.229 NA
ATOM      2  C   UNL     1      34.091 -22.973 -16.797  0.00  0.00    +0.133 C 
ATOM      3  C   UNL     1      35.418 -22.583 -16.860  0.00  0.00    +0.047 C 
ATOM      4  C   UNL     1      35.841 -21.890 -17.990  0.00  0.00    +0.010 C 
ATOM      5  C   UNL     1      34.935 -21.614 -19.008  0.00  0.00    +0.073 C 
ATOM      6  C   UNL     1      33.629 -22.049 -18.850  0.00  0.00    +0.105 C 
ATOM      7  N   UNL     1      33.657 -23.662 -15.684  0.00  0.00    -0.291 N 
ATOM      8  C   UNL     1      32.693 -24.131 -13.585  0.00  0.00    +0.132 C 
ATOM      9  C   UNL     1      33.209 -25.427 -14.192  0.00  0.00    +0.052 C 
ATOM     10  C   UNL     1      32.604 -23.186 -14.783  0.00  0.00    +0.121 C 
ATOM     11  C   UNL     1      34.200 -24.947 -15.253  0.00  0.00    +0.095 C 
ENDROOT
BRANCH   3  14
ATOM     12  N   UNL     1      37.550 -23.507 -16.030  0.00  0.00    -0.236 N 
ATOM     13  N   UNL     1      38.291 -23.677 -14.921  0.00  0.00    -0.180 NA
ATOM     14  C   UNL     1      36.365 -22.867 -15.807  0.00  0.00    +0.069 C 
ATOM     15  C   UNL     1      36.329 -22.601 -14.460  0.00  0.00    +0.038 C 
ATOM     16  C   UNL     1      37.540 -23.122 -13.966  0.00  0.00    +0.119 C 
ATOM     17  H   UNL     1      37.836 -23.814 -16.920  0.00  0.00    +0.174 HD
ENDBRANCH   3  14
BRANCH   5  20
ATOM     18  O   UNL     1      36.421 -21.186 -20.745  0.00  0.00    -0.270 OA
ATOM     19  N   UNL     1      34.473 -19.883 -20.636  0.00  0.00    -0.280 N 
ATOM     20  C   UNL     1      35.344 -20.893 -20.200  0.00  0.00    +0.251 C 
ATOM     21  H   UNL     1      33.655 -19.766 -20.103  0.00  0.00    +0.155 HD
BRANCH  19  22
ATOM     22  C   UNL     1      34.618 -19.009 -21.741  0.00  0.00    +0.051 C 
ATOM     23  C   UNL     1      34.571 -19.514 -23.040  0.00  0.00    +0.018 C 
ATOM     24  C   UNL     1      34.807 -17.643 -21.530  0.00  0.00    +0.018 C 
ATOM     25  C   UNL     1      34.713 -18.653 -24.129  0.00  0.00    +0.038 C 
ATOM     26  C   UNL     1      34.950 -16.782 -22.617  0.00  0.00    +0.038 C 
ATOM     27  C   UNL     1      34.903 -17.287 -23.918  0.00  0.00    +0.145 C 
BRANCH  27  28
ATOM     28  O   UNL     1      35.041 -16.448 -24.980  0.00  0.00    -0.418 OA
BRANCH  28  32
ATOM     29 CL   UNL     1      33.196 -14.734 -24.261  0.00  0.00    +0.000 Cl
ATOM     30  F   UNL     1      34.211 -15.065 -26.590  0.00  0.00    -0.149 F 
ATOM     31  F   UNL     1      32.957 -16.720 -25.861  0.00  0.00    -0.149 F 
ATOM     32  C   UNL     1      33.880 -15.796 -25.497  0.00  0.00    +0.489 C 
ENDBRANCH  28  32
ENDBRANCH  27  28
ENDBRANCH  19  22
ENDBRANCH   5  20
BRANCH   8  33
ATOM     33  O   UNL     1      33.634 -23.616 -12.650  0.00  0.00    -0.383 OA
ATOM     34  H   UNL     1      34.533 -23.754 -12.987  0.00  0.00    +0.210 HD
ENDBRANCH   8  33
TORSDOF 6
ENDMDL
MODEL 6
REMARK VINA RESULT:      -9.1      6.633     13.006
REMARK  Name = 72165228
REMARK  6 active torsions:
REMARK  status: ('A' for Active; 'I' for Inactive)
REMARK    1  A    between atoms: C_3  and  C_9
REMARK    2  A    between atoms: C_5  and  C_22
REMARK    3  A    between atoms: C_14  and  O_18
REMARK    4  A    between atoms: N_21  and  C_24
REMARK    5  A    between atoms: C_29  and  O_30
REMARK    6  A    between atoms: O_30  and  C_34
REMARK                            x       y       z     vdW  Elec       q    Type
REMARK                         _______ _______ _______ _____ _____    ______ ____
ROOT
ATOM      1  N   UNL     1      31.713 -11.702 -21.197  0.00  0.00    -0.229 NA
ATOM      2  C   UNL     1      32.380 -11.237 -22.279  0.00  0.00    +0.133 C 
ATOM      3  C   UNL     1      33.178 -12.024 -23.094  0.00  0.00    +0.047 C 
ATOM      4  C   UNL     1      33.299 -13.373 -22.781  0.00  0.00    +0.010 C 
ATOM      5  C   UNL     1      32.628 -13.888 -21.677  0.00  0.00    +0.073 C 
ATOM      6  C   UNL     1      31.856 -13.018 -20.924  0.00  0.00    +0.105 C 
ATOM      7  N   UNL     1      32.250  -9.897 -22.575  0.00  0.00    -0.291 N 
ATOM      8  C   UNL     1      31.390  -7.870 -23.414  0.00  0.00    +0.132 C 
ATOM      9  C   UNL     1      32.692  -7.587 -22.680  0.00  0.00    +0.052 C 
ATOM     10  C   UNL     1      30.977  -9.246 -22.893  0.00  0.00    +0.121 C 
ATOM     11  C   UNL     1      33.367  -8.958 -22.623  0.00  0.00    +0.095 C 
ENDROOT
BRANCH   3  14
ATOM     12  N   UNL     1      34.921 -10.622 -24.135  0.00  0.00    -0.236 N 
ATOM     13  N   UNL     1      35.439 -10.248 -25.317  0.00  0.00    -0.180 NA
ATOM     14  C   UNL     1      33.879 -11.496 -24.241  0.00  0.00    +0.069 C 
ATOM     15  C   UNL     1      33.703 -11.709 -25.587  0.00  0.00    +0.038 C 
ATOM     16  C   UNL     1      34.691 -10.915 -26.200  0.00  0.00    +0.119 C 
ATOM     17  H   UNL     1      35.262 -10.295 -23.271  0.00  0.00    +0.174 HD
ENDBRANCH   3  14
BRANCH   5  20
ATOM     18  O   UNL     1      31.781 -15.845 -20.750  0.00  0.00    -0.270 OA
ATOM     19  N   UNL     1      33.947 -15.917 -21.647  0.00  0.00    -0.280 N 
ATOM     20  C   UNL     1      32.734 -15.292 -21.323  0.00  0.00    +0.251 C 
ATOM     21  H   UNL     1      34.611 -15.351 -22.102  0.00  0.00    +0.155 HD
BRANCH  19  22
ATOM     22  C   UNL     1      34.343 -17.256 -21.406  0.00  0.00    +0.051 C 
ATOM     23  C   UNL     1      35.686 -17.555 -21.176  0.00  0.00    +0.018 C 
ATOM     24  C   UNL     1      33.390 -18.274 -21.399  0.00  0.00    +0.018 C 
ATOM     25  C   UNL     1      36.076 -18.873 -20.938  0.00  0.00    +0.038 C 
ATOM     26  C   UNL     1      33.779 -19.592 -21.161  0.00  0.00    +0.038 C 
ATOM     27  C   UNL     1      35.123 -19.892 -20.931  0.00  0.00    +0.145 C 
BRANCH  27  28
ATOM     28  O   UNL     1      35.504 -21.178 -20.698  0.00  0.00    -0.418 OA
BRANCH  28  32
ATOM     29 CL   UNL     1      36.462 -21.691 -18.316  0.00  0.00    +0.000 Cl
ATOM     30  F   UNL     1      34.036 -21.170 -18.955  0.00  0.00    -0.149 F 
ATOM     31  F   UNL     1      34.812 -23.096 -19.683  0.00  0.00    -0.149 F 
ATOM     32  C   UNL     1      35.125 -21.795 -19.467  0.00  0.00    +0.489 C 
ENDBRANCH  28  32
ENDBRANCH  27  28
ENDBRANCH  19  22
ENDBRANCH   5  20
BRANCH   8  33
ATOM     33  O   UNL     1      31.623  -7.950 -24.816  0.00  0.00    -0.383 OA
ATOM     34  H   UNL     1      32.572  -7.853 -24.992  0.00  0.00    +0.210 HD
ENDBRANCH   8  33
TORSDOF 6
ENDMDL
MODEL 7
REMARK VINA RESULT:      -8.5      8.437     14.640
REMARK  Name = 72165228
REMARK  6 active torsions:
REMARK  status: ('A' for Active; 'I' for Inactive)
REMARK    1  A    between atoms: C_3  and  C_9
REMARK    2  A    between atoms: C_5  and  C_22
REMARK    3  A    between atoms: C_14  and  O_18
REMARK    4  A    between atoms: N_21  and  C_24
REMARK    5  A    between atoms: C_29  and  O_30
REMARK    6  A    between atoms: O_30  and  C_34
REMARK                            x       y       z     vdW  Elec       q    Type
REMARK                         _______ _______ _______ _____ _____    ______ ____
ROOT
ATOM      1  N   UNL     1      31.024  -9.642 -21.725  0.00  0.00    -0.229 NA
ATOM      2  C   UNL     1      31.776  -8.719 -22.367  0.00  0.00    +0.133 C 
ATOM      3  C   UNL     1      32.846  -9.026 -23.191  0.00  0.00    +0.047 C 
ATOM      4  C   UNL     1      33.165 -10.368 -23.371  0.00  0.00    +0.010 C 
ATOM      5  C   UNL     1      32.415 -11.347 -22.729  0.00  0.00    +0.073 C 
ATOM      6  C   UNL     1      31.365 -10.936 -21.923  0.00  0.00    +0.105 C 
ATOM      7  N   UNL     1      31.447  -7.393 -22.177  0.00  0.00    -0.291 N 
ATOM      8  C   UNL     1      30.382  -5.303 -22.405  0.00  0.00    +0.132 C 
ATOM      9  C   UNL     1      31.448  -5.199 -21.325  0.00  0.00    +0.052 C 
ATOM     10  C   UNL     1      30.153  -6.809 -22.537  0.00  0.00    +0.121 C 
ATOM     11  C   UNL     1      32.352  -6.399 -21.607  0.00  0.00    +0.095 C 
ENDROOT
BRANCH   3  14
ATOM     12  N   UNL     1      33.085  -7.092 -24.704  0.00  0.00    -0.236 N 
ATOM     13  N   UNL     1      33.982  -6.237 -25.226  0.00  0.00    -0.180 NA
ATOM     14  C   UNL     1      33.630  -8.015 -23.860  0.00  0.00    +0.069 C 
ATOM     15  C   UNL     1      34.977  -7.744 -23.827  0.00  0.00    +0.038 C 
ATOM     16  C   UNL     1      35.135  -6.641 -24.686  0.00  0.00    +0.119 C 
ATOM     17  H   UNL     1      32.124  -7.057 -24.913  0.00  0.00    +0.174 HD
ENDBRANCH   3  14
BRANCH   5  20
ATOM     18  O   UNL     1      32.033 -13.439 -23.672  0.00  0.00    -0.270 OA
ATOM     19  N   UNL     1      33.787 -13.247 -22.125  0.00  0.00    -0.280 N 
ATOM     20  C   UNL     1      32.722 -12.756 -22.895  0.00  0.00    +0.251 C 
ATOM     21  H   UNL     1      34.242 -12.587 -21.555  0.00  0.00    +0.155 HD
BRANCH  19  22
ATOM     22  C   UNL     1      34.295 -14.569 -22.061  0.00  0.00    +0.051 C 
ATOM     23  C   UNL     1      34.671 -15.229 -23.230  0.00  0.00    +0.018 C 
ATOM     24  C   UNL     1      34.417 -15.209 -20.828  0.00  0.00    +0.018 C 
ATOM     25  C   UNL     1      35.170 -16.529 -23.167  0.00  0.00    +0.038 C 
ATOM     26  C   UNL     1      34.916 -16.510 -20.763  0.00  0.00    +0.038 C 
ATOM     27  C   UNL     1      35.293 -17.171 -21.934  0.00  0.00    +0.145 C 
BRANCH  27  28
ATOM     28  O   UNL     1      35.781 -18.440 -21.872  0.00  0.00    -0.418 OA
BRANCH  28  32
ATOM     29 CL   UNL     1      35.261 -20.693 -20.644  0.00  0.00    +0.000 Cl
ATOM     30  F   UNL     1      33.598 -19.079 -21.736  0.00  0.00    -0.149 F 
ATOM     31  F   UNL     1      34.932 -20.143 -23.124  0.00  0.00    -0.149 F 
ATOM     32  C   UNL     1      34.863 -19.533 -21.916  0.00  0.00    +0.489 C 
ENDBRANCH  28  32
ENDBRANCH  27  28
ENDBRANCH  19  22
ENDBRANCH   5  20
BRANCH   8  33
ATOM     33  O   UNL     1      30.879  -4.794 -23.637  0.00  0.00    -0.383 OA
ATOM     34  H   UNL     1      31.844  -4.888 -23.660  0.00  0.00    +0.210 HD
ENDBRANCH   8  33
TORSDOF 6
ENDMDL
MODEL 8
REMARK VINA RESULT:      -8.2      1.620      2.005
REMARK  Name = 72165228
REMARK  6 active torsions:
REMARK  status: ('A' for Active; 'I' for Inactive)
REMARK    1  A    between atoms: C_3  and  C_9
REMARK    2  A    between atoms: C_5  and  C_22
REMARK    3  A    between atoms: C_14  and  O_18
REMARK    4  A    between atoms: N_21  and  C_24
REMARK    5  A    between atoms: C_29  and  O_30
REMARK    6  A    between atoms: O_30  and  C_34
REMARK                            x       y       z     vdW  Elec       q    Type
REMARK                         _______ _______ _______ _____ _____    ______ ____
ROOT
ATOM      1  N   UNL     1      38.472 -23.248 -15.749  0.00  0.00    -0.229 NA
ATOM      2  C   UNL     1      37.367 -23.691 -15.107  0.00  0.00    +0.133 C 
ATOM      3  C   UNL     1      36.085 -23.230 -15.360  0.00  0.00    +0.047 C 
ATOM      4  C   UNL     1      35.926 -22.252 -16.335  0.00  0.00    +0.010 C 
ATOM      5  C   UNL     1      37.038 -21.771 -17.017  0.00  0.00    +0.073 C 
ATOM      6  C   UNL     1      38.277 -22.296 -16.690  0.00  0.00    +0.105 C 
ATOM      7  N   UNL     1      37.542 -24.660 -14.142  0.00  0.00    -0.291 N 
ATOM      8  C   UNL     1      37.828 -26.763 -13.117  0.00  0.00    +0.132 C 
ATOM      9  C   UNL     1      37.834 -25.686 -12.043  0.00  0.00    +0.052 C 
ATOM     10  C   UNL     1      38.106 -25.987 -14.404  0.00  0.00    +0.121 C 
ATOM     11  C   UNL     1      37.176 -24.494 -12.739  0.00  0.00    +0.095 C 
ENDROOT
BRANCH   3  14
ATOM     12  N   UNL     1      34.610 -23.333 -13.385  0.00  0.00    -0.236 N 
ATOM     13  N   UNL     1      33.493 -23.905 -12.903  0.00  0.00    -0.180 NA
ATOM     14  C   UNL     1      34.926 -23.723 -14.653  0.00  0.00    +0.069 C 
ATOM     15  C   UNL     1      33.948 -24.613 -15.027  0.00  0.00    +0.038 C 
ATOM     16  C   UNL     1      33.094 -24.686 -13.911  0.00  0.00    +0.119 C 
ATOM     17  H   UNL     1      35.150 -22.691 -12.870  0.00  0.00    +0.174 HD
ENDBRANCH   3  14
BRANCH   5  20
ATOM     18  O   UNL     1      37.639 -19.748 -17.996  0.00  0.00    -0.270 OA
ATOM     19  N   UNL     1      35.916 -20.975 -19.009  0.00  0.00    -0.280 N 
ATOM     20  C   UNL     1      36.905 -20.749 -18.041  0.00  0.00    +0.251 C 
ATOM     21  H   UNL     1      35.412 -21.815 -18.917  0.00  0.00    +0.155 HD
BRANCH  19  22
ATOM     22  C   UNL     1      35.545 -20.153 -20.102  0.00  0.00    +0.051 C 
ATOM     23  C   UNL     1      36.503 -19.358 -20.732  0.00  0.00    +0.018 C 
ATOM     24  C   UNL     1      34.223 -20.138 -20.547  0.00  0.00    +0.018 C 
ATOM     25  C   UNL     1      36.138 -18.549 -21.808  0.00  0.00    +0.038 C 
ATOM     26  C   UNL     1      33.858 -19.329 -21.622  0.00  0.00    +0.038 C 
ATOM     27  C   UNL     1      34.816 -18.533 -22.254  0.00  0.00    +0.145 C 
BRANCH  27  28
ATOM     28  O   UNL     1      34.461 -17.744 -23.304  0.00  0.00    -0.418 OA
BRANCH  28  32
ATOM     29 CL   UNL     1      33.832 -17.111 -25.766  0.00  0.00    +0.000 Cl
ATOM     30  F   UNL     1      35.588 -18.801 -24.978  0.00  0.00    -0.149 F 
ATOM     31  F   UNL     1      33.496 -19.361 -24.587  0.00  0.00    -0.149 F 
ATOM     32  C   UNL     1      34.374 -18.328 -24.604  0.00  0.00    +0.489 C 
ENDBRANCH  28  32
ENDBRANCH  27  28
ENDBRANCH  19  22
ENDBRANCH   5  20
BRANCH   8  33
ATOM     33  O   UNL     1      36.542 -27.366 -13.201  0.00  0.00    -0.383 OA
ATOM     34  H   UNL     1      36.263 -27.406 -14.128  0.00  0.00    +0.210 HD
ENDBRANCH   8  33
TORSDOF 6
ENDMDL
