MODEL 1
REMARK VINA RESULT:      -5.9      0.000      0.000
REMARK  Name = 69672
REMARK  0 active torsions:
REMARK  status: ('A' for Active; 'I' for Inactive)
REMARK                            x       y       z     vdW  Elec       q    Type
REMARK                         _______ _______ _______ _____ _____    ______ ____
ROOT
ATOM      1  I   UNL     1      37.221 -23.240 -11.717  0.00  0.00    -0.036 I 
ATOM      2  O   UNL     1      36.991 -26.477 -11.679  0.00  0.00    -0.269 OA
ATOM      3  O   UNL     1      36.816 -27.416 -16.187  0.00  0.00    -0.252 OA
ATOM      4  N   UNL     1      36.903 -26.950 -13.929  0.00  0.00    -0.235 N 
ATOM      5  N   UNL     1      36.991 -25.227 -15.505  0.00  0.00    -0.266 N 
ATOM      6  C   UNL     1      36.991 -26.086 -12.843  0.00  0.00    +0.259 C 
ATOM      7  C   UNL     1      36.897 -26.590 -15.278  0.00  0.00    +0.310 C 
ATOM      8  C   UNL     1      37.086 -24.640 -13.204  0.00  0.00    +0.098 C 
ATOM      9  C   UNL     1      37.080 -24.303 -14.500  0.00  0.00    +0.076 C 
ATOM     10  H   UNL     1      36.839 -27.912 -13.728  0.00  0.00    +0.159 HD
ATOM     11  H   UNL     1      36.992 -24.906 -16.436  0.00  0.00    +0.156 HD
ENDROOT
TORSDOF 0
ENDMDL
MODEL 2
REMARK VINA RESULT:      -5.9      2.314      2.325
REMARK  Name = 69672
REMARK  0 active torsions:
REMARK  status: ('A' for Active; 'I' for Inactive)
REMARK                            x       y       z     vdW  Elec       q    Type
REMARK                         _______ _______ _______ _____ _____    ______ ____
ROOT
ATOM      1  I   UNL     1      35.473 -24.093 -13.025  0.00  0.00    -0.036 I 
ATOM      2  O   UNL     1      37.712 -26.125 -11.848  0.00  0.00    -0.269 OA
ATOM      3  O   UNL     1      40.886 -25.995 -15.188  0.00  0.00    -0.252 OA
ATOM      4  N   UNL     1      39.299 -26.063 -13.513  0.00  0.00    -0.235 N 
ATOM      5  N   UNL     1      38.977 -24.731 -15.406  0.00  0.00    -0.266 N 
ATOM      6  C   UNL     1      38.090 -25.696 -12.934  0.00  0.00    +0.259 C 
ATOM      7  C   UNL     1      39.802 -25.622 -14.739  0.00  0.00    +0.310 C 
ATOM      8  C   UNL     1      37.282 -24.731 -13.741  0.00  0.00    +0.098 C 
ATOM      9  C   UNL     1      37.770 -24.313 -14.915  0.00  0.00    +0.076 C 
ATOM     10  H   UNL     1      39.858 -26.698 -13.009  0.00  0.00    +0.159 HD
ATOM     11  H   UNL     1      39.273 -24.381 -16.278  0.00  0.00    +0.156 HD
ENDROOT
TORSDOF 0
ENDMDL
MODEL 3
REMARK VINA RESULT:      -5.7      7.504      8.499
REMARK  Name = 69672
REMARK  0 active torsions:
REMARK  status: ('A' for Active; 'I' for Inactive)
REMARK                            x       y       z     vdW  Elec       q    Type
REMARK                         _______ _______ _______ _____ _____    ______ ____
ROOT
ATOM      1  I   UNL     1      35.095 -18.684 -21.659  0.00  0.00    -0.036 I 
ATOM      2  O   UNL     1      32.303 -20.114 -20.826  0.00  0.00    -0.269 OA
ATOM      3  O   UNL     1      33.813 -23.509 -18.100  0.00  0.00    -0.252 OA
ATOM      4  N   UNL     1      33.053 -21.811 -19.464  0.00  0.00    -0.235 N 
ATOM      5  N   UNL     1      35.338 -22.073 -19.050  0.00  0.00    -0.266 N 
ATOM      6  C   UNL     1      33.235 -20.706 -20.289  0.00  0.00    +0.259 C 
ATOM      7  C   UNL     1      34.054 -22.538 -18.817  0.00  0.00    +0.310 C 
ATOM      8  C   UNL     1      34.660 -20.293 -20.471  0.00  0.00    +0.098 C 
ATOM      9  C   UNL     1      35.613 -20.996 -19.847  0.00  0.00    +0.076 C 
ATOM     10  H   UNL     1      32.126 -22.111 -19.322  0.00  0.00    +0.159 HD
ATOM     11  H   UNL     1      36.091 -22.542 -18.622  0.00  0.00    +0.156 HD
ENDROOT
TORSDOF 0
ENDMDL
MODEL 4
REMARK VINA RESULT:      -5.7      2.695      3.227
REMARK  Name = 69672
REMARK  0 active torsions:
REMARK  status: ('A' for Active; 'I' for Inactive)
REMARK                            x       y       z     vdW  Elec       q    Type
REMARK                         _______ _______ _______ _____ _____    ______ ____
ROOT
ATOM      1  I   UNL     1      35.700 -24.112 -12.675  0.00  0.00    -0.036 I 
ATOM      2  O   UNL     1      37.121 -23.433 -15.513  0.00  0.00    -0.269 OA
ATOM      3  O   UNL     1      40.914 -26.039 -15.261  0.00  0.00    -0.252 OA
ATOM      4  N   UNL     1      39.017 -24.733 -15.391  0.00  0.00    -0.235 N 
ATOM      5  N   UNL     1      39.422 -26.061 -13.511  0.00  0.00    -0.266 N 
ATOM      6  C   UNL     1      37.817 -24.234 -14.894  0.00  0.00    +0.259 C 
ATOM      7  C   UNL     1      39.864 -25.643 -14.756  0.00  0.00    +0.310 C 
ATOM      8  C   UNL     1      37.439 -24.752 -13.545  0.00  0.00    +0.098 C 
ATOM      9  C   UNL     1      38.257 -25.624 -12.942  0.00  0.00    +0.076 C 
ATOM     10  H   UNL     1      39.297 -24.413 -16.279  0.00  0.00    +0.159 HD
ATOM     11  H   UNL     1      39.974 -26.704 -13.009  0.00  0.00    +0.156 HD
ENDROOT
TORSDOF 0
ENDMDL
MODEL 5
REMARK VINA RESULT:      -5.7      8.147      8.943
REMARK  Name = 69672
REMARK  0 active torsions:
REMARK  status: ('A' for Active; 'I' for Inactive)
REMARK                            x       y       z     vdW  Elec       q    Type
REMARK                         _______ _______ _______ _____ _____    ______ ____
ROOT
ATOM      1  I   UNL     1      35.617 -18.309 -22.176  0.00  0.00    -0.036 I 
ATOM      2  O   UNL     1      36.729 -20.567 -20.127  0.00  0.00    -0.269 OA
ATOM      3  O   UNL     1      32.791 -22.444 -18.640  0.00  0.00    -0.252 OA
ATOM      4  N   UNL     1      34.764 -21.507 -19.382  0.00  0.00    -0.235 N 
ATOM      5  N   UNL     1      32.707 -20.727 -20.168  0.00  0.00    -0.266 N 
ATOM      6  C   UNL     1      35.502 -20.608 -20.145  0.00  0.00    +0.259 C 
ATOM      7  C   UNL     1      33.373 -21.620 -19.345  0.00  0.00    +0.310 C 
ATOM      8  C   UNL     1      34.680 -19.692 -20.994  0.00  0.00    +0.098 C 
ATOM      9  C   UNL     1      33.347 -19.807 -20.953  0.00  0.00    +0.076 C 
ATOM     10  H   UNL     1      35.274 -22.126 -18.810  0.00  0.00    +0.159 HD
ATOM     11  H   UNL     1      31.722 -20.755 -20.189  0.00  0.00    +0.156 HD
ENDROOT
TORSDOF 0
ENDMDL
MODEL 6
REMARK VINA RESULT:      -5.6     11.511     12.345
REMARK  Name = 69672
REMARK  0 active torsions:
REMARK  status: ('A' for Active; 'I' for Inactive)
REMARK                            x       y       z     vdW  Elec       q    Type
REMARK                         _______ _______ _______ _____ _____    ______ ____
ROOT
ATOM      1  I   UNL     1      43.426 -16.095 -18.497  0.00  0.00    -0.036 I 
ATOM      2  O   UNL     1      41.147 -17.196 -16.465  0.00  0.00    -0.269 OA
ATOM      3  O   UNL     1      40.362 -13.457 -13.888  0.00  0.00    -0.252 OA
ATOM      4  N   UNL     1      40.752 -15.331 -15.176  0.00  0.00    -0.235 N 
ATOM      5  N   UNL     1      41.920 -13.348 -15.576  0.00  0.00    -0.266 N 
ATOM      6  C   UNL     1      41.390 -16.022 -16.200  0.00  0.00    +0.259 C 
ATOM      7  C   UNL     1      40.968 -14.001 -14.811  0.00  0.00    +0.310 C 
ATOM      8  C   UNL     1      42.398 -15.221 -16.958  0.00  0.00    +0.098 C 
ATOM      9  C   UNL     1      42.599 -13.946 -16.602  0.00  0.00    +0.076 C 
ATOM     10  H   UNL     1      40.081 -15.830 -14.655  0.00  0.00    +0.159 HD
ATOM     11  H   UNL     1      42.120 -12.405 -15.370  0.00  0.00    +0.156 HD
ENDROOT
TORSDOF 0
ENDMDL
MODEL 7
REMARK VINA RESULT:      -5.5      1.566      2.236
REMARK  Name = 69672
REMARK  0 active torsions:
REMARK  status: ('A' for Active; 'I' for Inactive)
REMARK                            x       y       z     vdW  Elec       q    Type
REMARK                         _______ _______ _______ _____ _____    ______ ____
ROOT
ATOM      1  I   UNL     1      37.257 -23.236 -11.632  0.00  0.00    -0.036 I 
ATOM      2  O   UNL     1      37.696 -23.043 -14.842  0.00  0.00    -0.269 OA
ATOM      3  O   UNL     1      36.915 -27.402 -16.117  0.00  0.00    -0.252 OA
ATOM      4  N   UNL     1      37.307 -25.219 -15.483  0.00  0.00    -0.235 N 
ATOM      5  N   UNL     1      36.758 -26.841 -13.893  0.00  0.00    -0.266 N 
ATOM      6  C   UNL     1      37.410 -24.199 -14.543  0.00  0.00    +0.259 C 
ATOM      7  C   UNL     1      36.987 -26.554 -15.228  0.00  0.00    +0.310 C 
ATOM      8  C   UNL     1      37.144 -24.621 -13.135  0.00  0.00    +0.098 C 
ATOM      9  C   UNL     1      36.838 -25.903 -12.899  0.00  0.00    +0.076 C 
ATOM     10  H   UNL     1      37.476 -24.976 -16.422  0.00  0.00    +0.159 HD
ATOM     11  H   UNL     1      36.527 -27.766 -13.645  0.00  0.00    +0.156 HD
ENDROOT
TORSDOF 0
ENDMDL
MODEL 8
REMARK VINA RESULT:      -5.4     12.085     12.951
REMARK  Name = 69672
REMARK  0 active torsions:
REMARK  status: ('A' for Active; 'I' for Inactive)
REMARK                            x       y       z     vdW  Elec       q    Type
REMARK                         _______ _______ _______ _____ _____    ______ ____
ROOT
ATOM      1  I   UNL     1      35.105 -19.743 -21.013  0.00  0.00    -0.036 I 
ATOM      2  O   UNL     1      35.124 -16.527 -21.452  0.00  0.00    -0.269 OA
ATOM      3  O   UNL     1      34.391 -16.238 -25.993  0.00  0.00    -0.252 OA
ATOM      4  N   UNL     1      34.758 -16.379 -23.719  0.00  0.00    -0.235 N 
ATOM      5  N   UNL     1      34.491 -18.312 -25.004  0.00  0.00    -0.266 N 
ATOM      6  C   UNL     1      34.932 -17.081 -22.531  0.00  0.00    +0.259 C 
ATOM      7  C   UNL     1      34.536 -16.928 -24.983  0.00  0.00    +0.310 C 
ATOM      8  C   UNL     1      34.867 -18.567 -22.671  0.00  0.00    +0.098 C 
ATOM      9  C   UNL     1      34.653 -19.086 -23.887  0.00  0.00    +0.076 C 
ATOM     10  H   UNL     1      34.796 -15.396 -23.664  0.00  0.00    +0.159 HD
ATOM     11  H   UNL     1      34.337 -18.763 -25.866  0.00  0.00    +0.156 HD
ENDROOT
TORSDOF 0
ENDMDL
MODEL 9
REMARK VINA RESULT:      -5.4      3.073      4.084
REMARK  Name = 69672
REMARK  0 active torsions:
REMARK  status: ('A' for Active; 'I' for Inactive)
REMARK                            x       y       z     vdW  Elec       q    Type
REMARK                         _______ _______ _______ _____ _____    ______ ____
ROOT
ATOM      1  I   UNL     1      37.200 -22.968 -15.477  0.00  0.00    -0.036 I 
ATOM      2  O   UNL     1      34.703 -24.747 -14.411  0.00  0.00    -0.269 OA
ATOM      3  O   UNL     1      35.408 -24.643  -9.858  0.00  0.00    -0.252 OA
ATOM      4  N   UNL     1      35.052 -24.697 -12.137  0.00  0.00    -0.235 N 
ATOM      5  N   UNL     1      36.871 -23.534 -11.244  0.00  0.00    -0.266 N 
ATOM      6  C   UNL     1      35.371 -24.373 -13.451  0.00  0.00    +0.259 C 
ATOM      7  C   UNL     1      35.754 -24.314 -10.993  0.00  0.00    +0.310 C 
ATOM      8  C   UNL     1      36.595 -23.530 -13.604  0.00  0.00    +0.098 C 
ATOM      9  C   UNL     1      37.263 -23.167 -12.502  0.00  0.00    +0.076 C 
ATOM     10  H   UNL     1      34.250 -25.253 -11.999  0.00  0.00    +0.159 HD
ATOM     11  H   UNL     1      37.412 -23.230 -10.479  0.00  0.00    +0.156 HD
ENDROOT
TORSDOF 0
ENDMDL
