MODEL 1
REMARK VINA RESULT:      -7.8      0.000      0.000
REMARK  Name = 199994
REMARK  2 active torsions:
REMARK  status: ('A' for Active; 'I' for Inactive)
REMARK    1  A    between atoms: C_1  and  S_13
REMARK    2  A    between atoms: C_4  and  C_9
REMARK                            x       y       z     vdW  Elec       q    Type
REMARK                         _______ _______ _______ _____ _____    ______ ____
ROOT
ATOM      1  C   UNL     1      34.183 -21.328 -19.626  0.00  0.00    +0.106 C 
ATOM      2  C   UNL     1      35.539 -21.056 -19.807  0.00  0.00    +0.018 C 
ATOM      3  C   UNL     1      33.222 -20.497 -20.203  0.00  0.00    +0.018 C 
ATOM      4  C   UNL     1      34.974 -19.123 -21.141  0.00  0.00    +0.031 C 
ATOM      5  C   UNL     1      35.935 -19.954 -20.563  0.00  0.00    +0.004 C 
ATOM      6  C   UNL     1      33.618 -19.395 -20.960  0.00  0.00    +0.004 C 
ENDROOT
BRANCH   4   9
ATOM      7  N   UNL     1      36.157 -18.123 -23.082  0.00  0.00    -0.343 N 
ATOM      8  N   UNL     1      35.036 -16.757 -21.553  0.00  0.00    -0.285 NA
ATOM      9  C   UNL     1      35.388 -17.973 -21.929  0.00  0.00    +0.117 C 
ATOM     10  H   UNL     1      36.426 -17.330 -23.600  0.00  0.00    +0.144 HD
ATOM     11  H   UNL     1      36.432 -19.021 -23.377  0.00  0.00    +0.144 HD
ATOM     12  H   UNL     1      35.314 -15.977 -22.086  0.00  0.00    +0.188 HD
ENDBRANCH   4   9
BRANCH   1  13
ATOM     13  S   UNL     1      33.686 -22.708 -18.678  0.00  0.00    +0.010 S 
ATOM     14  O   UNL     1      32.345 -22.447 -18.175  0.00  0.00    -0.169 OA
ATOM     15  O   UNL     1      33.950 -23.922 -19.438  0.00  0.00    -0.169 OA
ATOM     16  C   UNL     1      34.799 -22.713 -17.290  0.00  0.00    +0.182 C 
ENDBRANCH   1  13
TORSDOF 2
ENDMDL
MODEL 2
REMARK VINA RESULT:      -7.6      4.387      5.500
REMARK  Name = 199994
REMARK  2 active torsions:
REMARK  status: ('A' for Active; 'I' for Inactive)
REMARK    1  A    between atoms: C_1  and  S_13
REMARK    2  A    between atoms: C_4  and  C_9
REMARK                            x       y       z     vdW  Elec       q    Type
REMARK                         _______ _______ _______ _____ _____    ______ ____
ROOT
ATOM      1  C   UNL     1      35.026 -19.489 -21.014  0.00  0.00    +0.106 C 
ATOM      2  C   UNL     1      33.640 -19.625 -20.948  0.00  0.00    +0.018 C 
ATOM      3  C   UNL     1      35.848 -20.366 -20.307  0.00  0.00    +0.018 C 
ATOM      4  C   UNL     1      33.896 -21.517 -19.467  0.00  0.00    +0.031 C 
ATOM      5  C   UNL     1      33.075 -20.638 -20.174  0.00  0.00    +0.004 C 
ATOM      6  C   UNL     1      35.283 -21.381 -19.533  0.00  0.00    +0.004 C 
ENDROOT
BRANCH   4   9
ATOM      7  N   UNL     1      32.160 -22.351 -17.899  0.00  0.00    -0.343 N 
ATOM      8  N   UNL     1      33.862 -23.771 -18.637  0.00  0.00    -0.285 NA
ATOM      9  C   UNL     1      33.306 -22.573 -18.660  0.00  0.00    +0.117 C 
ATOM     10  H   UNL     1      31.778 -23.080 -17.360  0.00  0.00    +0.144 HD
ATOM     11  H   UNL     1      31.734 -21.463 -17.900  0.00  0.00    +0.144 HD
ATOM     12  H   UNL     1      33.464 -24.488 -18.092  0.00  0.00    +0.188 HD
ENDBRANCH   4   9
BRANCH   1  13
ATOM     13  S   UNL     1      35.735 -18.220 -21.982  0.00  0.00    +0.010 S 
ATOM     14  O   UNL     1      35.236 -16.946 -21.485  0.00  0.00    -0.169 OA
ATOM     15  O   UNL     1      37.170 -18.446 -22.080  0.00  0.00    -0.169 OA
ATOM     16  C   UNL     1      35.057 -18.475 -23.607  0.00  0.00    +0.182 C 
ENDBRANCH   1  13
TORSDOF 2
ENDMDL
MODEL 3
REMARK VINA RESULT:      -7.5      4.392      5.340
REMARK  Name = 199994
REMARK  2 active torsions:
REMARK  status: ('A' for Active; 'I' for Inactive)
REMARK    1  A    between atoms: C_1  and  S_13
REMARK    2  A    between atoms: C_4  and  C_9
REMARK                            x       y       z     vdW  Elec       q    Type
REMARK                         _______ _______ _______ _____ _____    ______ ____
ROOT
ATOM      1  C   UNL     1      34.766 -19.489 -21.081  0.00  0.00    +0.106 C 
ATOM      2  C   UNL     1      35.654 -20.348 -20.434  0.00  0.00    +0.018 C 
ATOM      3  C   UNL     1      33.391 -19.649 -20.912  0.00  0.00    +0.018 C 
ATOM      4  C   UNL     1      33.792 -21.528 -19.445  0.00  0.00    +0.031 C 
ATOM      5  C   UNL     1      35.167 -21.368 -19.617  0.00  0.00    +0.004 C 
ATOM      6  C   UNL     1      32.904 -20.668 -20.093  0.00  0.00    +0.004 C 
ENDROOT
BRANCH   4   9
ATOM      7  N   UNL     1      32.220 -22.376 -17.720  0.00  0.00    -0.343 N 
ATOM      8  N   UNL     1      33.839 -23.789 -18.637  0.00  0.00    -0.285 NA
ATOM      9  C   UNL     1      33.284 -22.591 -18.593  0.00  0.00    +0.117 C 
ATOM     10  H   UNL     1      31.893 -23.110 -17.152  0.00  0.00    +0.144 HD
ATOM     11  H   UNL     1      31.796 -21.488 -17.671  0.00  0.00    +0.144 HD
ATOM     12  H   UNL     1      33.496 -24.512 -18.061  0.00  0.00    +0.188 HD
ENDBRANCH   4   9
BRANCH   1  13
ATOM     13  S   UNL     1      35.376 -18.213 -22.106  0.00  0.00    +0.010 S 
ATOM     14  O   UNL     1      36.829 -18.298 -22.112  0.00  0.00    -0.169 OA
ATOM     15  O   UNL     1      34.645 -18.229 -23.366  0.00  0.00    -0.169 OA
ATOM     16  C   UNL     1      34.920 -16.714 -21.262  0.00  0.00    +0.182 C 
ENDBRANCH   1  13
TORSDOF 2
ENDMDL
MODEL 4
REMARK VINA RESULT:      -6.9      5.214      7.047
REMARK  Name = 199994
REMARK  2 active torsions:
REMARK  status: ('A' for Active; 'I' for Inactive)
REMARK    1  A    between atoms: C_1  and  S_13
REMARK    2  A    between atoms: C_4  and  C_9
REMARK                            x       y       z     vdW  Elec       q    Type
REMARK                         _______ _______ _______ _____ _____    ______ ____
ROOT
ATOM      1  C   UNL     1      33.263 -22.948 -17.524  0.00  0.00    +0.106 C 
ATOM      2  C   UNL     1      31.891 -22.871 -17.286  0.00  0.00    +0.018 C 
ATOM      3  C   UNL     1      34.132 -23.289 -16.487  0.00  0.00    +0.018 C 
ATOM      4  C   UNL     1      32.256 -23.476 -14.976  0.00  0.00    +0.031 C 
ATOM      5  C   UNL     1      31.387 -23.134 -16.013  0.00  0.00    +0.004 C 
ATOM      6  C   UNL     1      33.628 -23.553 -15.213  0.00  0.00    +0.004 C 
ENDROOT
BRANCH   4   9
ATOM      7  N   UNL     1      30.962 -24.884 -13.392  0.00  0.00    -0.343 N 
ATOM      8  N   UNL     1      31.977 -22.911 -12.658  0.00  0.00    -0.285 NA
ATOM      9  C   UNL     1      31.730 -23.750 -13.648  0.00  0.00    +0.117 C 
ATOM     10  H   UNL     1      30.616 -25.049 -12.485  0.00  0.00    +0.144 HD
ATOM     11  H   UNL     1      30.764 -25.519 -14.118  0.00  0.00    +0.144 HD
ATOM     12  H   UNL     1      31.622 -23.095 -11.757  0.00  0.00    +0.188 HD
ENDBRANCH   4   9
BRANCH   1  13
ATOM     13  S   UNL     1      33.894 -22.618 -19.118  0.00  0.00    +0.010 S 
ATOM     14  O   UNL     1      34.117 -23.893 -19.785  0.00  0.00    -0.169 OA
ATOM     15  O   UNL     1      33.064 -21.604 -19.754  0.00  0.00    -0.169 OA
ATOM     16  C   UNL     1      35.482 -21.874 -18.818  0.00  0.00    +0.182 C 
ENDBRANCH   1  13
TORSDOF 2
ENDMDL
MODEL 5
REMARK VINA RESULT:      -6.7      4.970      6.964
REMARK  Name = 199994
REMARK  2 active torsions:
REMARK  status: ('A' for Active; 'I' for Inactive)
REMARK    1  A    between atoms: C_1  and  S_13
REMARK    2  A    between atoms: C_4  and  C_9
REMARK                            x       y       z     vdW  Elec       q    Type
REMARK                         _______ _______ _______ _____ _____    ______ ____
ROOT
ATOM      1  C   UNL     1      34.212 -22.905 -17.254  0.00  0.00    +0.106 C 
ATOM      2  C   UNL     1      33.168 -23.417 -16.483  0.00  0.00    +0.018 C 
ATOM      3  C   UNL     1      35.468 -22.703 -16.681  0.00  0.00    +0.018 C 
ATOM      4  C   UNL     1      34.636 -23.526 -14.567  0.00  0.00    +0.031 C 
ATOM      5  C   UNL     1      33.380 -23.727 -15.140  0.00  0.00    +0.004 C 
ATOM      6  C   UNL     1      35.680 -23.014 -15.338  0.00  0.00    +0.004 C 
ENDROOT
BRANCH   4   9
ATOM      7  N   UNL     1      35.908 -23.284 -12.448  0.00  0.00    -0.343 N 
ATOM      8  N   UNL     1      34.050 -24.697 -12.553  0.00  0.00    -0.285 NA
ATOM      9  C   UNL     1      34.856 -23.849 -13.166  0.00  0.00    +0.117 C 
ATOM     10  H   UNL     1      36.039 -23.518 -11.501  0.00  0.00    +0.144 HD
ATOM     11  H   UNL     1      36.522 -22.653 -12.889  0.00  0.00    +0.144 HD
ATOM     12  H   UNL     1      34.197 -24.917 -11.604  0.00  0.00    +0.188 HD
ENDBRANCH   4   9
BRANCH   1  13
ATOM     13  S   UNL     1      33.947 -22.516 -18.935  0.00  0.00    +0.010 S 
ATOM     14  O   UNL     1      33.923 -23.764 -19.685  0.00  0.00    -0.169 OA
ATOM     15  O   UNL     1      32.828 -21.590 -19.035  0.00  0.00    -0.169 OA
ATOM     16  C   UNL     1      35.407 -21.619 -19.415  0.00  0.00    +0.182 C 
ENDBRANCH   1  13
TORSDOF 2
ENDMDL
MODEL 6
REMARK VINA RESULT:      -6.6      6.194      7.237
REMARK  Name = 199994
REMARK  2 active torsions:
REMARK  status: ('A' for Active; 'I' for Inactive)
REMARK    1  A    between atoms: C_1  and  S_13
REMARK    2  A    between atoms: C_4  and  C_9
REMARK                            x       y       z     vdW  Elec       q    Type
REMARK                         _______ _______ _______ _____ _____    ______ ____
ROOT
ATOM      1  C   UNL     1      30.848 -23.030 -15.638  0.00  0.00    +0.106 C 
ATOM      2  C   UNL     1      31.764 -23.055 -16.690  0.00  0.00    +0.018 C 
ATOM      3  C   UNL     1      31.285 -23.222 -14.327  0.00  0.00    +0.018 C 
ATOM      4  C   UNL     1      33.555 -23.463 -15.121  0.00  0.00    +0.031 C 
ATOM      5  C   UNL     1      33.117 -23.272 -16.432  0.00  0.00    +0.004 C 
ATOM      6  C   UNL     1      32.639 -23.438 -14.069  0.00  0.00    +0.004 C 
ENDROOT
BRANCH   4   9
ATOM      7  N   UNL     1      35.587 -23.145 -13.730  0.00  0.00    -0.343 N 
ATOM      8  N   UNL     1      35.684 -24.422 -15.684  0.00  0.00    -0.285 NA
ATOM      9  C   UNL     1      34.966 -23.690 -14.852  0.00  0.00    +0.117 C 
ATOM     10  H   UNL     1      36.544 -23.311 -13.568  0.00  0.00    +0.144 HD
ATOM     11  H   UNL     1      35.069 -22.593 -13.100  0.00  0.00    +0.144 HD
ATOM     12  H   UNL     1      36.640 -24.578 -15.503  0.00  0.00    +0.188 HD
ENDBRANCH   4   9
BRANCH   1  13
ATOM     13  S   UNL     1      29.153 -22.760 -15.961  0.00  0.00    +0.010 S 
ATOM     14  O   UNL     1      28.646 -21.840 -14.952  0.00  0.00    -0.169 OA
ATOM     15  O   UNL     1      28.986 -22.447 -17.374  0.00  0.00    -0.169 OA
ATOM     16  C   UNL     1      28.393 -24.345 -15.687  0.00  0.00    +0.182 C 
ENDBRANCH   1  13
TORSDOF 2
ENDMDL
MODEL 7
REMARK VINA RESULT:      -6.6      4.184      5.404
REMARK  Name = 199994
REMARK  2 active torsions:
REMARK  status: ('A' for Active; 'I' for Inactive)
REMARK    1  A    between atoms: C_1  and  S_13
REMARK    2  A    between atoms: C_4  and  C_9
REMARK                            x       y       z     vdW  Elec       q    Type
REMARK                         _______ _______ _______ _____ _____    ______ ____
ROOT
ATOM      1  C   UNL     1      34.440 -17.099 -22.035  0.00  0.00    +0.106 C 
ATOM      2  C   UNL     1      34.768 -16.544 -23.271  0.00  0.00    +0.018 C 
ATOM      3  C   UNL     1      33.686 -16.366 -21.119  0.00  0.00    +0.018 C 
ATOM      4  C   UNL     1      33.588 -14.522 -22.677  0.00  0.00    +0.031 C 
ATOM      5  C   UNL     1      34.343 -15.256 -23.593  0.00  0.00    +0.004 C 
ATOM      6  C   UNL     1      33.259 -15.077 -21.440  0.00  0.00    +0.004 C 
ENDROOT
BRANCH   4   9
ATOM      7  N   UNL     1      31.891 -12.710 -22.624  0.00  0.00    -0.343 N 
ATOM      8  N   UNL     1      33.937 -12.377 -23.701  0.00  0.00    -0.285 NA
ATOM      9  C   UNL     1      33.144 -13.178 -23.012  0.00  0.00    +0.117 C 
ATOM     10  H   UNL     1      31.611 -11.796 -22.862  0.00  0.00    +0.144 HD
ATOM     11  H   UNL     1      31.284 -13.293 -22.113  0.00  0.00    +0.144 HD
ATOM     12  H   UNL     1      33.639 -11.466 -23.929  0.00  0.00    +0.188 HD
ENDBRANCH   4   9
BRANCH   1  13
ATOM     13  S   UNL     1      34.974 -18.713 -21.632  0.00  0.00    +0.010 S 
ATOM     14  O   UNL     1      35.258 -19.415 -22.876  0.00  0.00    -0.169 OA
ATOM     15  O   UNL     1      35.997 -18.627 -20.599  0.00  0.00    -0.169 OA
ATOM     16  C   UNL     1      33.549 -19.475 -20.888  0.00  0.00    +0.182 C 
ENDBRANCH   1  13
TORSDOF 2
ENDMDL
MODEL 8
REMARK VINA RESULT:      -6.6      5.879      7.041
REMARK  Name = 199994
REMARK  2 active torsions:
REMARK  status: ('A' for Active; 'I' for Inactive)
REMARK    1  A    between atoms: C_1  and  S_13
REMARK    2  A    between atoms: C_4  and  C_9
REMARK                            x       y       z     vdW  Elec       q    Type
REMARK                         _______ _______ _______ _____ _____    ______ ____
ROOT
ATOM      1  C   UNL     1      33.931 -23.520 -15.427  0.00  0.00    +0.106 C 
ATOM      2  C   UNL     1      33.448 -23.273 -16.712  0.00  0.00    +0.018 C 
ATOM      3  C   UNL     1      33.042 -23.661 -14.362  0.00  0.00    +0.018 C 
ATOM      4  C   UNL     1      31.185 -23.309 -15.868  0.00  0.00    +0.031 C 
ATOM      5  C   UNL     1      32.075 -23.167 -16.932  0.00  0.00    +0.004 C 
ATOM      6  C   UNL     1      31.668 -23.556 -14.583  0.00  0.00    +0.004 C 
ENDROOT
BRANCH   4   9
ATOM      7  N   UNL     1      28.841 -23.964 -15.375  0.00  0.00    -0.343 N 
ATOM      8  N   UNL     1      29.298 -22.360 -17.011  0.00  0.00    -0.285 NA
ATOM      9  C   UNL     1      29.753 -23.198 -16.098  0.00  0.00    +0.117 C 
ATOM     10  H   UNL     1      27.876 -23.873 -15.548  0.00  0.00    +0.144 HD
ATOM     11  H   UNL     1      29.162 -24.598 -14.693  0.00  0.00    +0.144 HD
ATOM     12  H   UNL     1      28.328 -22.282 -17.168  0.00  0.00    +0.188 HD
ENDBRANCH   4   9
BRANCH   1  13
ATOM     13  S   UNL     1      35.651 -23.652 -15.150  0.00  0.00    +0.010 S 
ATOM     14  O   UNL     1      35.925 -23.180 -13.800  0.00  0.00    -0.169 OA
ATOM     15  O   UNL     1      36.094 -24.979 -15.556  0.00  0.00    -0.169 OA
ATOM     16  C   UNL     1      36.371 -22.493 -16.292  0.00  0.00    +0.182 C 
ENDBRANCH   1  13
TORSDOF 2
ENDMDL
MODEL 9
REMARK VINA RESULT:      -6.6      5.857      7.023
REMARK  Name = 199994
REMARK  2 active torsions:
REMARK  status: ('A' for Active; 'I' for Inactive)
REMARK    1  A    between atoms: C_1  and  S_13
REMARK    2  A    between atoms: C_4  and  C_9
REMARK                            x       y       z     vdW  Elec       q    Type
REMARK                         _______ _______ _______ _____ _____    ______ ____
ROOT
ATOM      1  C   UNL     1      33.911 -23.527 -15.464  0.00  0.00    +0.106 C 
ATOM      2  C   UNL     1      33.022 -23.697 -14.403  0.00  0.00    +0.018 C 
ATOM      3  C   UNL     1      33.426 -23.249 -16.742  0.00  0.00    +0.018 C 
ATOM      4  C   UNL     1      31.163 -23.311 -15.897  0.00  0.00    +0.031 C 
ATOM      5  C   UNL     1      31.648 -23.590 -14.619  0.00  0.00    +0.004 C 
ATOM      6  C   UNL     1      32.052 -23.141 -16.958  0.00  0.00    +0.004 C 
ENDROOT
BRANCH   4   9
ATOM      7  N   UNL     1      28.819 -23.935 -15.368  0.00  0.00    -0.343 N 
ATOM      8  N   UNL     1      29.274 -22.391 -17.061  0.00  0.00    -0.285 NA
ATOM      9  C   UNL     1      29.731 -23.200 -16.122  0.00  0.00    +0.117 C 
ATOM     10  H   UNL     1      27.853 -23.844 -15.538  0.00  0.00    +0.144 HD
ATOM     11  H   UNL     1      29.140 -24.546 -14.666  0.00  0.00    +0.144 HD
ATOM     12  H   UNL     1      28.304 -22.313 -17.215  0.00  0.00    +0.188 HD
ENDBRANCH   4   9
BRANCH   1  13
ATOM     13  S   UNL     1      35.631 -23.662 -15.194  0.00  0.00    +0.010 S 
ATOM     14  O   UNL     1      35.908 -23.211 -13.838  0.00  0.00    -0.169 OA
ATOM     15  O   UNL     1      36.073 -24.982 -15.621  0.00  0.00    -0.169 OA
ATOM     16  C   UNL     1      36.347 -22.485 -16.319  0.00  0.00    +0.182 C 
ENDBRANCH   1  13
TORSDOF 2
ENDMDL
