MODEL 1
REMARK VINA RESULT:     -10.2      0.000      0.000
REMARK  Name = 3356
REMARK  9 active torsions:
REMARK  status: ('A' for Active; 'I' for Inactive)
REMARK    1  A    between atoms: C_1  and  C_9
REMARK    2  A    between atoms: C_2  and  O_20
REMARK    3  A    between atoms: C_4  and  O_26
REMARK    4  A    between atoms: N_8  and  C_11
REMARK    5  A    between atoms: C_11  and  C_13
REMARK    6  A    between atoms: O_20  and  C_21
REMARK    7  A    between atoms: C_21  and  C_25
REMARK    8  A    between atoms: O_26  and  C_27
REMARK    9  A    between atoms: C_27  and  C_31
REMARK                            x       y       z     vdW  Elec       q    Type
REMARK                         _______ _______ _______ _____ _____    ______ ____
ROOT
ATOM      1  C   UNL     1      33.371 -14.437 -22.456  0.00  0.00    +0.090 C 
ATOM      2  C   UNL     1      33.506 -14.759 -23.807  0.00  0.00    +0.143 C 
ATOM      3  C   UNL     1      33.974 -15.237 -21.485  0.00  0.00    +0.044 C 
ATOM      4  C   UNL     1      34.712 -16.358 -21.865  0.00  0.00    +0.139 C 
ATOM      5  C   UNL     1      34.244 -15.880 -24.186  0.00  0.00    +0.040 C 
ATOM      6  C   UNL     1      34.846 -16.680 -23.216  0.00  0.00    +0.040 C 
ENDROOT
BRANCH   1   9
ATOM      7  O   UNL     1      31.938 -13.297 -20.992  0.00  0.00    -0.270 OA
ATOM      8  N   UNL     1      32.679 -12.124 -22.852  0.00  0.00    -0.303 N 
ATOM      9  C   UNL     1      32.591 -13.246 -22.031  0.00  0.00    +0.249 C 
ATOM     10  H   UNL     1      33.230 -12.180 -23.667  0.00  0.00    +0.150 HD
BRANCH   8  11
ATOM     11  C   UNL     1      32.007 -10.895 -22.563  0.00  0.00    +0.068 C 
BRANCH  11  13
ATOM     12  N   UNL     1      34.040 -10.119 -23.671  0.00  0.00    +0.386 N 
ATOM     13  C   UNL     1      32.685  -9.720 -23.265  0.00  0.00    -0.042 C 
ATOM     14  C   UNL     1      32.732  -8.495 -22.342  0.00  0.00    -0.020 C 
ATOM     15  C   UNL     1      33.477  -7.335 -22.999  0.00  0.00    -0.004 C 
ATOM     16  C   UNL     1      34.848  -7.790 -23.490  0.00  0.00    -0.023 C 
ATOM     17  C   UNL     1      34.736  -9.035 -24.365  0.00  0.00    -0.082 C 
ATOM     18  H   UNL     1      33.975 -10.924 -24.293  0.00  0.00    -0.084 HD
ATOM     19  H   UNL     1      34.568 -10.349 -22.829  0.00  0.00    -0.084 HD
ENDBRANCH  11  13
ENDBRANCH   8  11
ENDBRANCH   1   9
BRANCH   2  20
ATOM     20  O   UNL     1      32.925 -13.989 -24.770  0.00  0.00    -0.466 OA
BRANCH  20  21
ATOM     21  C   UNL     1      33.080 -14.417 -26.122  0.00  0.00    +0.308 C 
BRANCH  21  25
ATOM     22  F   UNL     1      33.477 -12.104 -26.260  0.00  0.00    -0.166 F 
ATOM     23  F   UNL     1      32.152 -12.985 -27.751  0.00  0.00    -0.166 F 
ATOM     24  F   UNL     1      34.303 -13.358 -27.840  0.00  0.00    -0.166 F 
ATOM     25  C   UNL     1      33.254 -13.208 -27.004  0.00  0.00    +0.438 C 
ENDBRANCH  21  25
ENDBRANCH  20  21
ENDBRANCH   2  20
BRANCH   4  26
ATOM     26  O   UNL     1      35.299 -17.140 -20.918  0.00  0.00    -0.467 OA
BRANCH  26  27
ATOM     27  C   UNL     1      35.872 -18.371 -21.356  0.00  0.00    +0.308 C 
BRANCH  27  31
ATOM     28  F   UNL     1      34.417 -19.800 -22.524  0.00  0.00    -0.166 F 
ATOM     29  F   UNL     1      33.742 -19.042 -20.593  0.00  0.00    -0.166 F 
ATOM     30  F   UNL     1      35.309 -20.563 -20.687  0.00  0.00    -0.166 F 
ATOM     31  C   UNL     1      34.827 -19.453 -21.285  0.00  0.00    +0.438 C 
ENDBRANCH  27  31
ENDBRANCH  26  27
ENDBRANCH   4  26
TORSDOF 9
ENDMDL
MODEL 2
REMARK VINA RESULT:     -10.2      2.558      3.580
REMARK  Name = 3356
REMARK  9 active torsions:
REMARK  status: ('A' for Active; 'I' for Inactive)
REMARK    1  A    between atoms: C_1  and  C_9
REMARK    2  A    between atoms: C_2  and  O_20
REMARK    3  A    between atoms: C_4  and  O_26
REMARK    4  A    between atoms: N_8  and  C_11
REMARK    5  A    between atoms: C_11  and  C_13
REMARK    6  A    between atoms: O_20  and  C_21
REMARK    7  A    between atoms: C_21  and  C_25
REMARK    8  A    between atoms: O_26  and  C_27
REMARK    9  A    between atoms: C_27  and  C_31
REMARK                            x       y       z     vdW  Elec       q    Type
REMARK                         _______ _______ _______ _____ _____    ______ ____
ROOT
ATOM      1  C   UNL     1      33.690 -14.415 -22.917  0.00  0.00    +0.090 C 
ATOM      2  C   UNL     1      32.893 -14.320 -21.777  0.00  0.00    +0.143 C 
ATOM      3  C   UNL     1      34.574 -15.484 -23.064  0.00  0.00    +0.044 C 
ATOM      4  C   UNL     1      34.661 -16.459 -22.069  0.00  0.00    +0.139 C 
ATOM      5  C   UNL     1      32.980 -15.294 -20.782  0.00  0.00    +0.040 C 
ATOM      6  C   UNL     1      33.864 -16.363 -20.928  0.00  0.00    +0.040 C 
ENDROOT
BRANCH   1   9
ATOM      7  O   UNL     1      33.256 -13.725 -25.116  0.00  0.00    -0.270 OA
ATOM      8  N   UNL     1      33.936 -12.085 -23.621  0.00  0.00    -0.303 N 
ATOM      9  C   UNL     1      33.612 -13.390 -23.989  0.00  0.00    +0.249 C 
ATOM     10  H   UNL     1      34.211 -11.913 -22.691  0.00  0.00    +0.150 HD
BRANCH   8  11
ATOM     11  C   UNL     1      33.884 -10.985 -24.534  0.00  0.00    +0.068 C 
BRANCH  11  13
ATOM     12  N   UNL     1      32.437  -9.100 -23.972  0.00  0.00    +0.386 N 
ATOM     13  C   UNL     1      33.784  -9.656 -23.787  0.00  0.00    -0.042 C 
ATOM     14  C   UNL     1      34.852  -8.675 -24.289  0.00  0.00    -0.020 C 
ATOM     15  C   UNL     1      34.717  -7.314 -23.609  0.00  0.00    -0.004 C 
ATOM     16  C   UNL     1      33.290  -6.792 -23.737  0.00  0.00    -0.023 C 
ATOM     17  C   UNL     1      32.276  -7.830 -23.263  0.00  0.00    -0.082 C 
ATOM     18  H   UNL     1      31.753  -9.767 -23.616  0.00  0.00    -0.084 HD
ATOM     19  H   UNL     1      32.299  -8.929 -24.968  0.00  0.00    -0.084 HD
ENDBRANCH  11  13
ENDBRANCH   8  11
ENDBRANCH   1   9
BRANCH   2  20
ATOM     20  O   UNL     1      32.023 -13.283 -21.617  0.00  0.00    -0.466 OA
BRANCH  20  21
ATOM     21  C   UNL     1      31.994 -12.654 -20.336  0.00  0.00    +0.308 C 
BRANCH  21  25
ATOM     22  F   UNL     1      30.933 -10.878 -19.220  0.00  0.00    -0.166 F 
ATOM     23  F   UNL     1      30.095 -11.504 -21.134  0.00  0.00    -0.166 F 
ATOM     24  F   UNL     1      31.987 -10.412 -21.070  0.00  0.00    -0.166 F 
ATOM     25  C   UNL     1      31.246 -11.352 -20.445  0.00  0.00    +0.438 C 
ENDBRANCH  21  25
ENDBRANCH  20  21
ENDBRANCH   2  20
BRANCH   4  26
ATOM     26  O   UNL     1      35.524 -17.502 -22.210  0.00  0.00    -0.467 OA
BRANCH  26  27
ATOM     27  C   UNL     1      35.664 -18.385 -21.098  0.00  0.00    +0.308 C 
BRANCH  27  31
ATOM     28  F   UNL     1      34.714 -19.791 -22.724  0.00  0.00    -0.166 F 
ATOM     29  F   UNL     1      33.743 -19.717 -20.772  0.00  0.00    -0.166 F 
ATOM     30  F   UNL     1      35.659 -20.742 -21.005  0.00  0.00    -0.166 F 
ATOM     31  C   UNL     1      34.939 -19.670 -21.398  0.00  0.00    +0.438 C 
ENDBRANCH  27  31
ENDBRANCH  26  27
ENDBRANCH   4  26
TORSDOF 9
ENDMDL
MODEL 3
REMARK VINA RESULT:      -9.9      8.528     11.871
REMARK  Name = 3356
REMARK  9 active torsions:
REMARK  status: ('A' for Active; 'I' for Inactive)
REMARK    1  A    between atoms: C_1  and  C_9
REMARK    2  A    between atoms: C_2  and  O_20
REMARK    3  A    between atoms: C_4  and  O_26
REMARK    4  A    between atoms: N_8  and  C_11
REMARK    5  A    between atoms: C_11  and  C_13
REMARK    6  A    between atoms: O_20  and  C_21
REMARK    7  A    between atoms: C_21  and  C_25
REMARK    8  A    between atoms: O_26  and  C_27
REMARK    9  A    between atoms: C_27  and  C_31
REMARK                            x       y       z     vdW  Elec       q    Type
REMARK                         _______ _______ _______ _____ _____    ______ ____
ROOT
ATOM      1  C   UNL     1      33.118 -23.172 -16.971  0.00  0.00    +0.090 C 
ATOM      2  C   UNL     1      34.162 -23.445 -16.087  0.00  0.00    +0.143 C 
ATOM      3  C   UNL     1      31.801 -23.161 -16.513  0.00  0.00    +0.044 C 
ATOM      4  C   UNL     1      31.528 -23.422 -15.169  0.00  0.00    +0.139 C 
ATOM      5  C   UNL     1      33.889 -23.706 -14.745  0.00  0.00    +0.040 C 
ATOM      6  C   UNL     1      32.572 -23.695 -14.286  0.00  0.00    +0.040 C 
ENDROOT
BRANCH   1   9
ATOM      7  O   UNL     1      33.872 -23.771 -19.109  0.00  0.00    -0.270 OA
ATOM      8  N   UNL     1      33.040 -21.619 -18.859  0.00  0.00    -0.303 N 
ATOM      9  C   UNL     1      33.388 -22.890 -18.404  0.00  0.00    +0.249 C 
ATOM     10  H   UNL     1      32.657 -20.978 -18.218  0.00  0.00    +0.150 HD
BRANCH   8  11
ATOM     11  C   UNL     1      33.215 -21.206 -20.218  0.00  0.00    +0.068 C 
BRANCH  11  13
ATOM     12  N   UNL     1      33.883 -19.221 -21.474  0.00  0.00    +0.386 N 
ATOM     13  C   UNL     1      34.223 -20.062 -20.318  0.00  0.00    -0.042 C 
ATOM     14  C   UNL     1      35.650 -20.611 -20.446  0.00  0.00    -0.020 C 
ATOM     15  C   UNL     1      36.663 -19.483 -20.627  0.00  0.00    -0.004 C 
ATOM     16  C   UNL     1      36.248 -18.571 -21.777  0.00  0.00    -0.023 C 
ATOM     17  C   UNL     1      34.807 -18.095 -21.612  0.00  0.00    -0.082 C 
ATOM     18  H   UNL     1      32.937 -18.861 -21.353  0.00  0.00    -0.084 HD
ATOM     19  H   UNL     1      33.951 -19.795 -22.314  0.00  0.00    -0.084 HD
ENDBRANCH  11  13
ENDBRANCH   8  11
ENDBRANCH   1   9
BRANCH   2  20
ATOM     20  O   UNL     1      35.456 -23.459 -16.516  0.00  0.00    -0.466 OA
BRANCH  20  21
ATOM     21  C   UNL     1      36.392 -22.675 -15.778  0.00  0.00    +0.308 C 
BRANCH  21  25
ATOM     22  F   UNL     1      37.629 -23.372 -13.904  0.00  0.00    -0.166 F 
ATOM     23  F   UNL     1      38.651 -23.352 -15.830  0.00  0.00    -0.166 F 
ATOM     24  F   UNL     1      37.148 -24.879 -15.404  0.00  0.00    -0.166 F 
ATOM     25  C   UNL     1      37.465 -23.579 -15.228  0.00  0.00    +0.438 C 
ENDBRANCH  21  25
ENDBRANCH  20  21
ENDBRANCH   2  20
BRANCH   4  26
ATOM     26  O   UNL     1      30.242 -23.413 -14.722  0.00  0.00    -0.467 OA
BRANCH  26  27
ATOM     27  C   UNL     1      29.351 -22.475 -15.324  0.00  0.00    +0.308 C 
BRANCH  27  31
ATOM     28  F   UNL     1      27.051 -22.718 -15.743  0.00  0.00    -0.166 F 
ATOM     29  F   UNL     1      28.263 -24.532 -15.713  0.00  0.00    -0.166 F 
ATOM     30  F   UNL     1      28.420 -23.137 -17.388  0.00  0.00    -0.166 F 
ATOM     31  C   UNL     1      28.266 -23.224 -16.050  0.00  0.00    +0.438 C 
ENDBRANCH  27  31
ENDBRANCH  26  27
ENDBRANCH   4  26
TORSDOF 9
ENDMDL
MODEL 4
REMARK VINA RESULT:      -9.9      8.556     11.652
REMARK  Name = 3356
REMARK  9 active torsions:
REMARK  status: ('A' for Active; 'I' for Inactive)
REMARK    1  A    between atoms: C_1  and  C_9
REMARK    2  A    between atoms: C_2  and  O_20
REMARK    3  A    between atoms: C_4  and  O_26
REMARK    4  A    between atoms: N_8  and  C_11
REMARK    5  A    between atoms: C_11  and  C_13
REMARK    6  A    between atoms: O_20  and  C_21
REMARK    7  A    between atoms: C_21  and  C_25
REMARK    8  A    between atoms: O_26  and  C_27
REMARK    9  A    between atoms: C_27  and  C_31
REMARK                            x       y       z     vdW  Elec       q    Type
REMARK                         _______ _______ _______ _____ _____    ______ ____
ROOT
ATOM      1  C   UNL     1      33.372 -23.241 -17.013  0.00  0.00    +0.090 C 
ATOM      2  C   UNL     1      32.133 -23.237 -16.372  0.00  0.00    +0.143 C 
ATOM      3  C   UNL     1      34.525 -23.571 -16.300  0.00  0.00    +0.044 C 
ATOM      4  C   UNL     1      34.439 -23.897 -14.946  0.00  0.00    +0.139 C 
ATOM      5  C   UNL     1      32.047 -23.563 -15.019  0.00  0.00    +0.040 C 
ATOM      6  C   UNL     1      33.199 -23.892 -14.306  0.00  0.00    +0.040 C 
ENDROOT
BRANCH   1   9
ATOM      7  O   UNL     1      33.915 -23.740 -19.238  0.00  0.00    -0.270 OA
ATOM      8  N   UNL     1      33.064 -21.622 -18.821  0.00  0.00    -0.303 N 
ATOM      9  C   UNL     1      33.486 -22.899 -18.454  0.00  0.00    +0.249 C 
ATOM     10  H   UNL     1      32.734 -21.016 -18.119  0.00  0.00    +0.150 HD
BRANCH   8  11
ATOM     11  C   UNL     1      33.089 -21.155 -20.173  0.00  0.00    +0.068 C 
BRANCH  11  13
ATOM     12  N   UNL     1      33.748 -19.248 -21.547  0.00  0.00    +0.386 N 
ATOM     13  C   UNL     1      34.089 -20.013 -20.341  0.00  0.00    -0.042 C 
ATOM     14  C   UNL     1      35.521 -20.560 -20.430  0.00  0.00    -0.020 C 
ATOM     15  C   UNL     1      36.527 -19.439 -20.678  0.00  0.00    -0.004 C 
ATOM     16  C   UNL     1      36.111 -18.603 -21.883  0.00  0.00    -0.023 C 
ATOM     17  C   UNL     1      34.666 -18.127 -21.752  0.00  0.00    -0.082 C 
ATOM     18  H   UNL     1      32.800 -18.886 -21.452  0.00  0.00    -0.084 HD
ATOM     19  H   UNL     1      33.823 -19.872 -22.350  0.00  0.00    -0.084 HD
ENDBRANCH  11  13
ENDBRANCH   8  11
ENDBRANCH   1   9
BRANCH   2  20
ATOM     20  O   UNL     1      30.996 -22.919 -17.052  0.00  0.00    -0.466 OA
BRANCH  20  21
ATOM     21  C   UNL     1      29.862 -22.538 -16.275  0.00  0.00    +0.308 C 
BRANCH  21  25
ATOM     22  F   UNL     1      28.182 -23.372 -17.693  0.00  0.00    -0.166 F 
ATOM     23  F   UNL     1      27.799 -23.421 -15.547  0.00  0.00    -0.166 F 
ATOM     24  F   UNL     1      29.235 -24.808 -16.435  0.00  0.00    -0.166 F 
ATOM     25  C   UNL     1      28.761 -23.545 -16.485  0.00  0.00    +0.438 C 
ENDBRANCH  21  25
ENDBRANCH  20  21
ENDBRANCH   2  20
BRANCH   4  26
ATOM     26  O   UNL     1      35.564 -24.217 -14.250  0.00  0.00    -0.467 OA
BRANCH  26  27
ATOM     27  C   UNL     1      36.737 -24.505 -15.008  0.00  0.00    +0.308 C 
BRANCH  27  31
ATOM     28  F   UNL     1      36.829 -26.337 -13.538  0.00  0.00    -0.166 F 
ATOM     29  F   UNL     1      38.437 -26.142 -15.000  0.00  0.00    -0.166 F 
ATOM     30  F   UNL     1      36.441 -26.758 -15.642  0.00  0.00    -0.166 F 
ATOM     31  C   UNL     1      37.116 -25.948 -14.800  0.00  0.00    +0.438 C 
ENDBRANCH  27  31
ENDBRANCH  26  27
ENDBRANCH   4  26
TORSDOF 9
ENDMDL
MODEL 5
REMARK VINA RESULT:      -9.8      8.511     12.060
REMARK  Name = 3356
REMARK  9 active torsions:
REMARK  status: ('A' for Active; 'I' for Inactive)
REMARK    1  A    between atoms: C_1  and  C_9
REMARK    2  A    between atoms: C_2  and  O_20
REMARK    3  A    between atoms: C_4  and  O_26
REMARK    4  A    between atoms: N_8  and  C_11
REMARK    5  A    between atoms: C_11  and  C_13
REMARK    6  A    between atoms: O_20  and  C_21
REMARK    7  A    between atoms: C_21  and  C_25
REMARK    8  A    between atoms: O_26  and  C_27
REMARK    9  A    between atoms: C_27  and  C_31
REMARK                            x       y       z     vdW  Elec       q    Type
REMARK                         _______ _______ _______ _____ _____    ______ ____
ROOT
ATOM      1  C   UNL     1      36.643 -22.693 -16.157  0.00  0.00    +0.090 C 
ATOM      2  C   UNL     1      35.362 -23.219 -15.996  0.00  0.00    +0.143 C 
ATOM      3  C   UNL     1      37.690 -23.146 -15.354  0.00  0.00    +0.044 C 
ATOM      4  C   UNL     1      37.454 -24.127 -14.390  0.00  0.00    +0.139 C 
ATOM      5  C   UNL     1      35.126 -24.199 -15.033  0.00  0.00    +0.040 C 
ATOM      6  C   UNL     1      36.171 -24.652 -14.229  0.00  0.00    +0.040 C 
ENDROOT
BRANCH   1   9
ATOM      7  O   UNL     1      37.518 -20.631 -16.850  0.00  0.00    -0.270 OA
ATOM      8  N   UNL     1      36.476 -21.922 -18.473  0.00  0.00    -0.303 N 
ATOM      9  C   UNL     1      36.916 -21.649 -17.179  0.00  0.00    +0.249 C 
ATOM     10  H   UNL     1      36.001 -22.768 -18.639  0.00  0.00    +0.150 HD
BRANCH   8  11
ATOM     11  C   UNL     1      36.686 -21.027 -19.569  0.00  0.00    +0.068 C 
BRANCH  11  13
ATOM     12  N   UNL     1      35.282 -19.367 -20.680  0.00  0.00    +0.386 N 
ATOM     13  C   UNL     1      35.390 -20.793 -20.342  0.00  0.00    -0.042 C 
ATOM     14  C   UNL     1      34.180 -21.250 -19.516  0.00  0.00    -0.020 C 
ATOM     15  C   UNL     1      32.870 -20.950 -20.240  0.00  0.00    -0.004 C 
ATOM     16  C   UNL     1      32.813 -19.484 -20.658  0.00  0.00    -0.023 C 
ATOM     17  C   UNL     1      34.063 -19.083 -21.438  0.00  0.00    -0.082 C 
ATOM     18  H   UNL     1      36.091 -19.098 -21.240  0.00  0.00    -0.084 HD
ATOM     19  H   UNL     1      35.247 -18.837 -19.809  0.00  0.00    -0.084 HD
ENDBRANCH  11  13
ENDBRANCH   8  11
ENDBRANCH   1   9
BRANCH   2  20
ATOM     20  O   UNL     1      34.327 -22.789 -16.772  0.00  0.00    -0.466 OA
BRANCH  20  21
ATOM     21  C   UNL     1      33.290 -23.729 -17.047  0.00  0.00    +0.308 C 
BRANCH  21  25
ATOM     22  F   UNL     1      31.137 -24.256 -16.263  0.00  0.00    -0.166 F 
ATOM     23  F   UNL     1      31.408 -22.317 -17.223  0.00  0.00    -0.166 F 
ATOM     24  F   UNL     1      32.222 -22.674 -15.227  0.00  0.00    -0.166 F 
ATOM     25  C   UNL     1      32.005 -23.236 -16.435  0.00  0.00    +0.438 C 
ENDBRANCH  21  25
ENDBRANCH  20  21
ENDBRANCH   2  20
BRANCH   4  26
ATOM     26  O   UNL     1      38.474 -24.569 -13.604  0.00  0.00    -0.467 OA
BRANCH  26  27
ATOM     27  C   UNL     1      39.002 -25.863 -13.892  0.00  0.00    +0.308 C 
BRANCH  27  31
ATOM     28  F   UNL     1      41.092 -26.821 -14.379  0.00  0.00    -0.166 F 
ATOM     29  F   UNL     1      41.031 -24.667 -14.037  0.00  0.00    -0.166 F 
ATOM     30  F   UNL     1      40.216 -25.507 -15.883  0.00  0.00    -0.166 F 
ATOM     31  C   UNL     1      40.345 -25.709 -14.555  0.00  0.00    +0.438 C 
ENDBRANCH  27  31
ENDBRANCH  26  27
ENDBRANCH   4  26
TORSDOF 9
ENDMDL
MODEL 6
REMARK VINA RESULT:      -9.8      1.167      1.595
REMARK  Name = 3356
REMARK  9 active torsions:
REMARK  status: ('A' for Active; 'I' for Inactive)
REMARK    1  A    between atoms: C_1  and  C_9
REMARK    2  A    between atoms: C_2  and  O_20
REMARK    3  A    between atoms: C_4  and  O_26
REMARK    4  A    between atoms: N_8  and  C_11
REMARK    5  A    between atoms: C_11  and  C_13
REMARK    6  A    between atoms: O_20  and  C_21
REMARK    7  A    between atoms: C_21  and  C_25
REMARK    8  A    between atoms: O_26  and  C_27
REMARK    9  A    between atoms: C_27  and  C_31
REMARK                            x       y       z     vdW  Elec       q    Type
REMARK                         _______ _______ _______ _____ _____    ______ ____
ROOT
ATOM      1  C   UNL     1      33.380 -14.453 -22.141  0.00  0.00    +0.090 C 
ATOM      2  C   UNL     1      33.699 -14.568 -23.494  0.00  0.00    +0.143 C 
ATOM      3  C   UNL     1      33.911 -15.356 -21.220  0.00  0.00    +0.044 C 
ATOM      4  C   UNL     1      34.761 -16.374 -21.652  0.00  0.00    +0.139 C 
ATOM      5  C   UNL     1      34.548 -15.586 -23.926  0.00  0.00    +0.040 C 
ATOM      6  C   UNL     1      35.078 -16.490 -23.006  0.00  0.00    +0.040 C 
ENDROOT
BRANCH   1   9
ATOM      7  O   UNL     1      32.245 -13.280 -20.458  0.00  0.00    -0.270 OA
ATOM      8  N   UNL     1      31.972 -12.513 -22.631  0.00  0.00    -0.303 N 
ATOM      9  C   UNL     1      32.479 -13.374 -21.660  0.00  0.00    +0.249 C 
ATOM     10  H   UNL     1      32.217 -12.669 -23.572  0.00  0.00    +0.150 HD
BRANCH   8  11
ATOM     11  C   UNL     1      31.112 -11.412 -22.321  0.00  0.00    +0.068 C 
BRANCH  11  13
ATOM     12  N   UNL     1      31.737  -9.717 -20.680  0.00  0.00    +0.386 N 
ATOM     13  C   UNL     1      31.919 -10.139 -22.075  0.00  0.00    -0.042 C 
ATOM     14  C   UNL     1      31.481  -9.029 -23.041  0.00  0.00    -0.020 C 
ATOM     15  C   UNL     1      32.222  -7.724 -22.756  0.00  0.00    -0.004 C 
ATOM     16  C   UNL     1      32.093  -7.347 -21.284  0.00  0.00    -0.023 C 
ATOM     17  C   UNL     1      32.501  -8.506 -20.379  0.00  0.00    -0.082 C 
ATOM     18  H   UNL     1      32.049 -10.467 -20.064  0.00  0.00    -0.084 HD
ATOM     19  H   UNL     1      30.748  -9.513 -20.536  0.00  0.00    -0.084 HD
ENDBRANCH  11  13
ENDBRANCH   8  11
ENDBRANCH   1   9
BRANCH   2  20
ATOM     20  O   UNL     1      33.191 -13.694 -24.409  0.00  0.00    -0.466 OA
BRANCH  20  21
ATOM     21  C   UNL     1      32.846 -14.224 -25.688  0.00  0.00    +0.308 C 
BRANCH  21  25
ATOM     22  F   UNL     1      33.569 -12.042 -26.182  0.00  0.00    -0.166 F 
ATOM     23  F   UNL     1      32.077 -12.927 -27.503  0.00  0.00    -0.166 F 
ATOM     24  F   UNL     1      34.147 -13.626 -27.563  0.00  0.00    -0.166 F 
ATOM     25  C   UNL     1      33.161 -13.199 -26.746  0.00  0.00    +0.438 C 
ENDBRANCH  21  25
ENDBRANCH  20  21
ENDBRANCH   2  20
BRANCH   4  26
ATOM     26  O   UNL     1      35.277 -17.258 -20.754  0.00  0.00    -0.467 OA
BRANCH  26  27
ATOM     27  C   UNL     1      35.929 -18.412 -21.280  0.00  0.00    +0.308 C 
BRANCH  27  31
ATOM     28  F   UNL     1      35.568 -20.715 -20.979  0.00  0.00    -0.166 F 
ATOM     29  F   UNL     1      34.416 -19.715 -22.538  0.00  0.00    -0.166 F 
ATOM     30  F   UNL     1      33.944 -19.366 -20.433  0.00  0.00    -0.166 F 
ATOM     31  C   UNL     1      34.953 -19.558 -21.309  0.00  0.00    +0.438 C 
ENDBRANCH  27  31
ENDBRANCH  26  27
ENDBRANCH   4  26
TORSDOF 9
ENDMDL
MODEL 7
REMARK VINA RESULT:      -9.6      9.120     13.040
REMARK  Name = 3356
REMARK  9 active torsions:
REMARK  status: ('A' for Active; 'I' for Inactive)
REMARK    1  A    between atoms: C_1  and  C_9
REMARK    2  A    between atoms: C_2  and  O_20
REMARK    3  A    between atoms: C_4  and  O_26
REMARK    4  A    between atoms: N_8  and  C_11
REMARK    5  A    between atoms: C_11  and  C_13
REMARK    6  A    between atoms: O_20  and  C_21
REMARK    7  A    between atoms: C_21  and  C_25
REMARK    8  A    between atoms: O_26  and  C_27
REMARK    9  A    between atoms: C_27  and  C_31
REMARK                            x       y       z     vdW  Elec       q    Type
REMARK                         _______ _______ _______ _____ _____    ______ ____
ROOT
ATOM      1  C   UNL     1      35.809 -23.089 -15.153  0.00  0.00    +0.090 C 
ATOM      2  C   UNL     1      36.431 -23.592 -14.010  0.00  0.00    +0.143 C 
ATOM      3  C   UNL     1      34.431 -23.224 -15.314  0.00  0.00    +0.044 C 
ATOM      4  C   UNL     1      33.673 -23.861 -14.330  0.00  0.00    +0.139 C 
ATOM      5  C   UNL     1      35.674 -24.229 -13.028  0.00  0.00    +0.040 C 
ATOM      6  C   UNL     1      34.296 -24.365 -13.188  0.00  0.00    +0.040 C 
ENDROOT
BRANCH   1   9
ATOM      7  O   UNL     1      37.746 -22.047 -15.966  0.00  0.00    -0.270 OA
ATOM      8  N   UNL     1      35.965 -22.238 -17.441  0.00  0.00    -0.303 N 
ATOM      9  C   UNL     1      36.597 -22.405 -16.211  0.00  0.00    +0.249 C 
ATOM     10  H   UNL     1      35.039 -22.559 -17.542  0.00  0.00    +0.150 HD
BRANCH   8  11
ATOM     11  C   UNL     1      36.602 -21.621 -18.564  0.00  0.00    +0.068 C 
BRANCH  11  13
ATOM     12  N   UNL     1      35.823 -19.950 -20.165  0.00  0.00    +0.386 N 
ATOM     13  C   UNL     1      35.590 -21.312 -19.666  0.00  0.00    -0.042 C 
ATOM     14  C   UNL     1      34.156 -21.461 -19.139  0.00  0.00    -0.020 C 
ATOM     15  C   UNL     1      33.132 -21.078 -20.205  0.00  0.00    -0.004 C 
ATOM     16  C   UNL     1      33.441 -19.696 -20.772  0.00  0.00    -0.023 C 
ATOM     17  C   UNL     1      34.891 -19.601 -21.238  0.00  0.00    -0.082 C 
ATOM     18  H   UNL     1      36.777 -19.886 -20.521  0.00  0.00    -0.084 HD
ATOM     19  H   UNL     1      35.677 -19.300 -19.392  0.00  0.00    -0.084 HD
ENDBRANCH  11  13
ENDBRANCH   8  11
ENDBRANCH   1   9
BRANCH   2  20
ATOM     20  O   UNL     1      37.777 -23.469 -13.835  0.00  0.00    -0.466 OA
BRANCH  20  21
ATOM     21  C   UNL     1      38.448 -24.551 -13.192  0.00  0.00    +0.308 C 
BRANCH  21  25
ATOM     22  F   UNL     1      39.512 -24.592 -15.289  0.00  0.00    -0.166 F 
ATOM     23  F   UNL     1      38.420 -26.380 -14.683  0.00  0.00    -0.166 F 
ATOM     24  F   UNL     1      40.322 -25.881 -13.729  0.00  0.00    -0.166 F 
ATOM     25  C   UNL     1      39.181 -25.361 -14.230  0.00  0.00    +0.438 C 
ENDBRANCH  21  25
ENDBRANCH  20  21
ENDBRANCH   2  20
BRANCH   4  26
ATOM     26  O   UNL     1      32.327 -23.995 -14.487  0.00  0.00    -0.467 OA
BRANCH  26  27
ATOM     27  C   UNL     1      31.567 -22.795 -14.627  0.00  0.00    +0.308 C 
BRANCH  27  31
ATOM     28  F   UNL     1      30.386 -24.276 -16.018  0.00  0.00    -0.166 F 
ATOM     29  F   UNL     1      31.024 -22.378 -16.885  0.00  0.00    -0.166 F 
ATOM     30  F   UNL     1      29.384 -22.427 -15.441  0.00  0.00    -0.166 F 
ATOM     31  C   UNL     1      30.582 -22.966 -15.752  0.00  0.00    +0.438 C 
ENDBRANCH  27  31
ENDBRANCH  26  27
ENDBRANCH   4  26
TORSDOF 9
ENDMDL
MODEL 8
REMARK VINA RESULT:      -9.6      8.315     13.574
REMARK  Name = 3356
REMARK  9 active torsions:
REMARK  status: ('A' for Active; 'I' for Inactive)
REMARK    1  A    between atoms: C_1  and  C_9
REMARK    2  A    between atoms: C_2  and  O_20
REMARK    3  A    between atoms: C_4  and  O_26
REMARK    4  A    between atoms: N_8  and  C_11
REMARK    5  A    between atoms: C_11  and  C_13
REMARK    6  A    between atoms: O_20  and  C_21
REMARK    7  A    between atoms: C_21  and  C_25
REMARK    8  A    between atoms: O_26  and  C_27
REMARK    9  A    between atoms: C_27  and  C_31
REMARK                            x       y       z     vdW  Elec       q    Type
REMARK                         _______ _______ _______ _____ _____    ______ ____
ROOT
ATOM      1  C   UNL     1      35.169 -23.049 -16.242  0.00  0.00    +0.090 C 
ATOM      2  C   UNL     1      36.490 -22.685 -15.983  0.00  0.00    +0.143 C 
ATOM      3  C   UNL     1      34.570 -22.692 -17.450  0.00  0.00    +0.044 C 
ATOM      4  C   UNL     1      35.293 -21.969 -18.400  0.00  0.00    +0.139 C 
ATOM      5  C   UNL     1      37.213 -21.964 -16.932  0.00  0.00    +0.040 C 
ATOM      6  C   UNL     1      36.615 -21.605 -18.140  0.00  0.00    +0.040 C 
ENDROOT
BRANCH   1   9
ATOM      7  O   UNL     1      34.678 -24.991 -15.022  0.00  0.00    -0.270 OA
ATOM      8  N   UNL     1      33.353 -23.132 -14.605  0.00  0.00    -0.303 N 
ATOM      9  C   UNL     1      34.382 -23.820 -15.245  0.00  0.00    +0.249 C 
ATOM     10  H   UNL     1      33.190 -22.193 -14.851  0.00  0.00    +0.150 HD
BRANCH   8  11
ATOM     11  C   UNL     1      32.524 -23.731 -13.604  0.00  0.00    +0.068 C 
BRANCH  11  13
ATOM     12  N   UNL     1      30.646 -25.099 -14.353  0.00  0.00    +0.386 N 
ATOM     13  C   UNL     1      31.057 -23.726 -14.032  0.00  0.00    -0.042 C 
ATOM     14  C   UNL     1      30.851 -22.800 -15.238  0.00  0.00    -0.020 C 
ATOM     15  C   UNL     1      29.406 -22.845 -15.729  0.00  0.00    -0.004 C 
ATOM     16  C   UNL     1      28.969 -24.285 -15.976  0.00  0.00    -0.023 C 
ATOM     17  C   UNL     1      29.241 -25.161 -14.756  0.00  0.00    -0.082 C 
ATOM     18  H   UNL     1      30.781 -25.686 -13.530  0.00  0.00    -0.084 HD
ATOM     19  H   UNL     1      31.216 -25.427 -15.133  0.00  0.00    -0.084 HD
ENDBRANCH  11  13
ENDBRANCH   8  11
ENDBRANCH   1   9
BRANCH   2  20
ATOM     20  O   UNL     1      37.092 -23.027 -14.809  0.00  0.00    -0.466 OA
BRANCH  20  21
ATOM     21  C   UNL     1      38.031 -24.101 -14.852  0.00  0.00    +0.308 C 
BRANCH  21  25
ATOM     22  F   UNL     1      36.902 -24.454 -12.820  0.00  0.00    -0.166 F 
ATOM     23  F   UNL     1      39.061 -24.755 -12.833  0.00  0.00    -0.166 F 
ATOM     24  F   UNL     1      37.748 -26.201 -13.813  0.00  0.00    -0.166 F 
ATOM     25  C   UNL     1      37.938 -24.886 -13.570  0.00  0.00    +0.438 C 
ENDBRANCH  21  25
ENDBRANCH  20  21
ENDBRANCH   2  20
BRANCH   4  26
ATOM     26  O   UNL     1      34.709 -21.618 -19.578  0.00  0.00    -0.467 OA
BRANCH  26  27
ATOM     27  C   UNL     1      35.375 -20.630 -20.364  0.00  0.00    +0.308 C 
BRANCH  27  31
ATOM     28  F   UNL     1      34.173 -19.814 -22.211  0.00  0.00    -0.166 F 
ATOM     29  F   UNL     1      34.759 -18.375 -20.681  0.00  0.00    -0.166 F 
ATOM     30  F   UNL     1      33.163 -19.813 -20.279  0.00  0.00    -0.166 F 
ATOM     31  C   UNL     1      34.358 -19.648 -20.883  0.00  0.00    +0.438 C 
ENDBRANCH  27  31
ENDBRANCH  26  27
ENDBRANCH   4  26
TORSDOF 9
ENDMDL
MODEL 9
REMARK VINA RESULT:      -9.5      1.898      2.506
REMARK  Name = 3356
REMARK  9 active torsions:
REMARK  status: ('A' for Active; 'I' for Inactive)
REMARK    1  A    between atoms: C_1  and  C_9
REMARK    2  A    between atoms: C_2  and  O_20
REMARK    3  A    between atoms: C_4  and  O_26
REMARK    4  A    between atoms: N_8  and  C_11
REMARK    5  A    between atoms: C_11  and  C_13
REMARK    6  A    between atoms: O_20  and  C_21
REMARK    7  A    between atoms: C_21  and  C_25
REMARK    8  A    between atoms: O_26  and  C_27
REMARK    9  A    between atoms: C_27  and  C_31
REMARK                            x       y       z     vdW  Elec       q    Type
REMARK                         _______ _______ _______ _____ _____    ______ ____
ROOT
ATOM      1  C   UNL     1      34.001 -16.464 -21.900  0.00  0.00    +0.090 C 
ATOM      2  C   UNL     1      34.479 -16.436 -23.210  0.00  0.00    +0.143 C 
ATOM      3  C   UNL     1      34.489 -17.410 -20.998  0.00  0.00    +0.044 C 
ATOM      4  C   UNL     1      35.457 -18.328 -21.407  0.00  0.00    +0.139 C 
ATOM      5  C   UNL     1      35.446 -17.354 -23.618  0.00  0.00    +0.040 C 
ATOM      6  C   UNL     1      35.935 -18.300 -22.718  0.00  0.00    +0.040 C 
ENDROOT
BRANCH   1   9
ATOM      7  O   UNL     1      32.109 -15.863 -20.651  0.00  0.00    -0.270 OA
ATOM      8  N   UNL     1      33.079 -14.198 -21.944  0.00  0.00    -0.303 N 
ATOM      9  C   UNL     1      32.972 -15.494 -21.443  0.00  0.00    +0.249 C 
ATOM     10  H   UNL     1      33.807 -13.997 -22.577  0.00  0.00    +0.150 HD
BRANCH   8  11
ATOM     11  C   UNL     1      32.180 -13.147 -21.579  0.00  0.00    +0.068 C 
BRANCH  11  13
ATOM     12  N   UNL     1      33.493 -12.007 -23.292  0.00  0.00    +0.386 N 
ATOM     13  C   UNL     1      32.185 -12.033 -22.623  0.00  0.00    -0.042 C 
ATOM     14  C   UNL     1      31.883 -10.678 -21.967  0.00  0.00    -0.020 C 
ATOM     15  C   UNL     1      31.963  -9.541 -22.983  0.00  0.00    -0.004 C 
ATOM     16  C   UNL     1      33.293  -9.582 -23.728  0.00  0.00    -0.023 C 
ATOM     17  C   UNL     1      33.553 -10.965 -24.318  0.00  0.00    -0.082 C 
ATOM     18  H   UNL     1      33.658 -12.913 -23.730  0.00  0.00    -0.084 HD
ATOM     19  H   UNL     1      34.204 -11.804 -22.590  0.00  0.00    -0.084 HD
ENDBRANCH  11  13
ENDBRANCH   8  11
ENDBRANCH   1   9
BRANCH   2  20
ATOM     20  O   UNL     1      34.015 -15.518 -24.104  0.00  0.00    -0.466 OA
BRANCH  20  21
ATOM     21  C   UNL     1      33.954 -15.920 -25.471  0.00  0.00    +0.308 C 
BRANCH  21  25
ATOM     22  F   UNL     1      32.379 -14.179 -25.352  0.00  0.00    -0.166 F 
ATOM     23  F   UNL     1      32.066 -15.713 -26.870  0.00  0.00    -0.166 F 
ATOM     24  F   UNL     1      33.668 -14.246 -27.109  0.00  0.00    -0.166 F 
ATOM     25  C   UNL     1      33.010 -15.009 -26.210  0.00  0.00    +0.438 C 
ENDBRANCH  21  25
ENDBRANCH  20  21
ENDBRANCH   2  20
BRANCH   4  26
ATOM     26  O   UNL     1      35.933 -19.253 -20.529  0.00  0.00    -0.467 OA
BRANCH  26  27
ATOM     27  C   UNL     1      35.061 -20.329 -20.184  0.00  0.00    +0.308 C 
BRANCH  27  31
ATOM     28  F   UNL     1      36.070 -21.323 -18.308  0.00  0.00    -0.166 F 
ATOM     29  F   UNL     1      37.096 -21.524 -20.223  0.00  0.00    -0.166 F 
ATOM     30  F   UNL     1      35.266 -22.654 -19.837  0.00  0.00    -0.166 F 
ATOM     31  C   UNL     1      35.880 -21.469 -19.638  0.00  0.00    +0.438 C 
ENDBRANCH  27  31
ENDBRANCH  26  27
ENDBRANCH   4  26
TORSDOF 9
ENDMDL
