MODEL 1
REMARK VINA RESULT:     -10.5      0.000      0.000
REMARK  Name = 11395145
REMARK  8 active torsions:
REMARK  status: ('A' for Active; 'I' for Inactive)
REMARK    1  A    between atoms: N_1  and  S_10
REMARK    2  A    between atoms: C_2  and  C_23
REMARK    3  A    between atoms: C_8  and  O_21
REMARK    4  A    between atoms: S_10  and  C_13
REMARK    5  A    between atoms: C_18  and  O_19
REMARK    6  A    between atoms: C_23  and  C_24
REMARK    7  A    between atoms: C_24  and  C_26
REMARK    8  A    between atoms: C_26  and  O_27
REMARK                            x       y       z     vdW  Elec       q    Type
REMARK                         _______ _______ _______ _____ _____    ______ ____
ROOT
ATOM      1  N   UNL     1      34.943 -17.155 -22.472  0.00  0.00    -0.168 N 
ATOM      2  C   UNL     1      34.170 -15.237 -21.667  0.00  0.00    -0.004 C 
ATOM      3  C   UNL     1      33.927 -15.260 -23.068  0.00  0.00    +0.016 C 
ATOM      4  C   UNL     1      34.421 -16.475 -23.550  0.00  0.00    +0.074 C 
ATOM      5  C   UNL     1      34.796 -16.415 -21.329  0.00  0.00    +0.085 C 
ATOM      6  C   UNL     1      33.331 -14.363 -23.977  0.00  0.00    +0.038 C 
ATOM      7  C   UNL     1      34.351 -16.837 -24.899  0.00  0.00    +0.020 C 
ATOM      8  C   UNL     1      33.254 -14.713 -25.330  0.00  0.00    +0.139 C 
ATOM      9  C   UNL     1      33.757 -15.931 -25.782  0.00  0.00    +0.038 C 
ENDROOT
BRANCH   1  10
ATOM     10  S   UNL     1      35.656 -18.659 -22.520  0.00  0.00    +0.080 S 
ATOM     11  O   UNL     1      37.021 -18.460 -22.034  0.00  0.00    -0.149 OA
ATOM     12  O   UNL     1      35.411 -19.246 -23.840  0.00  0.00    -0.149 OA
BRANCH  10  13
ATOM     13  C   UNL     1      34.793 -19.684 -21.357  0.00  0.00    +0.126 C 
ATOM     14  C   UNL     1      35.521 -20.525 -20.538  0.00  0.00    +0.023 C 
ATOM     15  C   UNL     1      33.415 -19.617 -21.300  0.00  0.00    +0.023 C 
ATOM     16  C   UNL     1      34.843 -21.330 -19.623  0.00  0.00    +0.038 C 
ATOM     17  C   UNL     1      32.737 -20.422 -20.384  0.00  0.00    +0.038 C 
ATOM     18  C   UNL     1      33.451 -21.279 -19.546  0.00  0.00    +0.139 C 
BRANCH  18  19
ATOM     19  O   UNL     1      32.789 -22.065 -18.653  0.00  0.00    -0.471 OA
ATOM     20  C   UNL     1      33.568 -23.003 -17.913  0.00  0.00    +0.252 C 
ENDBRANCH  18  19
ENDBRANCH  10  13
ENDBRANCH   1  10
BRANCH   8  21
ATOM     21  O   UNL     1      32.680 -13.850 -26.215  0.00  0.00    -0.471 OA
ATOM     22  C   UNL     1      33.496 -13.388 -27.290  0.00  0.00    +0.252 C 
ENDBRANCH   8  21
BRANCH   2  23
ATOM     23  C   UNL     1      33.817 -14.148 -20.732  0.00  0.00    +0.039 C 
BRANCH  23  24
ATOM     24  C   UNL     1      32.303 -13.980 -20.487  0.00  0.00    +0.114 C 
BRANCH  24  26
ATOM     25  O   UNL     1      31.799 -11.703 -19.777  0.00  0.00    -0.250 OA
ATOM     26  C   UNL     1      31.824 -12.554 -20.655  0.00  0.00    +0.314 C 
BRANCH  26  27
ATOM     27  O   UNL     1      31.382 -12.323 -21.920  0.00  0.00    -0.480 OA
ATOM     28  H   UNL     1      31.970 -12.414 -22.645  0.00  0.00    +0.295 HD
ENDBRANCH  26  27
ENDBRANCH  24  26
ENDBRANCH  23  24
ENDBRANCH   2  23
TORSDOF 8
ENDMDL
MODEL 2
REMARK VINA RESULT:     -10.2      6.826     11.065
REMARK  Name = 11395145
REMARK  8 active torsions:
REMARK  status: ('A' for Active; 'I' for Inactive)
REMARK    1  A    between atoms: N_1  and  S_10
REMARK    2  A    between atoms: C_2  and  C_23
REMARK    3  A    between atoms: C_8  and  O_21
REMARK    4  A    between atoms: S_10  and  C_13
REMARK    5  A    between atoms: C_18  and  O_19
REMARK    6  A    between atoms: C_23  and  C_24
REMARK    7  A    between atoms: C_24  and  C_26
REMARK    8  A    between atoms: C_26  and  O_27
REMARK                            x       y       z     vdW  Elec       q    Type
REMARK                         _______ _______ _______ _____ _____    ______ ____
ROOT
ATOM      1  N   UNL     1      32.957 -23.793 -14.798  0.00  0.00    -0.168 N 
ATOM      2  C   UNL     1      34.304 -23.129 -16.432  0.00  0.00    -0.004 C 
ATOM      3  C   UNL     1      35.107 -23.481 -15.311  0.00  0.00    +0.016 C 
ATOM      4  C   UNL     1      34.237 -23.895 -14.299  0.00  0.00    +0.074 C 
ATOM      5  C   UNL     1      32.988 -23.331 -16.087  0.00  0.00    +0.085 C 
ATOM      6  C   UNL     1      36.493 -23.488 -15.059  0.00  0.00    +0.038 C 
ATOM      7  C   UNL     1      34.686 -24.316 -13.043  0.00  0.00    +0.020 C 
ATOM      8  C   UNL     1      36.957 -23.907 -13.806  0.00  0.00    +0.139 C 
ATOM      9  C   UNL     1      36.065 -24.313 -12.815  0.00  0.00    +0.038 C 
ENDROOT
BRANCH   1  10
ATOM     10  S   UNL     1      31.558 -24.170 -13.978  0.00  0.00    +0.080 S 
ATOM     11  O   UNL     1      31.513 -23.250 -12.841  0.00  0.00    -0.149 OA
ATOM     12  O   UNL     1      31.519 -25.619 -13.768  0.00  0.00    -0.149 OA
BRANCH  10  13
ATOM     13  C   UNL     1      30.202 -23.791 -15.057  0.00  0.00    +0.126 C 
ATOM     14  C   UNL     1      29.681 -24.793 -15.853  0.00  0.00    +0.023 C 
ATOM     15  C   UNL     1      29.701 -22.504 -15.076  0.00  0.00    +0.023 C 
ATOM     16  C   UNL     1      28.614 -24.495 -16.702  0.00  0.00    +0.038 C 
ATOM     17  C   UNL     1      28.634 -22.207 -15.925  0.00  0.00    +0.038 C 
ATOM     18  C   UNL     1      28.091 -23.202 -16.738  0.00  0.00    +0.139 C 
BRANCH  18  19
ATOM     19  O   UNL     1      27.051 -22.912 -17.565  0.00  0.00    -0.471 OA
ATOM     20  C   UNL     1      26.407 -21.653 -17.381  0.00  0.00    +0.252 C 
ENDBRANCH  18  19
ENDBRANCH  10  13
ENDBRANCH   1  10
BRANCH   8  21
ATOM     21  O   UNL     1      38.295 -23.916 -13.555  0.00  0.00    -0.471 OA
ATOM     22  C   UNL     1      38.935 -25.189 -13.496  0.00  0.00    +0.252 C 
ENDBRANCH   8  21
BRANCH   2  23
ATOM     23  C   UNL     1      34.788 -22.634 -17.738  0.00  0.00    +0.039 C 
BRANCH  23  24
ATOM     24  C   UNL     1      33.718 -22.609 -18.849  0.00  0.00    +0.114 C 
BRANCH  24  26
ATOM     25  O   UNL     1      32.579 -20.654 -19.760  0.00  0.00    -0.250 OA
ATOM     26  C   UNL     1      33.615 -21.272 -19.551  0.00  0.00    +0.314 C 
BRANCH  26  27
ATOM     27  O   UNL     1      34.832 -20.832 -19.965  0.00  0.00    -0.480 OA
ATOM     28  H   UNL     1      35.353 -20.294 -19.400  0.00  0.00    +0.295 HD
ENDBRANCH  26  27
ENDBRANCH  24  26
ENDBRANCH  23  24
ENDBRANCH   2  23
TORSDOF 8
ENDMDL
MODEL 3
REMARK VINA RESULT:      -9.7      0.977      3.847
REMARK  Name = 11395145
REMARK  8 active torsions:
REMARK  status: ('A' for Active; 'I' for Inactive)
REMARK    1  A    between atoms: N_1  and  S_10
REMARK    2  A    between atoms: C_2  and  C_23
REMARK    3  A    between atoms: C_8  and  O_21
REMARK    4  A    between atoms: S_10  and  C_13
REMARK    5  A    between atoms: C_18  and  O_19
REMARK    6  A    between atoms: C_23  and  C_24
REMARK    7  A    between atoms: C_24  and  C_26
REMARK    8  A    between atoms: C_26  and  O_27
REMARK                            x       y       z     vdW  Elec       q    Type
REMARK                         _______ _______ _______ _____ _____    ______ ____
ROOT
ATOM      1  N   UNL     1      34.797 -17.260 -23.263  0.00  0.00    -0.168 N 
ATOM      2  C   UNL     1      33.631 -15.880 -24.553  0.00  0.00    -0.004 C 
ATOM      3  C   UNL     1      33.548 -15.411 -23.212  0.00  0.00    +0.016 C 
ATOM      4  C   UNL     1      34.288 -16.295 -22.423  0.00  0.00    +0.074 C 
ATOM      5  C   UNL     1      34.405 -17.018 -24.553  0.00  0.00    +0.085 C 
ATOM      6  C   UNL     1      32.913 -14.317 -22.591  0.00  0.00    +0.038 C 
ATOM      7  C   UNL     1      34.425 -16.139 -21.040  0.00  0.00    +0.020 C 
ATOM      8  C   UNL     1      33.041 -14.149 -21.208  0.00  0.00    +0.139 C 
ATOM      9  C   UNL     1      33.785 -15.047 -20.445  0.00  0.00    +0.038 C 
ENDROOT
BRANCH   1  10
ATOM     10  S   UNL     1      35.752 -18.546 -22.807  0.00  0.00    +0.080 S 
ATOM     11  O   UNL     1      36.908 -17.954 -22.135  0.00  0.00    -0.149 OA
ATOM     12  O   UNL     1      35.931 -19.425 -23.965  0.00  0.00    -0.149 OA
BRANCH  10  13
ATOM     13  C   UNL     1      34.832 -19.483 -21.614  0.00  0.00    +0.126 C 
ATOM     14  C   UNL     1      33.452 -19.413 -21.630  0.00  0.00    +0.023 C 
ATOM     15  C   UNL     1      35.516 -20.257 -20.699  0.00  0.00    +0.023 C 
ATOM     16  C   UNL     1      32.728 -20.150 -20.692  0.00  0.00    +0.038 C 
ATOM     17  C   UNL     1      34.791 -20.993 -19.761  0.00  0.00    +0.038 C 
ATOM     18  C   UNL     1      33.397 -20.940 -19.758  0.00  0.00    +0.139 C 
BRANCH  18  19
ATOM     19  O   UNL     1      32.691 -21.659 -18.844  0.00  0.00    -0.471 OA
ATOM     20  C   UNL     1      33.369 -22.739 -18.203  0.00  0.00    +0.252 C 
ENDBRANCH  18  19
ENDBRANCH  10  13
ENDBRANCH   1  10
BRANCH   8  21
ATOM     21  O   UNL     1      32.429 -13.094 -20.601  0.00  0.00    -0.471 OA
ATOM     22  C   UNL     1      31.722 -12.184 -21.441  0.00  0.00    +0.252 C 
ENDBRANCH   8  21
BRANCH   2  23
ATOM     23  C   UNL     1      33.003 -15.264 -25.739  0.00  0.00    +0.039 C 
BRANCH  23  24
ATOM     24  C   UNL     1      33.258 -13.749 -25.884  0.00  0.00    +0.114 C 
BRANCH  24  26
ATOM     25  O   UNL     1      34.422 -13.398 -27.997  0.00  0.00    -0.250 OA
ATOM     26  C   UNL     1      33.406 -13.301 -27.322  0.00  0.00    +0.314 C 
BRANCH  26  27
ATOM     27  O   UNL     1      32.262 -12.734 -27.788  0.00  0.00    -0.480 OA
ATOM     28  H   UNL     1      32.305 -12.056 -28.434  0.00  0.00    +0.295 HD
ENDBRANCH  26  27
ENDBRANCH  24  26
ENDBRANCH  23  24
ENDBRANCH   2  23
TORSDOF 8
ENDMDL
MODEL 4
REMARK VINA RESULT:      -9.6      4.326     10.733
REMARK  Name = 11395145
REMARK  8 active torsions:
REMARK  status: ('A' for Active; 'I' for Inactive)
REMARK    1  A    between atoms: N_1  and  S_10
REMARK    2  A    between atoms: C_2  and  C_23
REMARK    3  A    between atoms: C_8  and  O_21
REMARK    4  A    between atoms: S_10  and  C_13
REMARK    5  A    between atoms: C_18  and  O_19
REMARK    6  A    between atoms: C_23  and  C_24
REMARK    7  A    between atoms: C_24  and  C_26
REMARK    8  A    between atoms: C_26  and  O_27
REMARK                            x       y       z     vdW  Elec       q    Type
REMARK                         _______ _______ _______ _____ _____    ______ ____
ROOT
ATOM      1  N   UNL     1      34.615 -22.780 -17.414  0.00  0.00    -0.168 N 
ATOM      2  C   UNL     1      36.483 -22.634 -16.226  0.00  0.00    -0.004 C 
ATOM      3  C   UNL     1      35.461 -23.154 -15.383  0.00  0.00    +0.016 C 
ATOM      4  C   UNL     1      34.298 -23.236 -16.154  0.00  0.00    +0.074 C 
ATOM      5  C   UNL     1      35.933 -22.415 -17.467  0.00  0.00    +0.085 C 
ATOM      6  C   UNL     1      35.412 -23.564 -14.036  0.00  0.00    +0.038 C 
ATOM      7  C   UNL     1      33.086 -23.708 -15.642  0.00  0.00    +0.020 C 
ATOM      8  C   UNL     1      34.205 -24.039 -13.511  0.00  0.00    +0.139 C 
ATOM      9  C   UNL     1      33.060 -24.108 -14.303  0.00  0.00    +0.038 C 
ENDROOT
BRANCH   1  10
ATOM     10  S   UNL     1      33.568 -22.678 -18.705  0.00  0.00    +0.080 S 
ATOM     11  O   UNL     1      32.255 -22.403 -18.122  0.00  0.00    -0.149 OA
ATOM     12  O   UNL     1      33.773 -23.847 -19.563  0.00  0.00    -0.149 OA
BRANCH  10  13
ATOM     13  C   UNL     1      34.059 -21.269 -19.665  0.00  0.00    +0.126 C 
ATOM     14  C   UNL     1      35.404 -21.055 -19.898  0.00  0.00    +0.023 C 
ATOM     15  C   UNL     1      33.086 -20.421 -20.156  0.00  0.00    +0.023 C 
ATOM     16  C   UNL     1      35.790 -19.947 -20.653  0.00  0.00    +0.038 C 
ATOM     17  C   UNL     1      33.473 -19.314 -20.911  0.00  0.00    +0.038 C 
ATOM     18  C   UNL     1      34.825 -19.077 -21.160  0.00  0.00    +0.139 C 
BRANCH  18  19
ATOM     19  O   UNL     1      35.202 -17.997 -21.897  0.00  0.00    -0.471 OA
ATOM     20  C   UNL     1      34.945 -16.709 -21.339  0.00  0.00    +0.252 C 
ENDBRANCH  18  19
ENDBRANCH  10  13
ENDBRANCH   1  10
BRANCH   8  21
ATOM     21  O   UNL     1      34.150 -24.436 -12.209  0.00  0.00    -0.471 OA
ATOM     22  C   UNL     1      35.392 -24.581 -11.523  0.00  0.00    +0.252 C 
ENDBRANCH   8  21
BRANCH   2  23
ATOM     23  C   UNL     1      37.887 -22.373 -15.845  0.00  0.00    +0.039 C 
BRANCH  23  24
ATOM     24  C   UNL     1      38.822 -23.593 -15.977  0.00  0.00    +0.114 C 
BRANCH  24  26
ATOM     25  O   UNL     1      38.795 -24.394 -13.674  0.00  0.00    -0.250 OA
ATOM     26  C   UNL     1      38.642 -24.609 -14.869  0.00  0.00    +0.314 C 
BRANCH  26  27
ATOM     27  O   UNL     1      38.309 -25.830 -15.363  0.00  0.00    -0.480 OA
ATOM     28  H   UNL     1      38.775 -26.593 -15.077  0.00  0.00    +0.295 HD
ENDBRANCH  26  27
ENDBRANCH  24  26
ENDBRANCH  23  24
ENDBRANCH   2  23
TORSDOF 8
ENDMDL
MODEL 5
REMARK VINA RESULT:      -9.5      3.887     10.079
REMARK  Name = 11395145
REMARK  8 active torsions:
REMARK  status: ('A' for Active; 'I' for Inactive)
REMARK    1  A    between atoms: N_1  and  S_10
REMARK    2  A    between atoms: C_2  and  C_23
REMARK    3  A    between atoms: C_8  and  O_21
REMARK    4  A    between atoms: S_10  and  C_13
REMARK    5  A    between atoms: C_18  and  O_19
REMARK    6  A    between atoms: C_23  and  C_24
REMARK    7  A    between atoms: C_24  and  C_26
REMARK    8  A    between atoms: C_26  and  O_27
REMARK                            x       y       z     vdW  Elec       q    Type
REMARK                         _______ _______ _______ _____ _____    ______ ____
ROOT
ATOM      1  N   UNL     1      33.619 -22.867 -17.586  0.00  0.00    -0.168 N 
ATOM      2  C   UNL     1      31.764 -22.762 -16.372  0.00  0.00    -0.004 C 
ATOM      3  C   UNL     1      32.815 -23.232 -15.536  0.00  0.00    +0.016 C 
ATOM      4  C   UNL     1      33.969 -23.288 -16.322  0.00  0.00    +0.074 C 
ATOM      5  C   UNL     1      32.288 -22.546 -17.625  0.00  0.00    +0.085 C 
ATOM      6  C   UNL     1      32.898 -23.615 -14.183  0.00  0.00    +0.038 C 
ATOM      7  C   UNL     1      35.204 -23.711 -15.821  0.00  0.00    +0.020 C 
ATOM      8  C   UNL     1      34.128 -24.040 -13.668  0.00  0.00    +0.139 C 
ATOM      9  C   UNL     1      35.262 -24.088 -14.476  0.00  0.00    +0.038 C 
ENDROOT
BRANCH   1  10
ATOM     10  S   UNL     1      34.643 -22.753 -18.894  0.00  0.00    +0.080 S 
ATOM     11  O   UNL     1      34.261 -23.849 -19.785  0.00  0.00    -0.149 OA
ATOM     12  O   UNL     1      36.016 -22.636 -18.399  0.00  0.00    -0.149 OA
BRANCH  10  13
ATOM     13  C   UNL     1      34.280 -21.219 -19.709  0.00  0.00    +0.126 C 
ATOM     14  C   UNL     1      32.962 -20.828 -19.841  0.00  0.00    +0.023 C 
ATOM     15  C   UNL     1      35.324 -20.454 -20.192  0.00  0.00    +0.023 C 
ATOM     16  C   UNL     1      32.677 -19.621 -20.482  0.00  0.00    +0.038 C 
ATOM     17  C   UNL     1      35.038 -19.248 -20.832  0.00  0.00    +0.038 C 
ATOM     18  C   UNL     1      33.714 -18.832 -20.977  0.00  0.00    +0.139 C 
BRANCH  18  19
ATOM     19  O   UNL     1      33.436 -17.655 -21.601  0.00  0.00    -0.471 OA
ATOM     20  C   UNL     1      34.379 -16.597 -21.441  0.00  0.00    +0.252 C 
ENDBRANCH  18  19
ENDBRANCH  10  13
ENDBRANCH   1  10
BRANCH   8  21
ATOM     21  O   UNL     1      34.215 -24.414 -12.361  0.00  0.00    -0.471 OA
ATOM     22  C   UNL     1      35.524 -24.548 -11.811  0.00  0.00    +0.252 C 
ENDBRANCH   8  21
BRANCH   2  23
ATOM     23  C   UNL     1      30.358 -22.542 -15.974  0.00  0.00    +0.039 C 
BRANCH  23  24
ATOM     24  C   UNL     1      29.414 -23.723 -16.281  0.00  0.00    +0.114 C 
BRANCH  24  26
ATOM     25  O   UNL     1      27.466 -24.105 -17.697  0.00  0.00    -0.250 OA
ATOM     26  C   UNL     1      28.216 -23.330 -17.119  0.00  0.00    +0.314 C 
BRANCH  26  27
ATOM     27  O   UNL     1      28.077 -21.980 -17.186  0.00  0.00    -0.480 OA
ATOM     28  H   UNL     1      27.315 -21.608 -17.586  0.00  0.00    +0.295 HD
ENDBRANCH  26  27
ENDBRANCH  24  26
ENDBRANCH  23  24
ENDBRANCH   2  23
TORSDOF 8
ENDMDL
MODEL 6
REMARK VINA RESULT:      -9.5      7.286     11.192
REMARK  Name = 11395145
REMARK  8 active torsions:
REMARK  status: ('A' for Active; 'I' for Inactive)
REMARK    1  A    between atoms: N_1  and  S_10
REMARK    2  A    between atoms: C_2  and  C_23
REMARK    3  A    between atoms: C_8  and  O_21
REMARK    4  A    between atoms: S_10  and  C_13
REMARK    5  A    between atoms: C_18  and  O_19
REMARK    6  A    between atoms: C_23  and  C_24
REMARK    7  A    between atoms: C_24  and  C_26
REMARK    8  A    between atoms: C_26  and  O_27
REMARK                            x       y       z     vdW  Elec       q    Type
REMARK                         _______ _______ _______ _____ _____    ______ ____
ROOT
ATOM      1  N   UNL     1      32.777 -23.897 -14.132  0.00  0.00    -0.168 N 
ATOM      2  C   UNL     1      34.988 -23.944 -14.315  0.00  0.00    -0.004 C 
ATOM      3  C   UNL     1      34.449 -23.515 -15.560  0.00  0.00    +0.016 C 
ATOM      4  C   UNL     1      33.059 -23.494 -15.418  0.00  0.00    +0.074 C 
ATOM      5  C   UNL     1      33.936 -24.170 -13.457  0.00  0.00    +0.085 C 
ATOM      6  C   UNL     1      35.010 -23.141 -16.797  0.00  0.00    +0.038 C 
ATOM      7  C   UNL     1      32.200 -23.117 -16.456  0.00  0.00    +0.020 C 
ATOM      8  C   UNL     1      34.163 -22.762 -17.844  0.00  0.00    +0.139 C 
ATOM      9  C   UNL     1      32.779 -22.752 -17.675  0.00  0.00    +0.038 C 
ENDROOT
BRANCH   1  10
ATOM     10  S   UNL     1      31.257 -24.040 -13.466  0.00  0.00    +0.080 S 
ATOM     11  O   UNL     1      31.142 -22.934 -12.516  0.00  0.00    -0.149 OA
ATOM     12  O   UNL     1      31.071 -25.424 -13.027  0.00  0.00    -0.149 OA
BRANCH  10  13
ATOM     13  C   UNL     1      30.087 -23.776 -14.774  0.00  0.00    +0.126 C 
ATOM     14  C   UNL     1      29.687 -24.854 -15.540  0.00  0.00    +0.023 C 
ATOM     15  C   UNL     1      29.607 -22.501 -14.995  0.00  0.00    +0.023 C 
ATOM     16  C   UNL     1      28.767 -24.646 -16.569  0.00  0.00    +0.038 C 
ATOM     17  C   UNL     1      28.687 -22.294 -16.024  0.00  0.00    +0.038 C 
ATOM     18  C   UNL     1      28.267 -23.367 -16.811  0.00  0.00    +0.139 C 
BRANCH  18  19
ATOM     19  O   UNL     1      27.370 -23.165 -17.813  0.00  0.00    -0.471 OA
ATOM     20  C   UNL     1      26.634 -21.943 -17.790  0.00  0.00    +0.252 C 
ENDBRANCH  18  19
ENDBRANCH  10  13
ENDBRANCH   1  10
BRANCH   8  21
ATOM     21  O   UNL     1      34.698 -22.401 -19.043  0.00  0.00    -0.471 OA
ATOM     22  C   UNL     1      34.060 -21.335 -19.743  0.00  0.00    +0.252 C 
ENDBRANCH   8  21
BRANCH   2  23
ATOM     23  C   UNL     1      36.419 -24.117 -13.990  0.00  0.00    +0.039 C 
BRANCH  23  24
ATOM     24  C   UNL     1      36.863 -25.585 -13.822  0.00  0.00    +0.114 C 
BRANCH  24  26
ATOM     25  O   UNL     1      36.283 -26.874 -15.809  0.00  0.00    -0.250 OA
ATOM     26  C   UNL     1      37.121 -26.287 -15.138  0.00  0.00    +0.314 C 
BRANCH  26  27
ATOM     27  O   UNL     1      38.432 -26.219 -15.490  0.00  0.00    -0.480 OA
ATOM     28  H   UNL     1      38.937 -25.460 -15.271  0.00  0.00    +0.295 HD
ENDBRANCH  26  27
ENDBRANCH  24  26
ENDBRANCH  23  24
ENDBRANCH   2  23
TORSDOF 8
ENDMDL
MODEL 7
REMARK VINA RESULT:      -9.2      7.614     10.958
REMARK  Name = 11395145
REMARK  8 active torsions:
REMARK  status: ('A' for Active; 'I' for Inactive)
REMARK    1  A    between atoms: N_1  and  S_10
REMARK    2  A    between atoms: C_2  and  C_23
REMARK    3  A    between atoms: C_8  and  O_21
REMARK    4  A    between atoms: S_10  and  C_13
REMARK    5  A    between atoms: C_18  and  O_19
REMARK    6  A    between atoms: C_23  and  C_24
REMARK    7  A    between atoms: C_24  and  C_26
REMARK    8  A    between atoms: C_26  and  O_27
REMARK                            x       y       z     vdW  Elec       q    Type
REMARK                         _______ _______ _______ _____ _____    ______ ____
ROOT
ATOM      1  N   UNL     1      34.438 -23.933 -13.738  0.00  0.00    -0.168 N 
ATOM      2  C   UNL     1      32.508 -23.996 -14.832  0.00  0.00    -0.004 C 
ATOM      3  C   UNL     1      33.498 -23.472 -15.709  0.00  0.00    +0.016 C 
ATOM      4  C   UNL     1      34.700 -23.443 -14.998  0.00  0.00    +0.074 C 
ATOM      5  C   UNL     1      33.115 -24.271 -13.629  0.00  0.00    +0.085 C 
ATOM      6  C   UNL     1      33.488 -23.018 -17.043  0.00  0.00    +0.038 C 
ATOM      7  C   UNL     1      35.896 -22.980 -15.556  0.00  0.00    +0.020 C 
ATOM      8  C   UNL     1      34.678 -22.552 -17.614  0.00  0.00    +0.139 C 
ATOM      9  C   UNL     1      35.862 -22.533 -16.880  0.00  0.00    +0.038 C 
ENDROOT
BRANCH   1  10
ATOM     10  S   UNL     1      35.546 -24.103 -12.507  0.00  0.00    +0.080 S 
ATOM     11  O   UNL     1      34.924 -25.011 -11.544  0.00  0.00    -0.149 OA
ATOM     12  O   UNL     1      35.991 -22.769 -12.097  0.00  0.00    -0.149 OA
BRANCH  10  13
ATOM     13  C   UNL     1      36.970 -24.908 -13.194  0.00  0.00    +0.126 C 
ATOM     14  C   UNL     1      36.791 -26.049 -13.953  0.00  0.00    +0.023 C 
ATOM     15  C   UNL     1      38.221 -24.377 -12.953  0.00  0.00    +0.023 C 
ATOM     16  C   UNL     1      37.911 -26.682 -14.493  0.00  0.00    +0.038 C 
ATOM     17  C   UNL     1      39.340 -25.011 -13.494  0.00  0.00    +0.038 C 
ATOM     18  C   UNL     1      39.185 -26.163 -14.264  0.00  0.00    +0.139 C 
BRANCH  18  19
ATOM     19  O   UNL     1      40.277 -26.781 -14.792  0.00  0.00    -0.471 OA
ATOM     20  C   UNL     1      41.317 -27.147 -13.886  0.00  0.00    +0.252 C 
ENDBRANCH  18  19
ENDBRANCH  10  13
ENDBRANCH   1  10
BRANCH   8  21
ATOM     21  O   UNL     1      34.676 -22.110 -18.902  0.00  0.00    -0.471 OA
ATOM     22  C   UNL     1      35.884 -21.530 -19.391  0.00  0.00    +0.252 C 
ENDBRANCH   8  21
BRANCH   2  23
ATOM     23  C   UNL     1      31.080 -24.212 -15.148  0.00  0.00    +0.039 C 
BRANCH  23  24
ATOM     24  C   UNL     1      30.240 -22.920 -15.222  0.00  0.00    +0.114 C 
BRANCH  24  26
ATOM     25  O   UNL     1      28.785 -22.029 -16.964  0.00  0.00    -0.250 OA
ATOM     26  C   UNL     1      29.155 -22.971 -16.277  0.00  0.00    +0.314 C 
BRANCH  26  27
ATOM     27  O   UNL     1      28.599 -24.208 -16.359  0.00  0.00    -0.480 OA
ATOM     28  H   UNL     1      28.066 -24.530 -15.657  0.00  0.00    +0.295 HD
ENDBRANCH  26  27
ENDBRANCH  24  26
ENDBRANCH  23  24
ENDBRANCH   2  23
TORSDOF 8
ENDMDL
MODEL 8
REMARK VINA RESULT:      -8.9      3.938      9.380
REMARK  Name = 11395145
REMARK  8 active torsions:
REMARK  status: ('A' for Active; 'I' for Inactive)
REMARK    1  A    between atoms: N_1  and  S_10
REMARK    2  A    between atoms: C_2  and  C_23
REMARK    3  A    between atoms: C_8  and  O_21
REMARK    4  A    between atoms: S_10  and  C_13
REMARK    5  A    between atoms: C_18  and  O_19
REMARK    6  A    between atoms: C_23  and  C_24
REMARK    7  A    between atoms: C_24  and  C_26
REMARK    8  A    between atoms: C_26  and  O_27
REMARK                            x       y       z     vdW  Elec       q    Type
REMARK                         _______ _______ _______ _____ _____    ______ ____
ROOT
ATOM      1  N   UNL     1      32.244 -12.138 -21.956  0.00  0.00    -0.168 N 
ATOM      2  C   UNL     1      33.256 -13.044 -23.711  0.00  0.00    -0.004 C 
ATOM      3  C   UNL     1      33.216 -14.015 -22.672  0.00  0.00    +0.016 C 
ATOM      4  C   UNL     1      32.576 -13.420 -21.581  0.00  0.00    +0.074 C 
ATOM      5  C   UNL     1      32.650 -11.901 -23.242  0.00  0.00    +0.085 C 
ATOM      6  C   UNL     1      33.664 -15.345 -22.552  0.00  0.00    +0.038 C 
ATOM      7  C   UNL     1      32.361 -14.092 -20.373  0.00  0.00    +0.020 C 
ATOM      8  C   UNL     1      33.456 -16.030 -21.349  0.00  0.00    +0.139 C 
ATOM      9  C   UNL     1      32.815 -15.411 -20.277  0.00  0.00    +0.038 C 
ENDROOT
BRANCH   1  10
ATOM     10  S   UNL     1      31.462 -11.015 -21.006  0.00  0.00    +0.080 S 
ATOM     11  O   UNL     1      32.167 -11.030 -19.725  0.00  0.00    -0.149 OA
ATOM     12  O   UNL     1      30.022 -11.277 -21.070  0.00  0.00    -0.149 OA
BRANCH  10  13
ATOM     13  C   UNL     1      31.709  -9.429 -21.762  0.00  0.00    +0.126 C 
ATOM     14  C   UNL     1      31.032  -9.132 -22.929  0.00  0.00    +0.023 C 
ATOM     15  C   UNL     1      32.572  -8.531 -21.166  0.00  0.00    +0.023 C 
ATOM     16  C   UNL     1      31.227  -7.884 -23.523  0.00  0.00    +0.038 C 
ATOM     17  C   UNL     1      32.766  -7.284 -21.761  0.00  0.00    +0.038 C 
ATOM     18  C   UNL     1      32.093  -6.961 -22.939  0.00  0.00    +0.139 C 
BRANCH  18  19
ATOM     19  O   UNL     1      32.282  -5.744 -23.519  0.00  0.00    -0.471 OA
ATOM     20  C   UNL     1      31.120  -5.061 -23.987  0.00  0.00    +0.252 C 
ENDBRANCH  18  19
ENDBRANCH  10  13
ENDBRANCH   1  10
BRANCH   8  21
ATOM     21  O   UNL     1      33.888 -17.316 -21.226  0.00  0.00    -0.471 OA
ATOM     22  C   UNL     1      35.291 -17.542 -21.340  0.00  0.00    +0.252 C 
ENDBRANCH   8  21
BRANCH   2  23
ATOM     23  C   UNL     1      33.839 -13.222 -25.057  0.00  0.00    +0.039 C 
BRANCH  23  24
ATOM     24  C   UNL     1      32.906 -13.915 -26.072  0.00  0.00    +0.114 C 
BRANCH  24  26
ATOM     25  O   UNL     1      34.266 -15.936 -25.981  0.00  0.00    -0.250 OA
ATOM     26  C   UNL     1      33.208 -15.387 -26.256  0.00  0.00    +0.314 C 
BRANCH  26  27
ATOM     27  O   UNL     1      32.155 -16.046 -26.806  0.00  0.00    -0.480 OA
ATOM     28  H   UNL     1      31.722 -16.723 -26.321  0.00  0.00    +0.295 HD
ENDBRANCH  26  27
ENDBRANCH  24  26
ENDBRANCH  23  24
ENDBRANCH   2  23
TORSDOF 8
ENDMDL
MODEL 9
REMARK VINA RESULT:      -8.9      4.058      9.201
REMARK  Name = 11395145
REMARK  8 active torsions:
REMARK  status: ('A' for Active; 'I' for Inactive)
REMARK    1  A    between atoms: N_1  and  S_10
REMARK    2  A    between atoms: C_2  and  C_23
REMARK    3  A    between atoms: C_8  and  O_21
REMARK    4  A    between atoms: S_10  and  C_13
REMARK    5  A    between atoms: C_18  and  O_19
REMARK    6  A    between atoms: C_23  and  C_24
REMARK    7  A    between atoms: C_24  and  C_26
REMARK    8  A    between atoms: C_26  and  O_27
REMARK                            x       y       z     vdW  Elec       q    Type
REMARK                         _______ _______ _______ _____ _____    ______ ____
ROOT
ATOM      1  N   UNL     1      32.243 -12.196 -21.810  0.00  0.00    -0.168 N 
ATOM      2  C   UNL     1      33.357 -12.749 -23.649  0.00  0.00    -0.004 C 
ATOM      3  C   UNL     1      33.384 -13.861 -22.762  0.00  0.00    +0.016 C 
ATOM      4  C   UNL     1      32.677 -13.489 -21.616  0.00  0.00    +0.074 C 
ATOM      5  C   UNL     1      32.648 -11.741 -23.036  0.00  0.00    +0.085 C 
ATOM      6  C   UNL     1      33.941 -15.154 -22.824  0.00  0.00    +0.038 C 
ATOM      7  C   UNL     1      32.502 -14.346 -20.525  0.00  0.00    +0.020 C 
ATOM      8  C   UNL     1      33.774 -16.023 -21.740  0.00  0.00    +0.139 C 
ATOM      9  C   UNL     1      33.065 -15.623 -20.608  0.00  0.00    +0.038 C 
ENDROOT
BRANCH   1  10
ATOM     10  S   UNL     1      31.352 -11.294 -20.730  0.00  0.00    +0.080 S 
ATOM     11  O   UNL     1      31.925 -11.583 -19.415  0.00  0.00    -0.149 OA
ATOM     12  O   UNL     1      29.931 -11.527 -20.993  0.00  0.00    -0.149 OA
BRANCH  10  13
ATOM     13  C   UNL     1      31.651  -9.586 -21.105  0.00  0.00    +0.126 C 
ATOM     14  C   UNL     1      31.294  -9.104 -22.350  0.00  0.00    +0.023 C 
ATOM     15  C   UNL     1      32.232  -8.781 -20.146  0.00  0.00    +0.023 C 
ATOM     16  C   UNL     1      31.529  -7.760 -22.646  0.00  0.00    +0.038 C 
ATOM     17  C   UNL     1      32.466  -7.438 -20.443  0.00  0.00    +0.038 C 
ATOM     18  C   UNL     1      32.114  -6.928 -21.692  0.00  0.00    +0.139 C 
BRANCH  18  19
ATOM     19  O   UNL     1      32.342  -5.618 -21.981  0.00  0.00    -0.471 OA
ATOM     20  C   UNL     1      31.357  -4.945 -22.764  0.00  0.00    +0.252 C 
ENDBRANCH  18  19
ENDBRANCH  10  13
ENDBRANCH   1  10
BRANCH   8  21
ATOM     21  O   UNL     1      34.311 -17.273 -21.792  0.00  0.00    -0.471 OA
ATOM     22  C   UNL     1      35.324 -17.502 -22.771  0.00  0.00    +0.252 C 
ENDBRANCH   8  21
BRANCH   2  23
ATOM     23  C   UNL     1      33.975 -12.678 -24.989  0.00  0.00    +0.039 C 
BRANCH  23  24
ATOM     24  C   UNL     1      33.912 -11.285 -25.649  0.00  0.00    +0.114 C 
BRANCH  24  26
ATOM     25  O   UNL     1      35.996 -10.342 -26.494  0.00  0.00    -0.250 OA
ATOM     26  C   UNL     1      35.219 -10.525 -25.567  0.00  0.00    +0.314 C 
BRANCH  26  27
ATOM     27  O   UNL     1      35.457 -10.079 -24.306  0.00  0.00    -0.480 OA
ATOM     28  H   UNL     1      36.308  -9.760 -24.075  0.00  0.00    +0.295 HD
ENDBRANCH  26  27
ENDBRANCH  24  26
ENDBRANCH  23  24
ENDBRANCH   2  23
TORSDOF 8
ENDMDL
