MODEL 1
REMARK VINA RESULT:      -8.1      0.000      0.000
REMARK  Name = 447720
REMARK  14 active torsions:
REMARK  status: ('A' for Active; 'I' for Inactive)
REMARK    1  A    between atoms: N_2  and  C_19
REMARK    2  A    between atoms: C_3  and  C_5
REMARK    3  A    between atoms: C_5  and  C_6
REMARK    4  A    between atoms: C_5  and  O_17
REMARK    5  A    between atoms: C_6  and  C_9
REMARK    6  A    between atoms: C_9  and  O_10
REMARK    7  A    between atoms: O_10  and  C_12
REMARK    8  A    between atoms: C_12  and  C_13
REMARK    9  A    between atoms: C_19  and  C_20
REMARK   10  A    between atoms: C_20  and  C_23
REMARK   11  A    between atoms: N_22  and  C_25
REMARK   12  A    between atoms: C_25  and  C_26
REMARK   13  A    between atoms: C_26  and  O_27
REMARK   14  A    between atoms: O_27  and  C_29
REMARK                            x       y       z     vdW  Elec       q    Type
REMARK                         _______ _______ _______ _____ _____    ______ ____
ROOT
ATOM      1  O   UNL     1      31.621 -11.630 -22.559  0.00  0.00    -0.272 OA
ATOM      2  N   UNL     1      31.638 -12.200 -20.309  0.00  0.00    -0.302 N 
ATOM      3  C   UNL     1      31.835 -12.441 -21.659  0.00  0.00    +0.249 C 
ATOM      4  H   UNL     1      31.841 -12.920 -19.669  0.00  0.00    +0.150 HD
ENDROOT
BRANCH   3   5
ATOM      5  C   UNL     1      32.331 -13.858 -21.941  0.00  0.00    +0.190 C 
BRANCH   5   6
ATOM      6  C   UNL     1      33.480 -13.938 -22.989  0.00  0.00    +0.074 C 
ATOM      7  C   UNL     1      32.992 -14.597 -24.295  0.00  0.00    +0.007 C 
ATOM      8  C   UNL     1      33.931 -12.499 -23.337  0.00  0.00    +0.007 C 
BRANCH   6   9
ATOM      9  C   UNL     1      34.693 -14.720 -22.431  0.00  0.00    +0.211 C 
BRANCH   9  10
ATOM     10  O   UNL     1      34.468 -16.125 -22.489  0.00  0.00    -0.448 OA
BRANCH  10  12
ATOM     11  O   UNL     1      35.071 -16.354 -20.281  0.00  0.00    -0.250 OA
ATOM     12  C   UNL     1      34.848 -16.839 -21.383  0.00  0.00    +0.316 C 
BRANCH  12  13
ATOM     13  C   UNL     1      34.957 -18.332 -21.712  0.00  0.00    +0.090 C 
ATOM     14  C   UNL     1      34.837 -18.534 -23.227  0.00  0.00    +0.011 C 
ATOM     15  C   UNL     1      33.818 -19.095 -21.014  0.00  0.00    +0.011 C 
ATOM     16  C   UNL     1      36.302 -18.871 -21.205  0.00  0.00    +0.011 C 
ENDBRANCH  12  13
ENDBRANCH  10  12
ENDBRANCH   9  10
ENDBRANCH   6   9
ENDBRANCH   5   6
BRANCH   5  17
ATOM     17  O   UNL     1      32.782 -14.382 -20.694  0.00  0.00    -0.376 OA
ATOM     18  H   UNL     1      33.201 -15.246 -20.839  0.00  0.00    +0.211 HD
ENDBRANCH   5  17
ENDBRANCH   3   5
BRANCH   2  19
ATOM     19  C   UNL     1      31.148 -10.940 -19.799  0.00  0.00    +0.099 C 
BRANCH  19  20
ATOM     20  C   UNL     1      32.278  -9.993 -19.421  0.00  0.00    +0.106 C 
BRANCH  20  23
ATOM     21  O   UNL     1      32.526  -7.591 -19.618  0.00  0.00    -0.275 OA
ATOM     22  N   UNL     1      31.758  -8.803 -21.446  0.00  0.00    -0.301 N 
ATOM     23  C   UNL     1      32.216  -8.657 -20.144  0.00  0.00    +0.224 C 
ATOM     24  H   UNL     1      31.537  -9.707 -21.768  0.00  0.00    +0.150 HD
BRANCH  22  25
ATOM     25  C   UNL     1      31.592  -7.686 -22.347  0.00  0.00    +0.137 C 
BRANCH  25  26
ATOM     26  C   UNL     1      32.320  -7.917 -23.659  0.00  0.00    +0.230 C 
BRANCH  26  27
ATOM     27  O   UNL     1      33.257  -8.973 -23.501  0.00  0.00    -0.447 OA
BRANCH  27  29
ATOM     28  O   UNL     1      35.407  -9.520 -24.145  0.00  0.00    -0.250 OA
ATOM     29  C   UNL     1      34.538  -8.697 -23.893  0.00  0.00    +0.318 C 
ATOM     30  C   UNL     1      34.737  -7.214 -23.976  0.00  0.00    +0.121 C 
ENDBRANCH  27  29
ENDBRANCH  26  27
ENDBRANCH  25  26
ENDBRANCH  22  25
ENDBRANCH  20  23
ENDBRANCH  19  20
ENDBRANCH   2  19
TORSDOF 14
ENDMDL
MODEL 2
REMARK VINA RESULT:      -8.0      7.478     11.857
REMARK  Name = 447720
REMARK  14 active torsions:
REMARK  status: ('A' for Active; 'I' for Inactive)
REMARK    1  A    between atoms: N_2  and  C_19
REMARK    2  A    between atoms: C_3  and  C_5
REMARK    3  A    between atoms: C_5  and  C_6
REMARK    4  A    between atoms: C_5  and  O_17
REMARK    5  A    between atoms: C_6  and  C_9
REMARK    6  A    between atoms: C_9  and  O_10
REMARK    7  A    between atoms: O_10  and  C_12
REMARK    8  A    between atoms: C_12  and  C_13
REMARK    9  A    between atoms: C_19  and  C_20
REMARK   10  A    between atoms: C_20  and  C_23
REMARK   11  A    between atoms: N_22  and  C_25
REMARK   12  A    between atoms: C_25  and  C_26
REMARK   13  A    between atoms: C_26  and  O_27
REMARK   14  A    between atoms: O_27  and  C_29
REMARK                            x       y       z     vdW  Elec       q    Type
REMARK                         _______ _______ _______ _____ _____    ______ ____
ROOT
ATOM      1  O   UNL     1      37.891 -23.066 -16.052  0.00  0.00    -0.272 OA
ATOM      2  N   UNL     1      35.710 -22.352 -16.393  0.00  0.00    -0.302 N 
ATOM      3  C   UNL     1      36.762 -22.827 -15.627  0.00  0.00    +0.249 C 
ATOM      4  H   UNL     1      34.843 -22.193 -15.954  0.00  0.00    +0.150 HD
ENDROOT
BRANCH   3   5
ATOM      5  C   UNL     1      36.373 -23.060 -14.168  0.00  0.00    +0.190 C 
BRANCH   5   6
ATOM      6  C   UNL     1      35.686 -24.432 -13.901  0.00  0.00    +0.074 C 
ATOM      7  C   UNL     1      35.667 -25.300 -15.175  0.00  0.00    +0.007 C 
ATOM      8  C   UNL     1      36.506 -25.194 -12.832  0.00  0.00    +0.007 C 
BRANCH   6   9
ATOM      9  C   UNL     1      34.241 -24.242 -13.378  0.00  0.00    +0.211 C 
BRANCH   9  10
ATOM     10  O   UNL     1      33.310 -24.192 -14.453  0.00  0.00    -0.448 OA
BRANCH  10  12
ATOM     11  O   UNL     1      31.648 -25.080 -13.133  0.00  0.00    -0.250 OA
ATOM     12  C   UNL     1      32.007 -24.467 -14.132  0.00  0.00    +0.316 C 
BRANCH  12  13
ATOM     13  C   UNL     1      31.055 -23.903 -15.192  0.00  0.00    +0.090 C 
ATOM     14  C   UNL     1      31.867 -23.367 -16.377  0.00  0.00    +0.011 C 
ATOM     15  C   UNL     1      30.236 -22.752 -14.586  0.00  0.00    +0.011 C 
ATOM     16  C   UNL     1      30.094 -25.007 -15.656  0.00  0.00    +0.011 C 
ENDBRANCH  12  13
ENDBRANCH  10  12
ENDBRANCH   9  10
ENDBRANCH   6   9
ENDBRANCH   5   6
BRANCH   5  17
ATOM     17  O   UNL     1      37.577 -22.971 -13.411  0.00  0.00    -0.376 OA
ATOM     18  H   UNL     1      37.382 -22.598 -12.537  0.00  0.00    +0.211 HD
ENDBRANCH   5  17
ENDBRANCH   3   5
BRANCH   2  19
ATOM     19  C   UNL     1      35.826 -22.080 -17.807  0.00  0.00    +0.099 C 
BRANCH  19  20
ATOM     20  C   UNL     1      34.614 -22.568 -18.589  0.00  0.00    +0.106 C 
BRANCH  20  23
ATOM     21  O   UNL     1      32.677 -21.261 -19.228  0.00  0.00    -0.275 OA
ATOM     22  N   UNL     1      34.750 -20.726 -20.129  0.00  0.00    -0.301 N 
ATOM     23  C   UNL     1      33.885 -21.459 -19.330  0.00  0.00    +0.224 C 
ATOM     24  H   UNL     1      35.704 -20.970 -20.137  0.00  0.00    +0.150 HD
BRANCH  22  25
ATOM     25  C   UNL     1      34.311 -19.621 -20.950  0.00  0.00    +0.137 C 
BRANCH  25  26
ATOM     26  C   UNL     1      35.472 -18.725 -21.344  0.00  0.00    +0.230 C 
BRANCH  26  27
ATOM     27  O   UNL     1      35.372 -17.489 -20.651  0.00  0.00    -0.447 OA
BRANCH  27  29
ATOM     28  O   UNL     1      35.027 -16.314 -22.609  0.00  0.00    -0.250 OA
ATOM     29  C   UNL     1      34.950 -16.421 -21.393  0.00  0.00    +0.318 C 
ATOM     30  C   UNL     1      34.364 -15.374 -20.495  0.00  0.00    +0.121 C 
ENDBRANCH  27  29
ENDBRANCH  26  27
ENDBRANCH  25  26
ENDBRANCH  22  25
ENDBRANCH  20  23
ENDBRANCH  19  20
ENDBRANCH   2  19
TORSDOF 14
ENDMDL
MODEL 3
REMARK VINA RESULT:      -8.0      2.615      4.854
REMARK  Name = 447720
REMARK  14 active torsions:
REMARK  status: ('A' for Active; 'I' for Inactive)
REMARK    1  A    between atoms: N_2  and  C_19
REMARK    2  A    between atoms: C_3  and  C_5
REMARK    3  A    between atoms: C_5  and  C_6
REMARK    4  A    between atoms: C_5  and  O_17
REMARK    5  A    between atoms: C_6  and  C_9
REMARK    6  A    between atoms: C_9  and  O_10
REMARK    7  A    between atoms: O_10  and  C_12
REMARK    8  A    between atoms: C_12  and  C_13
REMARK    9  A    between atoms: C_19  and  C_20
REMARK   10  A    between atoms: C_20  and  C_23
REMARK   11  A    between atoms: N_22  and  C_25
REMARK   12  A    between atoms: C_25  and  C_26
REMARK   13  A    between atoms: C_26  and  O_27
REMARK   14  A    between atoms: O_27  and  C_29
REMARK                            x       y       z     vdW  Elec       q    Type
REMARK                         _______ _______ _______ _____ _____    ______ ____
ROOT
ATOM      1  O   UNL     1      35.690 -15.974 -23.230  0.00  0.00    -0.272 OA
ATOM      2  N   UNL     1      33.449 -15.414 -23.012  0.00  0.00    -0.302 N 
ATOM      3  C   UNL     1      34.601 -16.105 -22.673  0.00  0.00    +0.249 C 
ATOM      4  H   UNL     1      32.627 -15.593 -22.502  0.00  0.00    +0.150 HD
ENDROOT
BRANCH   3   5
ATOM      5  C   UNL     1      34.382 -17.095 -21.531  0.00  0.00    +0.190 C 
BRANCH   5   6
ATOM      6  C   UNL     1      34.750 -18.567 -21.881  0.00  0.00    +0.074 C 
ATOM      7  C   UNL     1      34.806 -18.777 -23.407  0.00  0.00    +0.007 C 
ATOM      8  C   UNL     1      36.161 -18.869 -21.320  0.00  0.00    +0.007 C 
BRANCH   6   9
ATOM      9  C   UNL     1      33.742 -19.560 -21.254  0.00  0.00    +0.211 C 
BRANCH   9  10
ATOM     10  O   UNL     1      34.380 -20.404 -20.301  0.00  0.00    -0.448 OA
BRANCH  10  12
ATOM     11  O   UNL     1      32.379 -20.841 -19.252  0.00  0.00    -0.250 OA
ATOM     12  C   UNL     1      33.548 -21.127 -19.487  0.00  0.00    +0.316 C 
BRANCH  12  13
ATOM     13  C   UNL     1      34.276 -22.344 -18.907  0.00  0.00    +0.090 C 
ATOM     14  C   UNL     1      35.709 -21.951 -18.528  0.00  0.00    +0.011 C 
ATOM     15  C   UNL     1      34.328 -23.462 -19.963  0.00  0.00    +0.011 C 
ATOM     16  C   UNL     1      33.517 -22.856 -17.676  0.00  0.00    +0.011 C 
ENDBRANCH  12  13
ENDBRANCH  10  12
ENDBRANCH   9  10
ENDBRANCH   6   9
ENDBRANCH   5   6
BRANCH   5  17
ATOM     17  O   UNL     1      35.189 -16.644 -20.446  0.00  0.00    -0.376 OA
ATOM     18  H   UNL     1      34.710 -16.771 -19.612  0.00  0.00    +0.211 HD
ENDBRANCH   5  17
ENDBRANCH   3   5
BRANCH   2  19
ATOM     19  C   UNL     1      33.400 -14.441 -24.080  0.00  0.00    +0.099 C 
BRANCH  19  20
ATOM     20  C   UNL     1      33.628 -13.022 -23.577  0.00  0.00    +0.106 C 
BRANCH  20  23
ATOM     21  O   UNL     1      31.949 -13.263 -21.848  0.00  0.00    -0.275 OA
ATOM     22  N   UNL     1      32.302 -11.173 -22.797  0.00  0.00    -0.301 N 
ATOM     23  C   UNL     1      32.540 -12.531 -22.637  0.00  0.00    +0.224 C 
ATOM     24  H   UNL     1      32.835 -10.678 -23.461  0.00  0.00    +0.150 HD
BRANCH  22  25
ATOM     25  C   UNL     1      31.307 -10.456 -22.034  0.00  0.00    +0.137 C 
BRANCH  25  26
ATOM     26  C   UNL     1      31.943  -9.609 -20.947  0.00  0.00    +0.230 C 
BRANCH  26  27
ATOM     27  O   UNL     1      32.448  -8.409 -21.517  0.00  0.00    -0.447 OA
BRANCH  27  29
ATOM     28  O   UNL     1      32.777  -7.229 -19.558  0.00  0.00    -0.250 OA
ATOM     29  C   UNL     1      32.394  -7.301 -20.718  0.00  0.00    +0.318 C 
ATOM     30  C   UNL     1      31.787  -6.157 -21.473  0.00  0.00    +0.121 C 
ENDBRANCH  27  29
ENDBRANCH  26  27
ENDBRANCH  25  26
ENDBRANCH  22  25
ENDBRANCH  20  23
ENDBRANCH  19  20
ENDBRANCH   2  19
TORSDOF 14
ENDMDL
MODEL 4
REMARK VINA RESULT:      -7.9      1.992      2.431
REMARK  Name = 447720
REMARK  14 active torsions:
REMARK  status: ('A' for Active; 'I' for Inactive)
REMARK    1  A    between atoms: N_2  and  C_19
REMARK    2  A    between atoms: C_3  and  C_5
REMARK    3  A    between atoms: C_5  and  C_6
REMARK    4  A    between atoms: C_5  and  O_17
REMARK    5  A    between atoms: C_6  and  C_9
REMARK    6  A    between atoms: C_9  and  O_10
REMARK    7  A    between atoms: O_10  and  C_12
REMARK    8  A    between atoms: C_12  and  C_13
REMARK    9  A    between atoms: C_19  and  C_20
REMARK   10  A    between atoms: C_20  and  C_23
REMARK   11  A    between atoms: N_22  and  C_25
REMARK   12  A    between atoms: C_25  and  C_26
REMARK   13  A    between atoms: C_26  and  O_27
REMARK   14  A    between atoms: O_27  and  C_29
REMARK                            x       y       z     vdW  Elec       q    Type
REMARK                         _______ _______ _______ _____ _____    ______ ____
ROOT
ATOM      1  O   UNL     1      32.604 -12.968 -20.458  0.00  0.00    -0.272 OA
ATOM      2  N   UNL     1      31.377 -12.089 -22.220  0.00  0.00    -0.302 N 
ATOM      3  C   UNL     1      32.113 -13.074 -21.581  0.00  0.00    +0.249 C 
ATOM      4  H   UNL     1      31.027 -12.275 -23.121  0.00  0.00    +0.150 HD
ENDROOT
BRANCH   3   5
ATOM      5  C   UNL     1      32.286 -14.329 -22.433  0.00  0.00    +0.190 C 
BRANCH   5   6
ATOM      6  C   UNL     1      33.618 -14.376 -23.240  0.00  0.00    +0.074 C 
ATOM      7  C   UNL     1      33.490 -15.303 -24.465  0.00  0.00    +0.007 C 
ATOM      8  C   UNL     1      33.926 -12.953 -23.765  0.00  0.00    +0.007 C 
BRANCH   6   9
ATOM      9  C   UNL     1      34.795 -14.844 -22.350  0.00  0.00    +0.211 C 
BRANCH   9  10
ATOM     10  O   UNL     1      35.028 -16.240 -22.503  0.00  0.00    -0.448 OA
BRANCH  10  12
ATOM     11  O   UNL     1      35.007 -16.502 -20.217  0.00  0.00    -0.250 OA
ATOM     12  C   UNL     1      35.047 -16.975 -21.347  0.00  0.00    +0.316 C 
BRANCH  12  13
ATOM     13  C   UNL     1      35.128 -18.474 -21.657  0.00  0.00    +0.090 C 
ATOM     14  C   UNL     1      35.125 -18.684 -23.176  0.00  0.00    +0.011 C 
ATOM     15  C   UNL     1      33.908 -19.189 -21.051  0.00  0.00    +0.011 C 
ATOM     16  C   UNL     1      36.405 -19.057 -21.036  0.00  0.00    +0.011 C 
ENDBRANCH  12  13
ENDBRANCH  10  12
ENDBRANCH   9  10
ENDBRANCH   6   9
ENDBRANCH   5   6
BRANCH   5  17
ATOM     17  O   UNL     1      32.229 -15.436 -21.537  0.00  0.00    -0.376 OA
ATOM     18  H   UNL     1      32.554 -15.163 -20.664  0.00  0.00    +0.211 HD
ENDBRANCH   5  17
ENDBRANCH   3   5
BRANCH   2  19
ATOM     19  C   UNL     1      31.102 -10.801 -21.625  0.00  0.00    +0.099 C 
BRANCH  19  20
ATOM     20  C   UNL     1      32.151  -9.761 -21.993  0.00  0.00    +0.106 C 
BRANCH  20  23
ATOM     21  O   UNL     1      32.405  -8.537 -19.918  0.00  0.00    -0.275 OA
ATOM     22  N   UNL     1      31.699  -7.405 -21.819  0.00  0.00    -0.301 N 
ATOM     23  C   UNL     1      32.113  -8.524 -21.110  0.00  0.00    +0.224 C 
ATOM     24  H   UNL     1      31.489  -7.505 -22.776  0.00  0.00    +0.150 HD
BRANCH  22  25
ATOM     25  C   UNL     1      31.563  -6.100 -21.214  0.00  0.00    +0.137 C 
BRANCH  25  26
ATOM     26  C   UNL     1      30.626  -5.211 -22.011  0.00  0.00    +0.230 C 
BRANCH  26  27
ATOM     27  O   UNL     1      30.530  -5.698 -23.342  0.00  0.00    -0.447 OA
BRANCH  27  29
ATOM     28  O   UNL     1      30.456  -3.845 -24.719  0.00  0.00    -0.250 OA
ATOM     29  C   UNL     1      31.002  -4.863 -24.318  0.00  0.00    +0.318 C 
ATOM     30  C   UNL     1      32.310  -5.376 -24.839  0.00  0.00    +0.121 C 
ENDBRANCH  27  29
ENDBRANCH  26  27
ENDBRANCH  25  26
ENDBRANCH  22  25
ENDBRANCH  20  23
ENDBRANCH  19  20
ENDBRANCH   2  19
TORSDOF 14
ENDMDL
MODEL 5
REMARK VINA RESULT:      -7.9      7.108     11.039
REMARK  Name = 447720
REMARK  14 active torsions:
REMARK  status: ('A' for Active; 'I' for Inactive)
REMARK    1  A    between atoms: N_2  and  C_19
REMARK    2  A    between atoms: C_3  and  C_5
REMARK    3  A    between atoms: C_5  and  C_6
REMARK    4  A    between atoms: C_5  and  O_17
REMARK    5  A    between atoms: C_6  and  C_9
REMARK    6  A    between atoms: C_9  and  O_10
REMARK    7  A    between atoms: O_10  and  C_12
REMARK    8  A    between atoms: C_12  and  C_13
REMARK    9  A    between atoms: C_19  and  C_20
REMARK   10  A    between atoms: C_20  and  C_23
REMARK   11  A    between atoms: N_22  and  C_25
REMARK   12  A    between atoms: C_25  and  C_26
REMARK   13  A    between atoms: C_26  and  O_27
REMARK   14  A    between atoms: O_27  and  C_29
REMARK                            x       y       z     vdW  Elec       q    Type
REMARK                         _______ _______ _______ _____ _____    ______ ____
ROOT
ATOM      1  O   UNL     1      34.164 -23.692 -17.218  0.00  0.00    -0.272 OA
ATOM      2  N   UNL     1      32.789 -22.294 -18.460  0.00  0.00    -0.302 N 
ATOM      3  C   UNL     1      33.062 -23.193 -17.441  0.00  0.00    +0.249 C 
ATOM      4  H   UNL     1      31.870 -21.953 -18.552  0.00  0.00    +0.150 HD
ENDROOT
BRANCH   3   5
ATOM      5  C   UNL     1      31.826 -23.540 -16.613  0.00  0.00    +0.190 C 
BRANCH   5   6
ATOM      6  C   UNL     1      32.062 -23.523 -15.074  0.00  0.00    +0.074 C 
ATOM      7  C   UNL     1      31.244 -22.403 -14.401  0.00  0.00    +0.007 C 
ATOM      8  C   UNL     1      31.576 -24.870 -14.486  0.00  0.00    +0.007 C 
BRANCH   6   9
ATOM      9  C   UNL     1      33.563 -23.346 -14.739  0.00  0.00    +0.211 C 
BRANCH   9  10
ATOM     10  O   UNL     1      34.112 -24.543 -14.198  0.00  0.00    -0.448 OA
BRANCH  10  12
ATOM     11  O   UNL     1      34.666 -23.996 -12.033  0.00  0.00    -0.250 OA
ATOM     12  C   UNL     1      34.982 -24.385 -13.152  0.00  0.00    +0.316 C 
BRANCH  12  13
ATOM     13  C   UNL     1      36.408 -24.759 -13.569  0.00  0.00    +0.090 C 
ATOM     14  C   UNL     1      37.180 -23.490 -13.952  0.00  0.00    +0.011 C 
ATOM     15  C   UNL     1      36.356 -25.698 -14.786  0.00  0.00    +0.011 C 
ATOM     16  C   UNL     1      37.107 -25.483 -12.411  0.00  0.00    +0.011 C 
ENDBRANCH  12  13
ENDBRANCH  10  12
ENDBRANCH   9  10
ENDBRANCH   6   9
ENDBRANCH   5   6
BRANCH   5  17
ATOM     17  O   UNL     1      30.828 -22.582 -16.956  0.00  0.00    -0.376 OA
ATOM     18  H   UNL     1      30.816 -21.875 -16.291  0.00  0.00    +0.211 HD
ENDBRANCH   5  17
ENDBRANCH   3   5
BRANCH   2  19
ATOM     19  C   UNL     1      33.792 -21.834 -19.393  0.00  0.00    +0.099 C 
BRANCH  19  20
ATOM     20  C   UNL     1      33.364 -20.567 -20.121  0.00  0.00    +0.106 C 
BRANCH  20  23
ATOM     21  O   UNL     1      35.582 -19.614 -20.313  0.00  0.00    -0.275 OA
ATOM     22  N   UNL     1      34.162 -19.552 -22.150  0.00  0.00    -0.301 N 
ATOM     23  C   UNL     1      34.504 -19.868 -20.843  0.00  0.00    +0.224 C 
ATOM     24  H   UNL     1      33.268 -19.802 -22.476  0.00  0.00    +0.150 HD
BRANCH  22  25
ATOM     25  C   UNL     1      35.062 -18.870 -23.051  0.00  0.00    +0.137 C 
BRANCH  25  26
ATOM     26  C   UNL     1      34.647 -17.426 -23.268  0.00  0.00    +0.230 C 
BRANCH  26  27
ATOM     27  O   UNL     1      35.384 -16.586 -22.391  0.00  0.00    -0.447 OA
BRANCH  27  29
ATOM     28  O   UNL     1      35.081 -16.261 -20.124  0.00  0.00    -0.250 OA
ATOM     29  C   UNL     1      34.713 -16.144 -21.285  0.00  0.00    +0.318 C 
ATOM     30  C   UNL     1      33.434 -15.480 -21.696  0.00  0.00    +0.121 C 
ENDBRANCH  27  29
ENDBRANCH  26  27
ENDBRANCH  25  26
ENDBRANCH  22  25
ENDBRANCH  20  23
ENDBRANCH  19  20
ENDBRANCH   2  19
TORSDOF 14
ENDMDL
MODEL 6
REMARK VINA RESULT:      -7.9      5.518     11.151
REMARK  Name = 447720
REMARK  14 active torsions:
REMARK  status: ('A' for Active; 'I' for Inactive)
REMARK    1  A    between atoms: N_2  and  C_19
REMARK    2  A    between atoms: C_3  and  C_5
REMARK    3  A    between atoms: C_5  and  C_6
REMARK    4  A    between atoms: C_5  and  O_17
REMARK    5  A    between atoms: C_6  and  C_9
REMARK    6  A    between atoms: C_9  and  O_10
REMARK    7  A    between atoms: O_10  and  C_12
REMARK    8  A    between atoms: C_12  and  C_13
REMARK    9  A    between atoms: C_19  and  C_20
REMARK   10  A    between atoms: C_20  and  C_23
REMARK   11  A    between atoms: N_22  and  C_25
REMARK   12  A    between atoms: C_25  and  C_26
REMARK   13  A    between atoms: C_26  and  O_27
REMARK   14  A    between atoms: O_27  and  C_29
REMARK                            x       y       z     vdW  Elec       q    Type
REMARK                         _______ _______ _______ _____ _____    ______ ____
ROOT
ATOM      1  O   UNL     1      36.695 -19.750 -19.995  0.00  0.00    -0.272 OA
ATOM      2  N   UNL     1      34.638 -20.816 -20.138  0.00  0.00    -0.302 N 
ATOM      3  C   UNL     1      35.526 -19.779 -20.378  0.00  0.00    +0.249 C 
ATOM      4  H   UNL     1      33.722 -20.739 -20.490  0.00  0.00    +0.150 HD
ENDROOT
BRANCH   3   5
ATOM      5  C   UNL     1      34.895 -18.629 -21.159  0.00  0.00    +0.190 C 
BRANCH   5   6
ATOM      6  C   UNL     1      35.537 -18.376 -22.556  0.00  0.00    +0.074 C 
ATOM      7  C   UNL     1      37.066 -18.573 -22.506  0.00  0.00    +0.007 C 
ATOM      8  C   UNL     1      34.968 -19.412 -23.555  0.00  0.00    +0.007 C 
BRANCH   6   9
ATOM      9  C   UNL     1      35.211 -16.954 -23.072  0.00  0.00    +0.211 C 
BRANCH   9  10
ATOM     10  O   UNL     1      33.858 -16.607 -22.797  0.00  0.00    -0.448 OA
BRANCH  10  12
ATOM     11  O   UNL     1      33.622 -14.520 -23.735  0.00  0.00    -0.250 OA
ATOM     12  C   UNL     1      33.576 -15.267 -22.765  0.00  0.00    +0.316 C 
BRANCH  12  13
ATOM     13  C   UNL     1      33.196 -14.826 -21.347  0.00  0.00    +0.090 C 
ATOM     14  C   UNL     1      34.460 -14.726 -20.485  0.00  0.00    +0.011 C 
ATOM     15  C   UNL     1      32.247 -15.863 -20.724  0.00  0.00    +0.011 C 
ATOM     16  C   UNL     1      32.481 -13.469 -21.408  0.00  0.00    +0.011 C 
ENDBRANCH  12  13
ENDBRANCH  10  12
ENDBRANCH   9  10
ENDBRANCH   6   9
ENDBRANCH   5   6
BRANCH   5  17
ATOM     17  O   UNL     1      33.517 -18.957 -21.318  0.00  0.00    -0.376 OA
ATOM     18  H   UNL     1      33.241 -19.550 -20.601  0.00  0.00    +0.211 HD
ENDBRANCH   5  17
ENDBRANCH   3   5
BRANCH   2  19
ATOM     19  C   UNL     1      34.996 -22.002 -19.395  0.00  0.00    +0.099 C 
BRANCH  19  20
ATOM     20  C   UNL     1      33.783 -22.860 -19.062  0.00  0.00    +0.106 C 
BRANCH  20  23
ATOM     21  O   UNL     1      34.584 -23.523 -16.874  0.00  0.00    -0.275 OA
ATOM     22  N   UNL     1      32.338 -22.994 -17.144  0.00  0.00    -0.301 N 
ATOM     23  C   UNL     1      33.645 -23.163 -17.579  0.00  0.00    +0.224 C 
ATOM     24  H   UNL     1      31.660 -22.701 -17.795  0.00  0.00    +0.150 HD
BRANCH  22  25
ATOM     25  C   UNL     1      31.931 -23.229 -15.778  0.00  0.00    +0.137 C 
BRANCH  25  26
ATOM     26  C   UNL     1      30.471 -22.873 -15.563  0.00  0.00    +0.230 C 
BRANCH  26  27
ATOM     27  O   UNL     1      29.821 -22.761 -16.821  0.00  0.00    -0.447 OA
BRANCH  27  29
ATOM     28  O   UNL     1      27.820 -23.296 -17.845  0.00  0.00    -0.250 OA
ATOM     29  C   UNL     1      28.631 -23.426 -16.939  0.00  0.00    +0.318 C 
ATOM     30  C   UNL     1      28.452 -24.359 -15.780  0.00  0.00    +0.121 C 
ENDBRANCH  27  29
ENDBRANCH  26  27
ENDBRANCH  25  26
ENDBRANCH  22  25
ENDBRANCH  20  23
ENDBRANCH  19  20
ENDBRANCH   2  19
TORSDOF 14
ENDMDL
MODEL 7
REMARK VINA RESULT:      -7.8      7.028     12.746
REMARK  Name = 447720
REMARK  14 active torsions:
REMARK  status: ('A' for Active; 'I' for Inactive)
REMARK    1  A    between atoms: N_2  and  C_19
REMARK    2  A    between atoms: C_3  and  C_5
REMARK    3  A    between atoms: C_5  and  C_6
REMARK    4  A    between atoms: C_5  and  O_17
REMARK    5  A    between atoms: C_6  and  C_9
REMARK    6  A    between atoms: C_9  and  O_10
REMARK    7  A    between atoms: O_10  and  C_12
REMARK    8  A    between atoms: C_12  and  C_13
REMARK    9  A    between atoms: C_19  and  C_20
REMARK   10  A    between atoms: C_20  and  C_23
REMARK   11  A    between atoms: N_22  and  C_25
REMARK   12  A    between atoms: C_25  and  C_26
REMARK   13  A    between atoms: C_26  and  O_27
REMARK   14  A    between atoms: O_27  and  C_29
REMARK                            x       y       z     vdW  Elec       q    Type
REMARK                         _______ _______ _______ _____ _____    ______ ____
ROOT
ATOM      1  O   UNL     1      34.894 -22.272 -19.884  0.00  0.00    -0.272 OA
ATOM      2  N   UNL     1      36.305 -21.236 -18.360  0.00  0.00    -0.302 N 
ATOM      3  C   UNL     1      35.704 -21.392 -19.599  0.00  0.00    +0.249 C 
ATOM      4  H   UNL     1      36.942 -20.496 -18.237  0.00  0.00    +0.150 HD
ENDROOT
BRANCH   3   5
ATOM      5  C   UNL     1      36.174 -20.356 -20.618  0.00  0.00    +0.190 C 
BRANCH   5   6
ATOM      6  C   UNL     1      35.031 -19.489 -21.225  0.00  0.00    +0.074 C 
ATOM      7  C   UNL     1      34.879 -19.753 -22.736  0.00  0.00    +0.007 C 
ATOM      8  C   UNL     1      33.697 -19.890 -20.548  0.00  0.00    +0.007 C 
BRANCH   6   9
ATOM      9  C   UNL     1      35.281 -17.982 -20.980  0.00  0.00    +0.211 C 
BRANCH   9  10
ATOM     10  O   UNL     1      34.236 -17.192 -21.538  0.00  0.00    -0.448 OA
BRANCH  10  12
ATOM     11  O   UNL     1      35.429 -16.202 -23.238  0.00  0.00    -0.250 OA
ATOM     12  C   UNL     1      34.631 -16.132 -22.310  0.00  0.00    +0.316 C 
BRANCH  12  13
ATOM     13  C   UNL     1      33.942 -14.841 -21.856  0.00  0.00    +0.090 C 
ATOM     14  C   UNL     1      34.057 -13.782 -22.959  0.00  0.00    +0.011 C 
ATOM     15  C   UNL     1      34.626 -14.315 -20.583  0.00  0.00    +0.011 C 
ATOM     16  C   UNL     1      32.467 -15.131 -21.544  0.00  0.00    +0.011 C 
ENDBRANCH  12  13
ENDBRANCH  10  12
ENDBRANCH   9  10
ENDBRANCH   6   9
ENDBRANCH   5   6
BRANCH   5  17
ATOM     17  O   UNL     1      37.104 -19.515 -19.939  0.00  0.00    -0.376 OA
ATOM     18  H   UNL     1      37.676 -20.056 -19.373  0.00  0.00    +0.211 HD
ENDBRANCH   5  17
ENDBRANCH   3   5
BRANCH   2  19
ATOM     19  C   UNL     1      36.040 -22.112 -17.242  0.00  0.00    +0.099 C 
BRANCH  19  20
ATOM     20  C   UNL     1      37.294 -22.403 -16.429  0.00  0.00    +0.106 C 
BRANCH  20  23
ATOM     21  O   UNL     1      36.115 -23.637 -14.710  0.00  0.00    -0.275 OA
ATOM     22  N   UNL     1      38.213 -24.367 -15.389  0.00  0.00    -0.301 N 
ATOM     23  C   UNL     1      37.113 -23.521 -15.415  0.00  0.00    +0.224 C 
ATOM     24  H   UNL     1      38.963 -24.183 -15.999  0.00  0.00    +0.150 HD
BRANCH  22  25
ATOM     25  C   UNL     1      38.304 -25.506 -14.504  0.00  0.00    +0.137 C 
BRANCH  25  26
ATOM     26  C   UNL     1      38.984 -25.142 -13.196  0.00  0.00    +0.230 C 
BRANCH  26  27
ATOM     27  O   UNL     1      38.028 -25.164 -12.145  0.00  0.00    -0.447 OA
BRANCH  27  29
ATOM     28  O   UNL     1      38.317 -22.928 -11.641  0.00  0.00    -0.250 OA
ATOM     29  C   UNL     1      37.634 -23.943 -11.673  0.00  0.00    +0.318 C 
ATOM     30  C   UNL     1      36.218 -24.016 -11.189  0.00  0.00    +0.121 C 
ENDBRANCH  27  29
ENDBRANCH  26  27
ENDBRANCH  25  26
ENDBRANCH  22  25
ENDBRANCH  20  23
ENDBRANCH  19  20
ENDBRANCH   2  19
TORSDOF 14
ENDMDL
MODEL 8
REMARK VINA RESULT:      -7.8      1.846      3.700
REMARK  Name = 447720
REMARK  14 active torsions:
REMARK  status: ('A' for Active; 'I' for Inactive)
REMARK    1  A    between atoms: N_2  and  C_19
REMARK    2  A    between atoms: C_3  and  C_5
REMARK    3  A    between atoms: C_5  and  C_6
REMARK    4  A    between atoms: C_5  and  O_17
REMARK    5  A    between atoms: C_6  and  C_9
REMARK    6  A    between atoms: C_9  and  O_10
REMARK    7  A    between atoms: O_10  and  C_12
REMARK    8  A    between atoms: C_12  and  C_13
REMARK    9  A    between atoms: C_19  and  C_20
REMARK   10  A    between atoms: C_20  and  C_23
REMARK   11  A    between atoms: N_22  and  C_25
REMARK   12  A    between atoms: C_25  and  C_26
REMARK   13  A    between atoms: C_26  and  O_27
REMARK   14  A    between atoms: O_27  and  C_29
REMARK                            x       y       z     vdW  Elec       q    Type
REMARK                         _______ _______ _______ _____ _____    ______ ____
ROOT
ATOM      1  O   UNL     1      32.669 -14.116 -24.684  0.00  0.00    -0.272 OA
ATOM      2  N   UNL     1      34.234 -12.634 -23.825  0.00  0.00    -0.302 N 
ATOM      3  C   UNL     1      33.628 -13.873 -23.954  0.00  0.00    +0.249 C 
ATOM      4  H   UNL     1      34.998 -12.547 -23.210  0.00  0.00    +0.150 HD
ENDROOT
BRANCH   3   5
ATOM      5  C   UNL     1      34.260 -14.936 -23.058  0.00  0.00    +0.190 C 
BRANCH   5   6
ATOM      6  C   UNL     1      33.613 -15.051 -21.646  0.00  0.00    +0.074 C 
ATOM      7  C   UNL     1      34.614 -14.650 -20.544  0.00  0.00    +0.007 C 
ATOM      8  C   UNL     1      32.420 -14.068 -21.569  0.00  0.00    +0.007 C 
BRANCH   6   9
ATOM      9  C   UNL     1      33.094 -16.485 -21.383  0.00  0.00    +0.211 C 
BRANCH   9  10
ATOM     10  O   UNL     1      34.143 -17.334 -20.929  0.00  0.00    -0.448 OA
BRANCH  10  12
ATOM     11  O   UNL     1      32.854 -19.224 -20.687  0.00  0.00    -0.250 OA
ATOM     12  C   UNL     1      33.904 -18.680 -21.010  0.00  0.00    +0.316 C 
BRANCH  12  13
ATOM     13  C   UNL     1      35.128 -19.418 -21.561  0.00  0.00    +0.090 C 
ATOM     14  C   UNL     1      35.256 -20.784 -20.876  0.00  0.00    +0.011 C 
ATOM     15  C   UNL     1      36.395 -18.595 -21.274  0.00  0.00    +0.011 C 
ATOM     16  C   UNL     1      34.981 -19.592 -23.079  0.00  0.00    +0.011 C 
ENDBRANCH  12  13
ENDBRANCH  10  12
ENDBRANCH   9  10
ENDBRANCH   6   9
ENDBRANCH   5   6
BRANCH   5  17
ATOM     17  O   UNL     1      34.128 -16.177 -23.748  0.00  0.00    -0.376 OA
ATOM     18  H   UNL     1      33.273 -16.579 -23.528  0.00  0.00    +0.211 HD
ENDBRANCH   5  17
ENDBRANCH   3   5
BRANCH   2  19
ATOM     19  C   UNL     1      33.796 -11.464 -24.551  0.00  0.00    +0.099 C 
BRANCH  19  20
ATOM     20  C   UNL     1      34.819 -10.338 -24.499  0.00  0.00    +0.106 C 
BRANCH  20  23
ATOM     21  O   UNL     1      35.005  -8.134 -23.510  0.00  0.00    -0.275 OA
ATOM     22  N   UNL     1      32.904  -9.101 -23.731  0.00  0.00    -0.301 N 
ATOM     23  C   UNL     1      34.285  -9.064 -23.864  0.00  0.00    +0.224 C 
ATOM     24  H   UNL     1      32.422  -9.898 -24.049  0.00  0.00    +0.150 HD
BRANCH  22  25
ATOM     25  C   UNL     1      32.145  -8.020 -23.145  0.00  0.00    +0.137 C 
BRANCH  25  26
ATOM     26  C   UNL     1      32.078  -8.142 -21.633  0.00  0.00    +0.230 C 
BRANCH  26  27
ATOM     27  O   UNL     1      31.722  -9.472 -21.281  0.00  0.00    -0.447 OA
BRANCH  27  29
ATOM     28  O   UNL     1      32.237  -9.047 -19.070  0.00  0.00    -0.250 OA
ATOM     29  C   UNL     1      31.835  -9.788 -19.955  0.00  0.00    +0.318 C 
ATOM     30  C   UNL     1      31.388 -11.200 -19.728  0.00  0.00    +0.121 C 
ENDBRANCH  27  29
ENDBRANCH  26  27
ENDBRANCH  25  26
ENDBRANCH  22  25
ENDBRANCH  20  23
ENDBRANCH  19  20
ENDBRANCH   2  19
TORSDOF 14
ENDMDL
MODEL 9
REMARK VINA RESULT:      -7.8      6.915     11.501
REMARK  Name = 447720
REMARK  14 active torsions:
REMARK  status: ('A' for Active; 'I' for Inactive)
REMARK    1  A    between atoms: N_2  and  C_19
REMARK    2  A    between atoms: C_3  and  C_5
REMARK    3  A    between atoms: C_5  and  C_6
REMARK    4  A    between atoms: C_5  and  O_17
REMARK    5  A    between atoms: C_6  and  C_9
REMARK    6  A    between atoms: C_9  and  O_10
REMARK    7  A    between atoms: O_10  and  C_12
REMARK    8  A    between atoms: C_12  and  C_13
REMARK    9  A    between atoms: C_19  and  C_20
REMARK   10  A    between atoms: C_20  and  C_23
REMARK   11  A    between atoms: N_22  and  C_25
REMARK   12  A    between atoms: C_25  and  C_26
REMARK   13  A    between atoms: C_26  and  O_27
REMARK   14  A    between atoms: O_27  and  C_29
REMARK                            x       y       z     vdW  Elec       q    Type
REMARK                         _______ _______ _______ _____ _____    ______ ____
ROOT
ATOM      1  O   UNL     1      38.361 -23.112 -15.944  0.00  0.00    -0.272 OA
ATOM      2  N   UNL     1      36.412 -22.097 -16.691  0.00  0.00    -0.302 N 
ATOM      3  C   UNL     1      37.206 -22.735 -15.751  0.00  0.00    +0.249 C 
ATOM      4  H   UNL     1      35.498 -21.836 -16.434  0.00  0.00    +0.150 HD
ENDROOT
BRANCH   3   5
ATOM      5  C   UNL     1      36.486 -22.958 -14.423  0.00  0.00    +0.190 C 
BRANCH   5   6
ATOM      6  C   UNL     1      35.749 -24.326 -14.317  0.00  0.00    +0.074 C 
ATOM      7  C   UNL     1      36.740 -25.500 -14.441  0.00  0.00    +0.007 C 
ATOM      8  C   UNL     1      35.088 -24.422 -12.920  0.00  0.00    +0.007 C 
BRANCH   6   9
ATOM      9  C   UNL     1      34.648 -24.454 -15.398  0.00  0.00    +0.211 C 
BRANCH   9  10
ATOM     10  O   UNL     1      33.808 -23.305 -15.411  0.00  0.00    -0.448 OA
BRANCH  10  12
ATOM     11  O   UNL     1      32.854 -23.360 -17.504  0.00  0.00    -0.250 OA
ATOM     12  C   UNL     1      32.752 -23.344 -16.283  0.00  0.00    +0.316 C 
BRANCH  12  13
ATOM     13  C   UNL     1      31.421 -23.365 -15.525  0.00  0.00    +0.090 C 
ATOM     14  C   UNL     1      31.557 -22.556 -14.229  0.00  0.00    +0.011 C 
ATOM     15  C   UNL     1      31.054 -24.816 -15.171  0.00  0.00    +0.011 C 
ATOM     16  C   UNL     1      30.317 -22.774 -16.412  0.00  0.00    +0.011 C 
ENDBRANCH  12  13
ENDBRANCH  10  12
ENDBRANCH   9  10
ENDBRANCH   6   9
ENDBRANCH   5   6
BRANCH   5  17
ATOM     17  O   UNL     1      37.480 -22.869 -13.405  0.00  0.00    -0.376 OA
ATOM     18  H   UNL     1      38.179 -22.258 -13.688  0.00  0.00    +0.211 HD
ENDBRANCH   5  17
ENDBRANCH   3   5
BRANCH   2  19
ATOM     19  C   UNL     1      36.863 -21.800 -18.031  0.00  0.00    +0.099 C 
BRANCH  19  20
ATOM     20  C   UNL     1      35.711 -21.730 -19.024  0.00  0.00    +0.106 C 
BRANCH  20  23
ATOM     21  O   UNL     1      36.769 -19.839 -20.108  0.00  0.00    -0.275 OA
ATOM     22  N   UNL     1      34.501 -20.212 -20.445  0.00  0.00    -0.301 N 
ATOM     23  C   UNL     1      35.750 -20.496 -19.911  0.00  0.00    +0.224 C 
ATOM     24  H   UNL     1      33.748 -20.806 -20.222  0.00  0.00    +0.150 HD
BRANCH  22  25
ATOM     25  C   UNL     1      34.258 -19.083 -21.313  0.00  0.00    +0.137 C 
BRANCH  25  26
ATOM     26  C   UNL     1      34.701 -19.370 -22.737  0.00  0.00    +0.230 C 
BRANCH  26  27
ATOM     27  O   UNL     1      35.703 -18.438 -23.117  0.00  0.00    -0.447 OA
BRANCH  27  29
ATOM     28  O   UNL     1      35.385 -16.150 -23.079  0.00  0.00    -0.250 OA
ATOM     29  C   UNL     1      35.251 -17.244 -23.609  0.00  0.00    +0.318 C 
ATOM     30  C   UNL     1      34.552 -17.463 -24.916  0.00  0.00    +0.121 C 
ENDBRANCH  27  29
ENDBRANCH  26  27
ENDBRANCH  25  26
ENDBRANCH  22  25
ENDBRANCH  20  23
ENDBRANCH  19  20
ENDBRANCH   2  19
TORSDOF 14
ENDMDL
