MODEL 1
REMARK VINA RESULT:     -11.3      0.000      0.000
REMARK  Name = 5288679
REMARK  6 active torsions:
REMARK  status: ('A' for Active; 'I' for Inactive)
REMARK    1  A    between atoms: N_3  and  C_24
REMARK    2  A    between atoms: C_4  and  C_8
REMARK    3  A    between atoms: C_5  and  N_14
REMARK    4  A    between atoms: N_14  and  C_16
REMARK    5  A    between atoms: C_21  and  O_22
REMARK    6  A    between atoms: C_24  and  C_25
REMARK                            x       y       z     vdW  Elec       q    Type
REMARK                         _______ _______ _______ _____ _____    ______ ____
ROOT
ATOM      1  O   UNL     1      32.720 -23.601 -13.377  0.00  0.00    -0.269 OA
ATOM      2  O   UNL     1      35.899 -23.124 -16.661  0.00  0.00    -0.268 OA
ATOM      3  N   UNL     1      34.614 -23.388 -14.726  0.00  0.00    -0.217 N 
ATOM      4  C   UNL     1      32.583 -23.460 -15.768  0.00  0.00    +0.072 C 
ATOM      5  C   UNL     1      33.514 -23.322 -16.725  0.00  0.00    +0.107 C 
ATOM      6  C   UNL     1      33.278 -23.501 -14.457  0.00  0.00    +0.257 C 
ATOM      7  C   UNL     1      34.841 -23.262 -16.069  0.00  0.00    +0.269 C 
ENDROOT
BRANCH   4   8
ATOM      8  C   UNL     1      31.135 -23.576 -15.947  0.00  0.00    +0.006 C 
ATOM      9  C   UNL     1      30.400 -22.506 -16.470  0.00  0.00    +0.000 C 
ATOM     10  C   UNL     1      30.470 -24.757 -15.596  0.00  0.00    +0.000 C 
ATOM     11  C   UNL     1      29.020 -22.615 -16.641  0.00  0.00    +0.000 C 
ATOM     12  C   UNL     1      29.090 -24.866 -15.766  0.00  0.00    +0.000 C 
ATOM     13  C   UNL     1      28.364 -23.796 -16.290  0.00  0.00    +0.000 C 
ENDBRANCH   4   8
BRANCH   5  14
ATOM     14  N   UNL     1      33.429 -23.254 -18.075  0.00  0.00    -0.309 N 
ATOM     15  H   UNL     1      33.133 -24.078 -18.525  0.00  0.00    +0.152 HD
BRANCH  14  16
ATOM     16  C   UNL     1      33.710 -22.166 -18.919  0.00  0.00    +0.049 C 
ATOM     17  C   UNL     1      35.018 -21.934 -19.353  0.00  0.00    +0.018 C 
ATOM     18  C   UNL     1      32.684 -21.312 -19.327  0.00  0.00    +0.018 C 
ATOM     19  C   UNL     1      35.297 -20.855 -20.191  0.00  0.00    +0.038 C 
ATOM     20  C   UNL     1      32.963 -20.231 -20.166  0.00  0.00    +0.038 C 
ATOM     21  C   UNL     1      34.270 -20.003 -20.597  0.00  0.00    +0.139 C 
BRANCH  21  22
ATOM     22  O   UNL     1      34.541 -18.949 -21.414  0.00  0.00    -0.471 OA
ATOM     23  C   UNL     1      35.897 -18.509 -21.477  0.00  0.00    +0.252 C 
ENDBRANCH  21  22
ENDBRANCH  14  16
ENDBRANCH   5  14
BRANCH   3  24
ATOM     24  C   UNL     1      35.653 -23.375 -13.714  0.00  0.00    +0.128 C 
BRANCH  24  25
ATOM     25  C   UNL     1      36.645 -24.449 -14.002  0.00  0.00    -0.002 C 
ATOM     26  C   UNL     1      38.010 -24.162 -13.986  0.00  0.00    -0.003 C 
ATOM     27  C   UNL     1      36.209 -25.743 -14.290  0.00  0.00    -0.003 C 
ATOM     28  C   UNL     1      38.939 -25.166 -14.256  0.00  0.00    -0.000 C 
ATOM     29  C   UNL     1      37.138 -26.748 -14.560  0.00  0.00    -0.000 C 
ATOM     30  C   UNL     1      38.503 -26.461 -14.542  0.00  0.00    -0.000 C 
ENDBRANCH  24  25
ENDBRANCH   3  24
TORSDOF 6
ENDMDL
MODEL 2
REMARK VINA RESULT:     -11.1      7.469     11.989
REMARK  Name = 5288679
REMARK  6 active torsions:
REMARK  status: ('A' for Active; 'I' for Inactive)
REMARK    1  A    between atoms: N_3  and  C_24
REMARK    2  A    between atoms: C_4  and  C_8
REMARK    3  A    between atoms: C_5  and  N_14
REMARK    4  A    between atoms: N_14  and  C_16
REMARK    5  A    between atoms: C_21  and  O_22
REMARK    6  A    between atoms: C_24  and  C_25
REMARK                            x       y       z     vdW  Elec       q    Type
REMARK                         _______ _______ _______ _____ _____    ______ ____
ROOT
ATOM      1  O   UNL     1      35.300 -15.701 -23.411  0.00  0.00    -0.269 OA
ATOM      2  O   UNL     1      32.697 -14.267 -19.906  0.00  0.00    -0.268 OA
ATOM      3  N   UNL     1      34.229 -15.218 -21.393  0.00  0.00    -0.217 N 
ATOM      4  C   UNL     1      33.501 -14.120 -23.259  0.00  0.00    +0.072 C 
ATOM      5  C   UNL     1      32.744 -13.702 -22.233  0.00  0.00    +0.107 C 
ATOM      6  C   UNL     1      34.474 -15.111 -22.734  0.00  0.00    +0.257 C 
ATOM      7  C   UNL     1      33.193 -14.411 -21.012  0.00  0.00    +0.269 C 
ENDROOT
BRANCH   4   8
ATOM      8  C   UNL     1      33.428 -13.683 -24.653  0.00  0.00    +0.006 C 
ATOM      9  C   UNL     1      32.928 -14.543 -25.638  0.00  0.00    +0.000 C 
ATOM     10  C   UNL     1      33.858 -12.402 -25.018  0.00  0.00    +0.000 C 
ATOM     11  C   UNL     1      32.857 -14.128 -26.968  0.00  0.00    +0.000 C 
ATOM     12  C   UNL     1      33.789 -11.987 -26.348  0.00  0.00    +0.000 C 
ATOM     13  C   UNL     1      33.287 -12.849 -27.323  0.00  0.00    +0.000 C 
ENDBRANCH   4   8
BRANCH   5  14
ATOM     14  N   UNL     1      31.737 -12.800 -22.152  0.00  0.00    -0.309 N 
ATOM     15  H   UNL     1      30.859 -13.113 -22.468  0.00  0.00    +0.152 HD
BRANCH  14  16
ATOM     16  C   UNL     1      31.779 -11.477 -21.679  0.00  0.00    +0.049 C 
ATOM     17  C   UNL     1      32.103 -10.431 -22.547  0.00  0.00    +0.018 C 
ATOM     18  C   UNL     1      31.497 -11.202 -20.339  0.00  0.00    +0.018 C 
ATOM     19  C   UNL     1      32.144  -9.119 -22.078  0.00  0.00    +0.038 C 
ATOM     20  C   UNL     1      31.539  -9.888 -19.870  0.00  0.00    +0.038 C 
ATOM     21  C   UNL     1      31.863  -8.847 -20.740  0.00  0.00    +0.139 C 
BRANCH  21  22
ATOM     22  O   UNL     1      31.903  -7.566 -20.282  0.00  0.00    -0.471 OA
ATOM     23  C   UNL     1      31.870  -6.526 -21.257  0.00  0.00    +0.252 C 
ENDBRANCH  21  22
ENDBRANCH  14  16
ENDBRANCH   5  14
BRANCH   3  24
ATOM     24  C   UNL     1      34.959 -16.095 -20.497  0.00  0.00    +0.128 C 
BRANCH  24  25
ATOM     25  C   UNL     1      34.684 -17.515 -20.855  0.00  0.00    -0.002 C 
ATOM     26  C   UNL     1      33.379 -18.005 -20.818  0.00  0.00    -0.003 C 
ATOM     27  C   UNL     1      35.733 -18.357 -21.227  0.00  0.00    -0.003 C 
ATOM     28  C   UNL     1      33.121 -19.335 -21.153  0.00  0.00    -0.000 C 
ATOM     29  C   UNL     1      35.476 -19.687 -21.562  0.00  0.00    -0.000 C 
ATOM     30  C   UNL     1      34.170 -20.176 -21.526  0.00  0.00    -0.000 C 
ENDBRANCH  24  25
ENDBRANCH   3  24
TORSDOF 6
ENDMDL
MODEL 3
REMARK VINA RESULT:     -10.3      1.376      5.840
REMARK  Name = 5288679
REMARK  6 active torsions:
REMARK  status: ('A' for Active; 'I' for Inactive)
REMARK    1  A    between atoms: N_3  and  C_24
REMARK    2  A    between atoms: C_4  and  C_8
REMARK    3  A    between atoms: C_5  and  N_14
REMARK    4  A    between atoms: N_14  and  C_16
REMARK    5  A    between atoms: C_21  and  O_22
REMARK    6  A    between atoms: C_24  and  C_25
REMARK                            x       y       z     vdW  Elec       q    Type
REMARK                         _______ _______ _______ _____ _____    ______ ____
ROOT
ATOM      1  O   UNL     1      33.545 -23.877 -13.275  0.00  0.00    -0.269 OA
ATOM      2  O   UNL     1      31.619 -22.612 -17.251  0.00  0.00    -0.268 OA
ATOM      3  N   UNL     1      32.235 -23.121 -15.054  0.00  0.00    -0.217 N 
ATOM      4  C   UNL     1      34.356 -23.821 -15.532  0.00  0.00    +0.072 C 
ATOM      5  C   UNL     1      33.791 -23.449 -16.691  0.00  0.00    +0.107 C 
ATOM      6  C   UNL     1      33.358 -23.618 -14.453  0.00  0.00    +0.257 C 
ATOM      7  C   UNL     1      32.408 -23.001 -16.405  0.00  0.00    +0.269 C 
ENDROOT
BRANCH   4   8
ATOM      8  C   UNL     1      35.717 -24.318 -15.326  0.00  0.00    +0.006 C 
ATOM      9  C   UNL     1      35.947 -25.684 -15.123  0.00  0.00    +0.000 C 
ATOM     10  C   UNL     1      36.802 -23.434 -15.327  0.00  0.00    +0.000 C 
ATOM     11  C   UNL     1      37.243 -26.160 -14.926  0.00  0.00    +0.000 C 
ATOM     12  C   UNL     1      38.098 -23.909 -15.129  0.00  0.00    +0.000 C 
ATOM     13  C   UNL     1      38.320 -25.272 -14.930  0.00  0.00    +0.000 C 
ENDBRANCH   4   8
BRANCH   5  14
ATOM     14  N   UNL     1      34.260 -23.410 -17.961  0.00  0.00    -0.309 N 
ATOM     15  H   UNL     1      34.301 -24.277 -18.427  0.00  0.00    +0.152 HD
BRANCH  14  16
ATOM     16  C   UNL     1      34.697 -22.298 -18.703  0.00  0.00    +0.049 C 
ATOM     17  C   UNL     1      36.028 -21.882 -18.624  0.00  0.00    +0.018 C 
ATOM     18  C   UNL     1      33.802 -21.605 -19.521  0.00  0.00    +0.018 C 
ATOM     19  C   UNL     1      36.462 -20.779 -19.359  0.00  0.00    +0.038 C 
ATOM     20  C   UNL     1      34.236 -20.501 -20.256  0.00  0.00    +0.038 C 
ATOM     21  C   UNL     1      35.566 -20.088 -20.175  0.00  0.00    +0.139 C 
BRANCH  21  22
ATOM     22  O   UNL     1      35.989 -19.012 -20.892  0.00  0.00    -0.471 OA
ATOM     23  C   UNL     1      34.988 -18.109 -21.358  0.00  0.00    +0.252 C 
ENDBRANCH  21  22
ENDBRANCH  14  16
ENDBRANCH   5  14
BRANCH   3  24
ATOM     24  C   UNL     1      31.010 -22.790 -14.352  0.00  0.00    +0.128 C 
BRANCH  24  25
ATOM     25  C   UNL     1      29.837 -23.111 -15.214  0.00  0.00    -0.002 C 
ATOM     26  C   UNL     1      29.660 -24.407 -15.699  0.00  0.00    -0.003 C 
ATOM     27  C   UNL     1      28.915 -22.114 -15.539  0.00  0.00    -0.003 C 
ATOM     28  C   UNL     1      28.563 -24.708 -16.506  0.00  0.00    -0.000 C 
ATOM     29  C   UNL     1      27.818 -22.414 -16.346  0.00  0.00    -0.000 C 
ATOM     30  C   UNL     1      27.641 -23.711 -16.829  0.00  0.00    -0.000 C 
ENDBRANCH  24  25
ENDBRANCH   3  24
TORSDOF 6
ENDMDL
MODEL 4
REMARK VINA RESULT:     -10.0      2.052      7.405
REMARK  Name = 5288679
REMARK  6 active torsions:
REMARK  status: ('A' for Active; 'I' for Inactive)
REMARK    1  A    between atoms: N_3  and  C_24
REMARK    2  A    between atoms: C_4  and  C_8
REMARK    3  A    between atoms: C_5  and  N_14
REMARK    4  A    between atoms: N_14  and  C_16
REMARK    5  A    between atoms: C_21  and  O_22
REMARK    6  A    between atoms: C_24  and  C_25
REMARK                            x       y       z     vdW  Elec       q    Type
REMARK                         _______ _______ _______ _____ _____    ______ ____
ROOT
ATOM      1  O   UNL     1      31.824 -23.690 -17.502  0.00  0.00    -0.269 OA
ATOM      2  O   UNL     1      33.067 -24.284 -13.119  0.00  0.00    -0.268 OA
ATOM      3  N   UNL     1      32.086 -24.198 -15.238  0.00  0.00    -0.217 N 
ATOM      4  C   UNL     1      33.817 -23.139 -16.286  0.00  0.00    +0.072 C 
ATOM      5  C   UNL     1      34.177 -23.315 -15.006  0.00  0.00    +0.107 C 
ATOM      6  C   UNL     1      32.455 -23.704 -16.459  0.00  0.00    +0.257 C 
ATOM      7  C   UNL     1      33.062 -23.993 -14.304  0.00  0.00    +0.269 C 
ENDROOT
BRANCH   4   8
ATOM      8  C   UNL     1      34.606 -22.526 -17.355  0.00  0.00    +0.006 C 
ATOM      9  C   UNL     1      34.025 -22.266 -18.602  0.00  0.00    +0.000 C 
ATOM     10  C   UNL     1      35.949 -22.194 -17.144  0.00  0.00    +0.000 C 
ATOM     11  C   UNL     1      34.776 -21.682 -19.622  0.00  0.00    +0.000 C 
ATOM     12  C   UNL     1      36.700 -21.611 -18.164  0.00  0.00    +0.000 C 
ATOM     13  C   UNL     1      36.114 -21.354 -19.403  0.00  0.00    +0.000 C 
ENDBRANCH   4   8
BRANCH   5  14
ATOM     14  N   UNL     1      35.310 -23.011 -14.329  0.00  0.00    -0.309 N 
ATOM     15  H   UNL     1      35.353 -22.099 -13.959  0.00  0.00    +0.152 HD
BRANCH  14  16
ATOM     16  C   UNL     1      36.433 -23.822 -14.084  0.00  0.00    +0.049 C 
ATOM     17  C   UNL     1      37.218 -23.609 -12.949  0.00  0.00    +0.018 C 
ATOM     18  C   UNL     1      36.768 -24.842 -14.976  0.00  0.00    +0.018 C 
ATOM     19  C   UNL     1      38.331 -24.412 -12.706  0.00  0.00    +0.038 C 
ATOM     20  C   UNL     1      37.883 -25.646 -14.733  0.00  0.00    +0.038 C 
ATOM     21  C   UNL     1      38.664 -25.431 -13.598  0.00  0.00    +0.139 C 
BRANCH  21  22
ATOM     22  O   UNL     1      39.751 -26.215 -13.362  0.00  0.00    -0.471 OA
ATOM     23  C   UNL     1      40.728 -26.300 -14.398  0.00  0.00    +0.252 C 
ENDBRANCH  21  22
ENDBRANCH  14  16
ENDBRANCH   5  14
BRANCH   3  24
ATOM     24  C   UNL     1      30.811 -24.834 -14.966  0.00  0.00    +0.128 C 
BRANCH  24  25
ATOM     25  C   UNL     1      29.705 -23.970 -15.469  0.00  0.00    -0.002 C 
ATOM     26  C   UNL     1      29.477 -22.720 -14.893  0.00  0.00    -0.003 C 
ATOM     27  C   UNL     1      28.895 -24.412 -16.516  0.00  0.00    -0.003 C 
ATOM     28  C   UNL     1      28.443 -21.911 -15.363  0.00  0.00    -0.000 C 
ATOM     29  C   UNL     1      27.859 -23.604 -16.987  0.00  0.00    -0.000 C 
ATOM     30  C   UNL     1      27.633 -22.353 -16.411  0.00  0.00    -0.000 C 
ENDBRANCH  24  25
ENDBRANCH   3  24
TORSDOF 6
ENDMDL
MODEL 5
REMARK VINA RESULT:      -9.5      9.496     15.570
REMARK  Name = 5288679
REMARK  6 active torsions:
REMARK  status: ('A' for Active; 'I' for Inactive)
REMARK    1  A    between atoms: N_3  and  C_24
REMARK    2  A    between atoms: C_4  and  C_8
REMARK    3  A    between atoms: C_5  and  N_14
REMARK    4  A    between atoms: N_14  and  C_16
REMARK    5  A    between atoms: C_21  and  O_22
REMARK    6  A    between atoms: C_24  and  C_25
REMARK                            x       y       z     vdW  Elec       q    Type
REMARK                         _______ _______ _______ _____ _____    ______ ____
ROOT
ATOM      1  O   UNL     1      33.643  -8.350 -23.751  0.00  0.00    -0.269 OA
ATOM      2  O   UNL     1      31.311 -11.251 -21.055  0.00  0.00    -0.268 OA
ATOM      3  N   UNL     1      32.343  -9.474 -22.170  0.00  0.00    -0.217 N 
ATOM      4  C   UNL     1      33.269 -10.718 -23.846  0.00  0.00    +0.072 C 
ATOM      5  C   UNL     1      32.586 -11.562 -23.058  0.00  0.00    +0.107 C 
ATOM      6  C   UNL     1      33.126  -9.352 -23.283  0.00  0.00    +0.257 C 
ATOM      7  C   UNL     1      31.984 -10.776 -21.955  0.00  0.00    +0.269 C 
ENDROOT
BRANCH   4   8
ATOM      8  C   UNL     1      34.012 -11.044 -25.064  0.00  0.00    +0.006 C 
ATOM      9  C   UNL     1      35.167 -10.328 -25.399  0.00  0.00    +0.000 C 
ATOM     10  C   UNL     1      33.576 -12.073 -25.906  0.00  0.00    +0.000 C 
ATOM     11  C   UNL     1      35.877 -10.637 -26.560  0.00  0.00    +0.000 C 
ATOM     12  C   UNL     1      34.285 -12.382 -27.067  0.00  0.00    +0.000 C 
ATOM     13  C   UNL     1      35.436 -11.665 -27.394  0.00  0.00    +0.000 C 
ENDBRANCH   4   8
BRANCH   5  14
ATOM     14  N   UNL     1      32.370 -12.897 -23.125  0.00  0.00    -0.309 N 
ATOM     15  H   UNL     1      31.612 -13.179 -23.688  0.00  0.00    +0.152 HD
BRANCH  14  16
ATOM     16  C   UNL     1      33.081 -13.936 -22.497  0.00  0.00    +0.049 C 
ATOM     17  C   UNL     1      34.121 -14.580 -23.171  0.00  0.00    +0.018 C 
ATOM     18  C   UNL     1      32.751 -14.327 -21.198  0.00  0.00    +0.018 C 
ATOM     19  C   UNL     1      34.828 -15.609 -22.550  0.00  0.00    +0.038 C 
ATOM     20  C   UNL     1      33.458 -15.357 -20.576  0.00  0.00    +0.038 C 
ATOM     21  C   UNL     1      34.495 -15.999 -21.252  0.00  0.00    +0.139 C 
BRANCH  21  22
ATOM     22  O   UNL     1      35.183 -17.003 -20.645  0.00  0.00    -0.471 OA
ATOM     23  C   UNL     1      35.505 -18.143 -21.440  0.00  0.00    +0.252 C 
ENDBRANCH  21  22
ENDBRANCH  14  16
ENDBRANCH   5  14
BRANCH   3  24
ATOM     24  C   UNL     1      31.964  -8.367 -21.312  0.00  0.00    +0.128 C 
BRANCH  24  25
ATOM     25  C   UNL     1      31.611  -7.185 -22.148  0.00  0.00    -0.002 C 
ATOM     26  C   UNL     1      32.005  -5.907 -21.751  0.00  0.00    -0.003 C 
ATOM     27  C   UNL     1      30.886  -7.355 -23.328  0.00  0.00    -0.003 C 
ATOM     28  C   UNL     1      31.675  -4.800 -22.533  0.00  0.00    -0.000 C 
ATOM     29  C   UNL     1      30.555  -6.249 -24.110  0.00  0.00    -0.000 C 
ATOM     30  C   UNL     1      30.950  -4.971 -23.714  0.00  0.00    -0.000 C 
ENDBRANCH  24  25
ENDBRANCH   3  24
TORSDOF 6
ENDMDL
MODEL 6
REMARK VINA RESULT:      -9.4      2.048      5.336
REMARK  Name = 5288679
REMARK  6 active torsions:
REMARK  status: ('A' for Active; 'I' for Inactive)
REMARK    1  A    between atoms: N_3  and  C_24
REMARK    2  A    between atoms: C_4  and  C_8
REMARK    3  A    between atoms: C_5  and  N_14
REMARK    4  A    between atoms: N_14  and  C_16
REMARK    5  A    between atoms: C_21  and  O_22
REMARK    6  A    between atoms: C_24  and  C_25
REMARK                            x       y       z     vdW  Elec       q    Type
REMARK                         _______ _______ _______ _____ _____    ______ ____
ROOT
ATOM      1  O   UNL     1      35.978 -22.506 -14.806  0.00  0.00    -0.269 OA
ATOM      2  O   UNL     1      32.388 -25.012 -13.410  0.00  0.00    -0.268 OA
ATOM      3  N   UNL     1      34.341 -23.764 -13.716  0.00  0.00    -0.217 N 
ATOM      4  C   UNL     1      33.986 -23.255 -15.914  0.00  0.00    +0.072 C 
ATOM      5  C   UNL     1      32.938 -23.986 -15.502  0.00  0.00    +0.107 C 
ATOM      6  C   UNL     1      34.914 -23.102 -14.765  0.00  0.00    +0.257 C 
ATOM      7  C   UNL     1      33.154 -24.337 -14.079  0.00  0.00    +0.269 C 
ENDROOT
BRANCH   4   8
ATOM      8  C   UNL     1      34.198 -22.675 -17.240  0.00  0.00    +0.006 C 
ATOM      9  C   UNL     1      35.485 -22.308 -17.653  0.00  0.00    +0.000 C 
ATOM     10  C   UNL     1      33.119 -22.480 -18.110  0.00  0.00    +0.000 C 
ATOM     11  C   UNL     1      35.689 -21.755 -18.917  0.00  0.00    +0.000 C 
ATOM     12  C   UNL     1      33.323 -21.926 -19.373  0.00  0.00    +0.000 C 
ATOM     13  C   UNL     1      34.608 -21.564 -19.778  0.00  0.00    +0.000 C 
ENDBRANCH   4   8
BRANCH   5  14
ATOM     14  N   UNL     1      31.810 -24.395 -16.131  0.00  0.00    -0.309 N 
ATOM     15  H   UNL     1      31.919 -25.155 -16.748  0.00  0.00    +0.152 HD
BRANCH  14  16
ATOM     16  C   UNL     1      30.506 -23.881 -16.020  0.00  0.00    +0.049 C 
ATOM     17  C   UNL     1      29.418 -24.620 -16.491  0.00  0.00    +0.018 C 
ATOM     18  C   UNL     1      30.293 -22.628 -15.441  0.00  0.00    +0.018 C 
ATOM     19  C   UNL     1      28.125 -24.111 -16.382  0.00  0.00    +0.038 C 
ATOM     20  C   UNL     1      28.998 -22.118 -15.333  0.00  0.00    +0.038 C 
ATOM     21  C   UNL     1      27.915 -22.859 -15.804  0.00  0.00    +0.139 C 
BRANCH  21  22
ATOM     22  O   UNL     1      26.653 -22.361 -15.697  0.00  0.00    -0.471 OA
ATOM     23  C   UNL     1      26.162 -21.597 -16.798  0.00  0.00    +0.252 C 
ENDBRANCH  21  22
ENDBRANCH  14  16
ENDBRANCH   5  14
BRANCH   3  24
ATOM     24  C   UNL     1      34.932 -23.869 -12.395  0.00  0.00    +0.128 C 
BRANCH  24  25
ATOM     25  C   UNL     1      36.308 -24.430 -12.507  0.00  0.00    -0.002 C 
ATOM     26  C   UNL     1      36.518 -25.641 -13.167  0.00  0.00    -0.003 C 
ATOM     27  C   UNL     1      37.389 -23.745 -11.949  0.00  0.00    -0.003 C 
ATOM     28  C   UNL     1      37.805 -26.167 -13.272  0.00  0.00    -0.000 C 
ATOM     29  C   UNL     1      38.677 -24.271 -12.053  0.00  0.00    -0.000 C 
ATOM     30  C   UNL     1      38.886 -25.481 -12.715  0.00  0.00    -0.000 C 
ENDBRANCH  24  25
ENDBRANCH   3  24
TORSDOF 6
ENDMDL
MODEL 7
REMARK VINA RESULT:      -9.1      1.746      5.305
REMARK  Name = 5288679
REMARK  6 active torsions:
REMARK  status: ('A' for Active; 'I' for Inactive)
REMARK    1  A    between atoms: N_3  and  C_24
REMARK    2  A    between atoms: C_4  and  C_8
REMARK    3  A    between atoms: C_5  and  N_14
REMARK    4  A    between atoms: N_14  and  C_16
REMARK    5  A    between atoms: C_21  and  O_22
REMARK    6  A    between atoms: C_24  and  C_25
REMARK                            x       y       z     vdW  Elec       q    Type
REMARK                         _______ _______ _______ _____ _____    ______ ____
ROOT
ATOM      1  O   UNL     1      37.001 -21.554 -16.229  0.00  0.00    -0.269 OA
ATOM      2  O   UNL     1      34.112 -24.566 -14.307  0.00  0.00    -0.268 OA
ATOM      3  N   UNL     1      35.784 -23.049 -14.912  0.00  0.00    -0.217 N 
ATOM      4  C   UNL     1      34.960 -22.564 -16.986  0.00  0.00    +0.072 C 
ATOM      5  C   UNL     1      34.118 -23.442 -16.421  0.00  0.00    +0.107 C 
ATOM      6  C   UNL     1      36.055 -22.296 -16.020  0.00  0.00    +0.257 C 
ATOM      7  C   UNL     1      34.640 -23.780 -15.076  0.00  0.00    +0.269 C 
ENDROOT
BRANCH   4   8
ATOM      8  C   UNL     1      34.841 -21.940 -18.304  0.00  0.00    +0.006 C 
ATOM      9  C   UNL     1      33.580 -21.717 -18.869  0.00  0.00    +0.000 C 
ATOM     10  C   UNL     1      35.986 -21.561 -19.014  0.00  0.00    +0.000 C 
ATOM     11  C   UNL     1      33.465 -21.123 -20.126  0.00  0.00    +0.000 C 
ATOM     12  C   UNL     1      35.872 -20.968 -20.272  0.00  0.00    +0.000 C 
ATOM     13  C   UNL     1      34.612 -20.748 -20.828  0.00  0.00    +0.000 C 
ENDBRANCH   4   8
BRANCH   5  14
ATOM     14  N   UNL     1      32.960 -23.999 -16.850  0.00  0.00    -0.309 N 
ATOM     15  H   UNL     1      33.050 -24.668 -17.567  0.00  0.00    +0.152 HD
BRANCH  14  16
ATOM     16  C   UNL     1      31.648 -23.749 -16.410  0.00  0.00    +0.049 C 
ATOM     17  C   UNL     1      30.970 -22.606 -16.840  0.00  0.00    +0.018 C 
ATOM     18  C   UNL     1      31.018 -24.642 -15.541  0.00  0.00    +0.018 C 
ATOM     19  C   UNL     1      29.669 -22.357 -16.404  0.00  0.00    +0.038 C 
ATOM     20  C   UNL     1      29.716 -24.393 -15.104  0.00  0.00    +0.038 C 
ATOM     21  C   UNL     1      29.042 -23.250 -15.536  0.00  0.00    +0.139 C 
BRANCH  21  22
ATOM     22  O   UNL     1      27.773 -23.008 -15.110  0.00  0.00    -0.471 OA
ATOM     23  C   UNL     1      26.930 -22.250 -15.976  0.00  0.00    +0.252 C 
ENDBRANCH  21  22
ENDBRANCH  14  16
ENDBRANCH   5  14
BRANCH   3  24
ATOM     24  C   UNL     1      36.618 -23.088 -13.725  0.00  0.00    +0.128 C 
BRANCH  24  25
ATOM     25  C   UNL     1      37.695 -24.103 -13.904  0.00  0.00    -0.002 C 
ATOM     26  C   UNL     1      38.458 -24.113 -15.072  0.00  0.00    -0.003 C 
ATOM     27  C   UNL     1      37.939 -25.045 -12.904  0.00  0.00    -0.003 C 
ATOM     28  C   UNL     1      39.466 -25.063 -15.240  0.00  0.00    -0.000 C 
ATOM     29  C   UNL     1      38.946 -25.996 -13.072  0.00  0.00    -0.000 C 
ATOM     30  C   UNL     1      39.710 -26.005 -14.239  0.00  0.00    -0.000 C 
ENDBRANCH  24  25
ENDBRANCH   3  24
TORSDOF 6
ENDMDL
MODEL 8
REMARK VINA RESULT:      -8.8     10.055     13.710
REMARK  Name = 5288679
REMARK  6 active torsions:
REMARK  status: ('A' for Active; 'I' for Inactive)
REMARK    1  A    between atoms: N_3  and  C_24
REMARK    2  A    between atoms: C_4  and  C_8
REMARK    3  A    between atoms: C_5  and  N_14
REMARK    4  A    between atoms: N_14  and  C_16
REMARK    5  A    between atoms: C_21  and  O_22
REMARK    6  A    between atoms: C_24  and  C_25
REMARK                            x       y       z     vdW  Elec       q    Type
REMARK                         _______ _______ _______ _____ _____    ______ ____
ROOT
ATOM      1  O   UNL     1      31.940 -14.493 -22.923  0.00  0.00    -0.269 OA
ATOM      2  O   UNL     1      34.434 -11.945 -25.822  0.00  0.00    -0.268 OA
ATOM      3  N   UNL     1      33.210 -13.547 -24.639  0.00  0.00    -0.217 N 
ATOM      4  C   UNL     1      32.613 -12.190 -22.901  0.00  0.00    +0.072 C 
ATOM      5  C   UNL     1      33.341 -11.448 -23.751  0.00  0.00    +0.107 C 
ATOM      6  C   UNL     1      32.519 -13.562 -23.459  0.00  0.00    +0.257 C 
ATOM      7  C   UNL     1      33.748 -12.314 -24.882  0.00  0.00    +0.269 C 
ENDROOT
BRANCH   4   8
ATOM      8  C   UNL     1      31.988 -11.754 -21.652  0.00  0.00    +0.006 C 
ATOM      9  C   UNL     1      32.513 -12.161 -20.420  0.00  0.00    +0.000 C 
ATOM     10  C   UNL     1      30.859 -10.927 -21.676  0.00  0.00    +0.000 C 
ATOM     11  C   UNL     1      31.918 -11.746 -19.228  0.00  0.00    +0.000 C 
ATOM     12  C   UNL     1      30.263 -10.513 -20.485  0.00  0.00    +0.000 C 
ATOM     13  C   UNL     1      30.792 -10.921 -19.260  0.00  0.00    +0.000 C 
ENDBRANCH   4   8
BRANCH   5  14
ATOM     14  N   UNL     1      33.707 -10.145 -23.737  0.00  0.00    -0.309 N 
ATOM     15  H   UNL     1      34.625  -9.957 -24.039  0.00  0.00    +0.152 HD
BRANCH  14  16
ATOM     16  C   UNL     1      32.953  -9.023 -23.349  0.00  0.00    +0.049 C 
ATOM     17  C   UNL     1      33.358  -8.249 -22.259  0.00  0.00    +0.018 C 
ATOM     18  C   UNL     1      31.795  -8.680 -24.049  0.00  0.00    +0.018 C 
ATOM     19  C   UNL     1      32.610  -7.137 -21.873  0.00  0.00    +0.038 C 
ATOM     20  C   UNL     1      31.046  -7.567 -23.663  0.00  0.00    +0.038 C 
ATOM     21  C   UNL     1      31.454  -6.796 -22.574  0.00  0.00    +0.139 C 
BRANCH  21  22
ATOM     22  O   UNL     1      30.724  -5.712 -22.198  0.00  0.00    -0.471 OA
ATOM     23  C   UNL     1      31.067  -4.460 -22.791  0.00  0.00    +0.252 C 
ENDBRANCH  21  22
ENDBRANCH  14  16
ENDBRANCH   5  14
BRANCH   3  24
ATOM     24  C   UNL     1      33.374 -14.699 -25.505  0.00  0.00    +0.128 C 
BRANCH  24  25
ATOM     25  C   UNL     1      34.054 -15.794 -24.756  0.00  0.00    -0.002 C 
ATOM     26  C   UNL     1      34.716 -15.516 -23.561  0.00  0.00    -0.003 C 
ATOM     27  C   UNL     1      34.028 -17.099 -25.251  0.00  0.00    -0.003 C 
ATOM     28  C   UNL     1      35.353 -16.541 -22.859  0.00  0.00    -0.000 C 
ATOM     29  C   UNL     1      34.665 -18.123 -24.551  0.00  0.00    -0.000 C 
ATOM     30  C   UNL     1      35.326 -17.845 -23.355  0.00  0.00    -0.000 C 
ENDBRANCH  24  25
ENDBRANCH   3  24
TORSDOF 6
ENDMDL
MODEL 9
REMARK VINA RESULT:      -8.5      2.202      6.983
REMARK  Name = 5288679
REMARK  6 active torsions:
REMARK  status: ('A' for Active; 'I' for Inactive)
REMARK    1  A    between atoms: N_3  and  C_24
REMARK    2  A    between atoms: C_4  and  C_8
REMARK    3  A    between atoms: C_5  and  N_14
REMARK    4  A    between atoms: N_14  and  C_16
REMARK    5  A    between atoms: C_21  and  O_22
REMARK    6  A    between atoms: C_24  and  C_25
REMARK                            x       y       z     vdW  Elec       q    Type
REMARK                         _______ _______ _______ _____ _____    ______ ____
ROOT
ATOM      1  O   UNL     1      37.248 -21.652 -17.192  0.00  0.00    -0.269 OA
ATOM      2  O   UNL     1      33.445 -23.051 -19.357  0.00  0.00    -0.268 OA
ATOM      3  N   UNL     1      35.505 -22.211 -18.641  0.00  0.00    -0.217 N 
ATOM      4  C   UNL     1      35.302 -22.846 -16.457  0.00  0.00    +0.072 C 
ATOM      5  C   UNL     1      34.193 -23.255 -17.092  0.00  0.00    +0.107 C 
ATOM      6  C   UNL     1      36.169 -22.161 -17.447  0.00  0.00    +0.257 C 
ATOM      7  C   UNL     1      34.299 -22.843 -18.512  0.00  0.00    +0.269 C 
ENDROOT
BRANCH   4   8
ATOM      8  C   UNL     1      35.642 -23.044 -15.047  0.00  0.00    +0.006 C 
ATOM      9  C   UNL     1      34.664 -23.460 -14.136  0.00  0.00    +0.000 C 
ATOM     10  C   UNL     1      36.947 -22.818 -14.595  0.00  0.00    +0.000 C 
ATOM     11  C   UNL     1      34.987 -23.649 -12.792  0.00  0.00    +0.000 C 
ATOM     12  C   UNL     1      37.270 -23.006 -13.251  0.00  0.00    +0.000 C 
ATOM     13  C   UNL     1      36.290 -23.422 -12.349  0.00  0.00    +0.000 C 
ENDBRANCH   4   8
BRANCH   5  14
ATOM     14  N   UNL     1      33.103 -23.939 -16.673  0.00  0.00    -0.309 N 
ATOM     15  H   UNL     1      33.190 -24.920 -16.670  0.00  0.00    +0.152 HD
BRANCH  14  16
ATOM     16  C   UNL     1      31.862 -23.437 -16.242  0.00  0.00    +0.049 C 
ATOM     17  C   UNL     1      31.511 -23.499 -14.891  0.00  0.00    +0.018 C 
ATOM     18  C   UNL     1      30.975 -22.875 -17.162  0.00  0.00    +0.018 C 
ATOM     19  C   UNL     1      30.281 -23.001 -14.463  0.00  0.00    +0.038 C 
ATOM     20  C   UNL     1      29.743 -22.377 -16.734  0.00  0.00    +0.038 C 
ATOM     21  C   UNL     1      29.396 -22.441 -15.385  0.00  0.00    +0.139 C 
BRANCH  21  22
ATOM     22  O   UNL     1      28.196 -21.955 -14.968  0.00  0.00    -0.471 OA
ATOM     23  C   UNL     1      27.062 -22.235 -15.787  0.00  0.00    +0.252 C 
ENDBRANCH  21  22
ENDBRANCH  14  16
ENDBRANCH   5  14
BRANCH   3  24
ATOM     24  C   UNL     1      36.005 -21.643 -19.879  0.00  0.00    +0.128 C 
BRANCH  24  25
ATOM     25  C   UNL     1      35.151 -20.489 -20.279  0.00  0.00    -0.002 C 
ATOM     26  C   UNL     1      35.740 -19.308 -20.732  0.00  0.00    -0.003 C 
ATOM     27  C   UNL     1      33.761 -20.588 -20.201  0.00  0.00    -0.003 C 
ATOM     28  C   UNL     1      34.941 -18.228 -21.107  0.00  0.00    -0.000 C 
ATOM     29  C   UNL     1      32.962 -19.508 -20.575  0.00  0.00    -0.000 C 
ATOM     30  C   UNL     1      33.551 -18.328 -21.029  0.00  0.00    -0.000 C 
ENDBRANCH  24  25
ENDBRANCH   3  24
TORSDOF 6
ENDMDL
