MODEL 1
REMARK VINA RESULT:      -8.2      0.000      0.000
REMARK  Name = 4761
REMARK  5 active torsions:
REMARK  status: ('A' for Active; 'I' for Inactive)
REMARK    1  A    between atoms: C_1  and  C_3
REMARK    2  A    between atoms: C_1  and  C_8
REMARK    3  A    between atoms: C_1  and  C_14
REMARK    4  A    between atoms: C_14  and  C_15
REMARK    5  A    between atoms: C_15  and  N_16
REMARK                            x       y       z     vdW  Elec       q    Type
REMARK                         _______ _______ _______ _____ _____    ______ ____
ROOT
ATOM      1  C   UNL     1      34.910 -17.967 -21.389  0.00  0.00    +0.060 C 
ENDROOT
BRANCH   1   3
ATOM      2  N   UNL     1      34.617 -16.878 -23.532  0.00  0.00    -0.248 NA
ATOM      3  C   UNL     1      34.759 -18.051 -22.903  0.00  0.00    +0.063 C 
ATOM      4  C   UNL     1      34.781 -19.290 -23.488  0.00  0.00    +0.015 C 
ATOM      5  C   UNL     1      34.641 -19.331 -24.871  0.00  0.00    +0.003 C 
ATOM      6  C   UNL     1      34.484 -16.958 -24.874  0.00  0.00    +0.098 C 
ATOM      7  C   UNL     1      34.489 -18.148 -25.585  0.00  0.00    +0.021 C 
ENDBRANCH   1   3
BRANCH   1   8
ATOM      8  C   UNL     1      34.782 -19.344 -20.744  0.00  0.00    -0.017 C 
ATOM      9  C   UNL     1      33.524 -19.844 -20.491  0.00  0.00    -0.004 C 
ATOM     10  C   UNL     1      35.931 -20.041 -20.436  0.00  0.00    -0.004 C 
ATOM     11  C   UNL     1      33.407 -21.103 -19.902  0.00  0.00    -0.000 C 
ATOM     12  C   UNL     1      35.815 -21.300 -19.846  0.00  0.00    -0.000 C 
ATOM     13  C   UNL     1      34.554 -21.831 -19.579  0.00  0.00    -0.000 C 
ENDBRANCH   1   8
BRANCH   1  14
ATOM     14  C   UNL     1      33.999 -16.899 -20.730  0.00  0.00    -0.012 C 
BRANCH  14  15
ATOM     15  C   UNL     1      34.667 -15.522 -20.655  0.00  0.00    -0.077 C 
BRANCH  15  16
ATOM     16  N   UNL     1      33.764 -14.495 -21.165  0.00  0.00    +0.384 N 
ATOM     17  C   UNL     1      32.417 -15.038 -21.345  0.00  0.00    -0.101 C 
ATOM     18  C   UNL     1      34.265 -13.950 -22.428  0.00  0.00    -0.101 C 
ATOM     19  H   UNL     1      33.720 -13.740 -20.481  0.00  0.00    -0.080 HD
ENDBRANCH  15  16
ENDBRANCH  14  15
ENDBRANCH   1  14
TORSDOF 5
ENDMDL
MODEL 2
REMARK VINA RESULT:      -8.0      7.834     11.261
REMARK  Name = 4761
REMARK  5 active torsions:
REMARK  status: ('A' for Active; 'I' for Inactive)
REMARK    1  A    between atoms: C_1  and  C_3
REMARK    2  A    between atoms: C_1  and  C_8
REMARK    3  A    between atoms: C_1  and  C_14
REMARK    4  A    between atoms: C_14  and  C_15
REMARK    5  A    between atoms: C_15  and  N_16
REMARK                            x       y       z     vdW  Elec       q    Type
REMARK                         _______ _______ _______ _____ _____    ______ ____
ROOT
ATOM      1  C   UNL     1      32.969  -8.413 -22.451  0.00  0.00    +0.060 C 
ENDROOT
BRANCH   1   3
ATOM      2  N   UNL     1      32.522  -8.955 -20.133  0.00  0.00    -0.248 NA
ATOM      3  C   UNL     1      32.273  -9.278 -21.408  0.00  0.00    +0.063 C 
ATOM      4  C   UNL     1      31.466 -10.296 -21.846  0.00  0.00    +0.015 C 
ATOM      5  C   UNL     1      30.845 -11.066 -20.869  0.00  0.00    +0.003 C 
ATOM      6  C   UNL     1      31.902  -9.726 -19.213  0.00  0.00    +0.098 C 
ATOM      7  C   UNL     1      31.063 -10.783 -19.524  0.00  0.00    +0.021 C 
ENDBRANCH   1   3
BRANCH   1   8
ATOM      8  C   UNL     1      32.217  -7.105 -22.675  0.00  0.00    -0.017 C 
ATOM      9  C   UNL     1      31.553  -6.531 -21.612  0.00  0.00    -0.004 C 
ATOM     10  C   UNL     1      32.227  -6.541 -23.933  0.00  0.00    -0.004 C 
ATOM     11  C   UNL     1      30.866  -5.335 -21.817  0.00  0.00    -0.000 C 
ATOM     12  C   UNL     1      31.538  -5.346 -24.138  0.00  0.00    -0.000 C 
ATOM     13  C   UNL     1      30.858  -4.743 -23.081  0.00  0.00    -0.000 C 
ENDBRANCH   1   8
BRANCH   1  14
ATOM     14  C   UNL     1      33.291  -9.164 -23.770  0.00  0.00    -0.012 C 
BRANCH  14  15
ATOM     15  C   UNL     1      34.794  -9.219 -24.064  0.00  0.00    -0.077 C 
BRANCH  15  16
ATOM     16  N   UNL     1      35.145 -10.505 -24.657  0.00  0.00    +0.384 N 
ATOM     17  C   UNL     1      35.591 -10.328 -26.041  0.00  0.00    -0.101 C 
ATOM     18  C   UNL     1      34.008 -11.425 -24.604  0.00  0.00    -0.101 C 
ATOM     19  H   UNL     1      35.913 -10.906 -24.119  0.00  0.00    -0.080 HD
ENDBRANCH  15  16
ENDBRANCH  14  15
ENDBRANCH   1  14
TORSDOF 5
ENDMDL
MODEL 3
REMARK VINA RESULT:      -7.9      6.427      9.847
REMARK  Name = 4761
REMARK  5 active torsions:
REMARK  status: ('A' for Active; 'I' for Inactive)
REMARK    1  A    between atoms: C_1  and  C_3
REMARK    2  A    between atoms: C_1  and  C_8
REMARK    3  A    between atoms: C_1  and  C_14
REMARK    4  A    between atoms: C_14  and  C_15
REMARK    5  A    between atoms: C_15  and  N_16
REMARK                            x       y       z     vdW  Elec       q    Type
REMARK                         _______ _______ _______ _____ _____    ______ ____
ROOT
ATOM      1  C   UNL     1      34.186 -23.950 -15.600  0.00  0.00    +0.060 C 
ENDROOT
BRANCH   1   3
ATOM      2  N   UNL     1      35.874 -25.687 -15.548  0.00  0.00    -0.248 NA
ATOM      3  C   UNL     1      35.259 -24.726 -14.846  0.00  0.00    +0.063 C 
ATOM      4  C   UNL     1      35.506 -24.389 -13.541  0.00  0.00    +0.015 C 
ATOM      5  C   UNL     1      36.491 -25.116 -12.882  0.00  0.00    +0.003 C 
ATOM      6  C   UNL     1      36.825 -26.371 -14.874  0.00  0.00    +0.098 C 
ATOM      7  C   UNL     1      37.168 -26.128 -13.554  0.00  0.00    +0.021 C 
ENDBRANCH   1   3
BRANCH   1   8
ATOM      8  C   UNL     1      34.794 -23.118 -16.725  0.00  0.00    -0.017 C 
ATOM      9  C   UNL     1      36.052 -22.583 -16.550  0.00  0.00    -0.004 C 
ATOM     10  C   UNL     1      34.063 -22.928 -17.878  0.00  0.00    -0.004 C 
ATOM     11  C   UNL     1      36.607 -21.823 -17.579  0.00  0.00    -0.000 C 
ATOM     12  C   UNL     1      34.617 -22.167 -18.907  0.00  0.00    -0.000 C 
ATOM     13  C   UNL     1      35.889 -21.615 -18.757  0.00  0.00    -0.000 C 
ENDBRANCH   1   8
BRANCH   1  14
ATOM     14  C   UNL     1      33.245 -23.133 -14.677  0.00  0.00    -0.012 C 
BRANCH  14  15
ATOM     15  C   UNL     1      31.944 -23.878 -14.356  0.00  0.00    -0.077 C 
BRANCH  15  16
ATOM     16  N   UNL     1      31.200 -24.142 -15.583  0.00  0.00    +0.384 N 
ATOM     17  C   UNL     1      30.678 -22.896 -16.147  0.00  0.00    -0.101 C 
ATOM     18  C   UNL     1      30.107 -25.082 -15.330  0.00  0.00    -0.101 C 
ATOM     19  H   UNL     1      31.837 -24.561 -16.260  0.00  0.00    -0.080 HD
ENDBRANCH  15  16
ENDBRANCH  14  15
ENDBRANCH   1  14
TORSDOF 5
ENDMDL
MODEL 4
REMARK VINA RESULT:      -7.9      5.578      8.669
REMARK  Name = 4761
REMARK  5 active torsions:
REMARK  status: ('A' for Active; 'I' for Inactive)
REMARK    1  A    between atoms: C_1  and  C_3
REMARK    2  A    between atoms: C_1  and  C_8
REMARK    3  A    between atoms: C_1  and  C_14
REMARK    4  A    between atoms: C_14  and  C_15
REMARK    5  A    between atoms: C_15  and  N_16
REMARK                            x       y       z     vdW  Elec       q    Type
REMARK                         _______ _______ _______ _____ _____    ______ ____
ROOT
ATOM      1  C   UNL     1      34.087 -23.703 -16.385  0.00  0.00    +0.060 C 
ENDROOT
BRANCH   1   3
ATOM      2  N   UNL     1      35.726 -22.418 -17.622  0.00  0.00    -0.248 NA
ATOM      3  C   UNL     1      34.446 -22.807 -17.564  0.00  0.00    +0.063 C 
ATOM      4  C   UNL     1      33.455 -22.477 -18.451  0.00  0.00    +0.015 C 
ATOM      5  C   UNL     1      33.816 -21.658 -19.516  0.00  0.00    +0.003 C 
ATOM      6  C   UNL     1      36.038 -21.624 -18.670  0.00  0.00    +0.098 C 
ATOM      7  C   UNL     1      35.130 -21.219 -19.635  0.00  0.00    +0.021 C 
ENDBRANCH   1   3
BRANCH   1   8
ATOM      8  C   UNL     1      32.700 -23.372 -15.842  0.00  0.00    -0.017 C 
ATOM      9  C   UNL     1      31.644 -23.291 -16.724  0.00  0.00    -0.004 C 
ATOM     10  C   UNL     1      32.550 -23.164 -14.488  0.00  0.00    -0.004 C 
ATOM     11  C   UNL     1      30.377 -22.989 -16.227  0.00  0.00    -0.000 C 
ATOM     12  C   UNL     1      31.283 -22.861 -13.991  0.00  0.00    -0.000 C 
ATOM     13  C   UNL     1      30.196 -22.774 -14.860  0.00  0.00    -0.000 C 
ENDBRANCH   1   8
BRANCH   1  14
ATOM     14  C   UNL     1      35.178 -23.749 -15.283  0.00  0.00    -0.012 C 
BRANCH  14  15
ATOM     15  C   UNL     1      35.661 -25.174 -14.994  0.00  0.00    -0.077 C 
BRANCH  15  16
ATOM     16  N   UNL     1      37.082 -25.297 -15.303  0.00  0.00    +0.384 N 
ATOM     17  C   UNL     1      37.667 -26.434 -14.590  0.00  0.00    -0.101 C 
ATOM     18  C   UNL     1      37.792 -24.064 -14.962  0.00  0.00    -0.101 C 
ATOM     19  H   UNL     1      37.178 -25.460 -16.305  0.00  0.00    -0.080 HD
ENDBRANCH  15  16
ENDBRANCH  14  15
ENDBRANCH   1  14
TORSDOF 5
ENDMDL
MODEL 5
REMARK VINA RESULT:      -7.8      1.177      3.722
REMARK  Name = 4761
REMARK  5 active torsions:
REMARK  status: ('A' for Active; 'I' for Inactive)
REMARK    1  A    between atoms: C_1  and  C_3
REMARK    2  A    between atoms: C_1  and  C_8
REMARK    3  A    between atoms: C_1  and  C_14
REMARK    4  A    between atoms: C_14  and  C_15
REMARK    5  A    between atoms: C_15  and  N_16
REMARK                            x       y       z     vdW  Elec       q    Type
REMARK                         _______ _______ _______ _____ _____    ______ ____
ROOT
ATOM      1  C   UNL     1      34.207 -18.610 -22.062  0.00  0.00    +0.060 C 
ENDROOT
BRANCH   1   3
ATOM      2  N   UNL     1      32.622 -16.916 -21.366  0.00  0.00    -0.248 NA
ATOM      3  C   UNL     1      33.913 -17.270 -21.401  0.00  0.00    +0.063 C 
ATOM      4  C   UNL     1      34.967 -16.548 -20.905  0.00  0.00    +0.015 C 
ATOM      5  C   UNL     1      34.664 -15.329 -20.307  0.00  0.00    +0.003 C 
ATOM      6  C   UNL     1      32.367 -15.726 -20.778  0.00  0.00    +0.098 C 
ATOM      7  C   UNL     1      33.342 -14.902 -20.239  0.00  0.00    +0.021 C 
ENDBRANCH   1   3
BRANCH   1   8
ATOM      8  C   UNL     1      34.400 -19.709 -21.021  0.00  0.00    -0.017 C 
ATOM      9  C   UNL     1      35.682 -20.086 -20.685  0.00  0.00    -0.004 C 
ATOM     10  C   UNL     1      33.286 -20.288 -20.453  0.00  0.00    -0.004 C 
ATOM     11  C   UNL     1      35.859 -21.090 -19.733  0.00  0.00    -0.000 C 
ATOM     12  C   UNL     1      33.462 -21.293 -19.503  0.00  0.00    -0.000 C 
ATOM     13  C   UNL     1      34.748 -21.694 -19.142  0.00  0.00    -0.000 C 
ENDBRANCH   1   8
BRANCH   1  14
ATOM     14  C   UNL     1      35.352 -18.551 -23.107  0.00  0.00    -0.012 C 
BRANCH  14  15
ATOM     15  C   UNL     1      35.426 -17.198 -23.822  0.00  0.00    -0.077 C 
BRANCH  15  16
ATOM     16  N   UNL     1      34.801 -17.289 -25.138  0.00  0.00    +0.384 N 
ATOM     17  C   UNL     1      33.842 -16.199 -25.328  0.00  0.00    -0.101 C 
ATOM     18  C   UNL     1      34.140 -18.583 -25.306  0.00  0.00    -0.101 C 
ATOM     19  H   UNL     1      35.532 -17.204 -25.844  0.00  0.00    -0.080 HD
ENDBRANCH  15  16
ENDBRANCH  14  15
ENDBRANCH   1  14
TORSDOF 5
ENDMDL
MODEL 6
REMARK VINA RESULT:      -7.7      6.071      9.163
REMARK  Name = 4761
REMARK  5 active torsions:
REMARK  status: ('A' for Active; 'I' for Inactive)
REMARK    1  A    between atoms: C_1  and  C_3
REMARK    2  A    between atoms: C_1  and  C_8
REMARK    3  A    between atoms: C_1  and  C_14
REMARK    4  A    between atoms: C_14  and  C_15
REMARK    5  A    between atoms: C_15  and  N_16
REMARK                            x       y       z     vdW  Elec       q    Type
REMARK                         _______ _______ _______ _____ _____    ______ ____
ROOT
ATOM      1  C   UNL     1      34.561 -23.754 -15.922  0.00  0.00    +0.060 C 
ENDROOT
BRANCH   1   3
ATOM      2  N   UNL     1      34.406 -22.897 -18.182  0.00  0.00    -0.248 NA
ATOM      3  C   UNL     1      35.123 -22.899 -17.051  0.00  0.00    +0.063 C 
ATOM      4  C   UNL     1      36.289 -22.215 -16.826  0.00  0.00    +0.015 C 
ATOM      5  C   UNL     1      36.774 -21.443 -17.877  0.00  0.00    +0.003 C 
ATOM      6  C   UNL     1      34.909 -22.136 -19.180  0.00  0.00    +0.098 C 
ATOM      7  C   UNL     1      36.077 -21.398 -19.080  0.00  0.00    +0.021 C 
ENDBRANCH   1   3
BRANCH   1   8
ATOM      8  C   UNL     1      33.102 -23.410 -15.642  0.00  0.00    -0.017 C 
ATOM      9  C   UNL     1      32.693 -23.268 -14.334  0.00  0.00    -0.004 C 
ATOM     10  C   UNL     1      32.241 -23.254 -16.707  0.00  0.00    -0.004 C 
ATOM     11  C   UNL     1      31.359 -22.953 -14.078  0.00  0.00    -0.000 C 
ATOM     12  C   UNL     1      30.906 -22.941 -16.452  0.00  0.00    -0.000 C 
ATOM     13  C   UNL     1      30.465 -22.790 -15.137  0.00  0.00    -0.000 C 
ENDBRANCH   1   8
BRANCH   1  14
ATOM     14  C   UNL     1      35.443 -23.758 -14.646  0.00  0.00    -0.012 C 
BRANCH  14  15
ATOM     15  C   UNL     1      36.202 -25.076 -14.460  0.00  0.00    -0.077 C 
BRANCH  15  16
ATOM     16  N   UNL     1      36.071 -25.543 -13.083  0.00  0.00    +0.384 N 
ATOM     17  C   UNL     1      35.602 -24.460 -12.216  0.00  0.00    -0.101 C 
ATOM     18  C   UNL     1      37.346 -26.069 -12.594  0.00  0.00    -0.101 C 
ATOM     19  H   UNL     1      35.382 -26.294 -13.065  0.00  0.00    -0.080 HD
ENDBRANCH  15  16
ENDBRANCH  14  15
ENDBRANCH   1  14
TORSDOF 5
ENDMDL
MODEL 7
REMARK VINA RESULT:      -7.7      3.404      5.531
REMARK  Name = 4761
REMARK  5 active torsions:
REMARK  status: ('A' for Active; 'I' for Inactive)
REMARK    1  A    between atoms: C_1  and  C_3
REMARK    2  A    between atoms: C_1  and  C_8
REMARK    3  A    between atoms: C_1  and  C_14
REMARK    4  A    between atoms: C_14  and  C_15
REMARK    5  A    between atoms: C_15  and  N_16
REMARK                            x       y       z     vdW  Elec       q    Type
REMARK                         _______ _______ _______ _____ _____    ______ ____
ROOT
ATOM      1  C   UNL     1      33.191 -12.891 -22.991  0.00  0.00    +0.060 C 
ENDROOT
BRANCH   1   3
ATOM      2  N   UNL     1      32.745 -14.141 -25.017  0.00  0.00    -0.248 NA
ATOM      3  C   UNL     1      33.261 -13.015 -24.508  0.00  0.00    +0.063 C 
ATOM      4  C   UNL     1      33.833 -11.991 -25.217  0.00  0.00    +0.015 C 
ATOM      5  C   UNL     1      33.880 -12.136 -26.599  0.00  0.00    +0.003 C 
ATOM      6  C   UNL     1      32.810 -14.246 -26.363  0.00  0.00    +0.098 C 
ATOM      7  C   UNL     1      33.362 -13.282 -27.191  0.00  0.00    +0.021 C 
ENDBRANCH   1   3
BRANCH   1   8
ATOM      8  C   UNL     1      33.440 -14.235 -22.315  0.00  0.00    -0.017 C 
ATOM      9  C   UNL     1      32.500 -14.716 -21.429  0.00  0.00    -0.004 C 
ATOM     10  C   UNL     1      34.598 -14.922 -22.611  0.00  0.00    -0.004 C 
ATOM     11  C   UNL     1      32.729 -15.945 -20.811  0.00  0.00    -0.000 C 
ATOM     12  C   UNL     1      34.827 -16.150 -21.992  0.00  0.00    -0.000 C 
ATOM     13  C   UNL     1      33.892 -16.662 -21.092  0.00  0.00    -0.000 C 
ENDBRANCH   1   8
BRANCH   1  14
ATOM     14  C   UNL     1      31.909 -12.180 -22.484  0.00  0.00    -0.012 C 
BRANCH  14  15
ATOM     15  C   UNL     1      32.109 -10.673 -22.292  0.00  0.00    -0.077 C 
BRANCH  15  16
ATOM     16  N   UNL     1      31.458 -10.231 -21.063  0.00  0.00    +0.384 N 
ATOM     17  C   UNL     1      32.154  -9.071 -20.501  0.00  0.00    -0.101 C 
ATOM     18  C   UNL     1      31.412 -11.318 -20.084  0.00  0.00    -0.101 C 
ATOM     19  H   UNL     1      30.502  -9.957 -21.288  0.00  0.00    -0.080 HD
ENDBRANCH  15  16
ENDBRANCH  14  15
ENDBRANCH   1  14
TORSDOF 5
ENDMDL
MODEL 8
REMARK VINA RESULT:      -7.7      6.227      9.032
REMARK  Name = 4761
REMARK  5 active torsions:
REMARK  status: ('A' for Active; 'I' for Inactive)
REMARK    1  A    between atoms: C_1  and  C_3
REMARK    2  A    between atoms: C_1  and  C_8
REMARK    3  A    between atoms: C_1  and  C_14
REMARK    4  A    between atoms: C_14  and  C_15
REMARK    5  A    between atoms: C_15  and  N_16
REMARK                            x       y       z     vdW  Elec       q    Type
REMARK                         _______ _______ _______ _____ _____    ______ ____
ROOT
ATOM      1  C   UNL     1      35.071 -23.325 -15.269  0.00  0.00    +0.060 C 
ENDROOT
BRANCH   1   3
ATOM      2  N   UNL     1      34.446 -22.903 -17.571  0.00  0.00    -0.248 NA
ATOM      3  C   UNL     1      35.382 -22.718 -16.632  0.00  0.00    +0.063 C 
ATOM      4  C   UNL     1      36.566 -22.046 -16.785  0.00  0.00    +0.015 C 
ATOM      5  C   UNL     1      36.819 -21.504 -18.041  0.00  0.00    +0.003 C 
ATOM      6  C   UNL     1      34.727 -22.363 -18.777  0.00  0.00    +0.098 C 
ATOM      7  C   UNL     1      35.888 -21.661 -19.062  0.00  0.00    +0.021 C 
ENDBRANCH   1   3
BRANCH   1   8
ATOM      8  C   UNL     1      36.138 -24.335 -14.858  0.00  0.00    -0.017 C 
ATOM      9  C   UNL     1      37.128 -23.937 -13.986  0.00  0.00    -0.004 C 
ATOM     10  C   UNL     1      36.076 -25.612 -15.373  0.00  0.00    -0.004 C 
ATOM     11  C   UNL     1      38.103 -24.861 -13.611  0.00  0.00    -0.000 C 
ATOM     12  C   UNL     1      37.051 -26.536 -14.999  0.00  0.00    -0.000 C 
ATOM     13  C   UNL     1      38.064 -26.160 -14.118  0.00  0.00    -0.000 C 
ENDBRANCH   1   8
BRANCH   1  14
ATOM     14  C   UNL     1      33.628 -23.880 -15.149  0.00  0.00    -0.012 C 
BRANCH  14  15
ATOM     15  C   UNL     1      33.142 -23.947 -13.697  0.00  0.00    -0.077 C 
BRANCH  15  16
ATOM     16  N   UNL     1      31.697 -23.755 -13.640  0.00  0.00    +0.384 N 
ATOM     17  C   UNL     1      31.000 -25.031 -13.816  0.00  0.00    -0.101 C 
ATOM     18  C   UNL     1      31.264 -22.795 -14.656  0.00  0.00    -0.101 C 
ATOM     19  H   UNL     1      31.461 -23.382 -12.720  0.00  0.00    -0.080 HD
ENDBRANCH  15  16
ENDBRANCH  14  15
ENDBRANCH   1  14
TORSDOF 5
ENDMDL
MODEL 9
REMARK VINA RESULT:      -7.7      3.717      5.749
REMARK  Name = 4761
REMARK  5 active torsions:
REMARK  status: ('A' for Active; 'I' for Inactive)
REMARK    1  A    between atoms: C_1  and  C_3
REMARK    2  A    between atoms: C_1  and  C_8
REMARK    3  A    between atoms: C_1  and  C_14
REMARK    4  A    between atoms: C_14  and  C_15
REMARK    5  A    between atoms: C_15  and  N_16
REMARK                            x       y       z     vdW  Elec       q    Type
REMARK                         _______ _______ _______ _____ _____    ______ ____
ROOT
ATOM      1  C   UNL     1      33.243 -12.767 -23.107  0.00  0.00    +0.060 C 
ENDROOT
BRANCH   1   3
ATOM      2  N   UNL     1      33.791 -11.980 -25.331  0.00  0.00    -0.248 NA
ATOM      3  C   UNL     1      33.300 -12.997 -24.612  0.00  0.00    +0.063 C 
ATOM      4  C   UNL     1      32.854 -14.198 -25.101  0.00  0.00    +0.015 C 
ATOM      5  C   UNL     1      32.920 -14.376 -26.478  0.00  0.00    +0.003 C 
ATOM      6  C   UNL     1      33.839 -12.190 -26.665  0.00  0.00    +0.098 C 
ATOM      7  C   UNL     1      33.420 -13.357 -27.283  0.00  0.00    +0.021 C 
ENDBRANCH   1   3
BRANCH   1   8
ATOM      8  C   UNL     1      33.425 -14.074 -22.341  0.00  0.00    -0.017 C 
ATOM      9  C   UNL     1      34.579 -14.802 -22.537  0.00  0.00    -0.004 C 
ATOM     10  C   UNL     1      32.430 -14.483 -21.480  0.00  0.00    -0.004 C 
ATOM     11  C   UNL     1      34.745 -15.997 -21.837  0.00  0.00    -0.000 C 
ATOM     12  C   UNL     1      32.595 -15.678 -20.781  0.00  0.00    -0.000 C 
ATOM     13  C   UNL     1      33.753 -16.434 -20.958  0.00  0.00    -0.000 C 
ENDBRANCH   1   8
BRANCH   1  14
ATOM     14  C   UNL     1      32.001 -11.959 -22.647  0.00  0.00    -0.012 C 
BRANCH  14  15
ATOM     15  C   UNL     1      32.353 -10.527 -22.231  0.00  0.00    -0.077 C 
BRANCH  15  16
ATOM     16  N   UNL     1      32.438  -9.667 -23.407  0.00  0.00    +0.384 N 
ATOM     17  C   UNL     1      33.751  -9.023 -23.479  0.00  0.00    -0.101 C 
ATOM     18  C   UNL     1      31.378  -8.659 -23.385  0.00  0.00    -0.101 C 
ATOM     19  H   UNL     1      32.317 -10.248 -24.236  0.00  0.00    -0.080 HD
ENDBRANCH  15  16
ENDBRANCH  14  15
ENDBRANCH   1  14
TORSDOF 5
ENDMDL
