MODEL 1
REMARK VINA RESULT:      -6.6      0.000      0.000
REMARK  Name = 14925
REMARK  8 active torsions:
REMARK  status: ('A' for Active; 'I' for Inactive)
REMARK    1  A    between atoms: C_1  and  C_3
REMARK    2  A    between atoms: C_1  and  C_6
REMARK    3  A    between atoms: C_1  and  C_11
REMARK    4  A    between atoms: C_3  and  O_4
REMARK    5  A    between atoms: C_6  and  C_8
REMARK    6  A    between atoms: C_8  and  O_9
REMARK    7  A    between atoms: C_11  and  C_13
REMARK    8  A    between atoms: C_13  and  O_14
REMARK                            x       y       z     vdW  Elec       q    Type
REMARK                         _______ _______ _______ _____ _____    ______ ____
ROOT
ATOM      1  C   UNL     1      38.055 -24.947 -13.440  0.00  0.00    +0.121 C 
ENDROOT
BRANCH   1   3
ATOM      2  O   UNL     1      37.415 -27.191 -14.079  0.00  0.00    -0.250 OA
ATOM      3  C   UNL     1      37.418 -26.313 -13.223  0.00  0.00    +0.314 C 
BRANCH   3   4
ATOM      4  O   UNL     1      36.852 -26.479 -12.004  0.00  0.00    -0.480 OA
ATOM      5  H   UNL     1      36.104 -27.034 -11.906  0.00  0.00    +0.295 HD
ENDBRANCH   3   4
ENDBRANCH   1   3
BRANCH   1   6
ATOM      6  C   UNL     1      38.588 -24.809 -14.872  0.00  0.00    +0.121 C 
BRANCH   6   8
ATOM      7  O   UNL     1      40.881 -24.838 -14.109  0.00  0.00    -0.250 OA
ATOM      8  C   UNL     1      40.051 -25.177 -14.943  0.00  0.00    +0.314 C 
BRANCH   8   9
ATOM      9  O   UNL     1      40.347 -25.948 -16.018  0.00  0.00    -0.480 OA
ATOM     10  H   UNL     1      41.140 -26.447 -16.033  0.00  0.00    +0.295 HD
ENDBRANCH   8   9
ENDBRANCH   6   8
ENDBRANCH   1   6
BRANCH   1  11
ATOM     11  C   UNL     1      37.067 -23.823 -13.101  0.00  0.00    +0.121 C 
BRANCH  11  13
ATOM     12  O   UNL     1      37.023 -23.746 -10.685  0.00  0.00    -0.250 OA
ATOM     13  C   UNL     1      37.352 -23.226 -11.743  0.00  0.00    +0.314 C 
BRANCH  13  14
ATOM     14  O   UNL     1      38.028 -22.053 -11.821  0.00  0.00    -0.480 OA
ATOM     15  H   UNL     1      37.595 -21.247 -11.612  0.00  0.00    +0.295 HD
ENDBRANCH  13  14
ENDBRANCH  11  13
ENDBRANCH   1  11
TORSDOF 8
ENDMDL
MODEL 2
REMARK VINA RESULT:      -6.6      1.613      3.442
REMARK  Name = 14925
REMARK  8 active torsions:
REMARK  status: ('A' for Active; 'I' for Inactive)
REMARK    1  A    between atoms: C_1  and  C_3
REMARK    2  A    between atoms: C_1  and  C_6
REMARK    3  A    between atoms: C_1  and  C_11
REMARK    4  A    between atoms: C_3  and  O_4
REMARK    5  A    between atoms: C_6  and  C_8
REMARK    6  A    between atoms: C_8  and  O_9
REMARK    7  A    between atoms: C_11  and  C_13
REMARK    8  A    between atoms: C_13  and  O_14
REMARK                            x       y       z     vdW  Elec       q    Type
REMARK                         _______ _______ _______ _____ _____    ______ ____
ROOT
ATOM      1  C   UNL     1      37.922 -25.457 -13.541  0.00  0.00    +0.121 C 
ENDROOT
BRANCH   1   3
ATOM      2  O   UNL     1      38.003 -24.427 -11.353  0.00  0.00    -0.250 OA
ATOM      3  C   UNL     1      37.434 -25.193 -12.123  0.00  0.00    +0.314 C 
BRANCH   3   4
ATOM      4  O   UNL     1      36.317 -25.879 -11.780  0.00  0.00    -0.480 OA
ATOM      5  H   UNL     1      36.354 -26.528 -11.106  0.00  0.00    +0.295 HD
ENDBRANCH   3   4
ENDBRANCH   1   3
BRANCH   1   6
ATOM      6  C   UNL     1      39.454 -25.500 -13.597  0.00  0.00    +0.121 C 
BRANCH   6   8
ATOM      7  O   UNL     1      40.725 -26.067 -15.573  0.00  0.00    -0.250 OA
ATOM      8  C   UNL     1      39.951 -25.304 -15.009  0.00  0.00    +0.314 C 
BRANCH   8   9
ATOM      9  O   UNL     1      39.425 -24.203 -15.602  0.00  0.00    -0.480 OA
ATOM     10  H   UNL     1      39.236 -23.441 -15.090  0.00  0.00    +0.295 HD
ENDBRANCH   8   9
ENDBRANCH   6   8
ENDBRANCH   1   6
BRANCH   1  11
ATOM     11  C   UNL     1      37.305 -26.745 -14.101  0.00  0.00    +0.121 C 
BRANCH  11  13
ATOM     12  O   UNL     1      35.746 -25.559 -15.517  0.00  0.00    -0.250 OA
ATOM     13  C   UNL     1      36.535 -26.484 -15.374  0.00  0.00    +0.314 C 
BRANCH  13  14
ATOM     14  O   UNL     1      36.825 -27.378 -16.352  0.00  0.00    -0.480 OA
ATOM     15  H   UNL     1      37.585 -27.257 -16.887  0.00  0.00    +0.295 HD
ENDBRANCH  13  14
ENDBRANCH  11  13
ENDBRANCH   1  11
TORSDOF 8
ENDMDL
MODEL 3
REMARK VINA RESULT:      -6.6      1.217      4.011
REMARK  Name = 14925
REMARK  8 active torsions:
REMARK  status: ('A' for Active; 'I' for Inactive)
REMARK    1  A    between atoms: C_1  and  C_3
REMARK    2  A    between atoms: C_1  and  C_6
REMARK    3  A    between atoms: C_1  and  C_11
REMARK    4  A    between atoms: C_3  and  O_4
REMARK    5  A    between atoms: C_6  and  C_8
REMARK    6  A    between atoms: C_8  and  O_9
REMARK    7  A    between atoms: C_11  and  C_13
REMARK    8  A    between atoms: C_13  and  O_14
REMARK                            x       y       z     vdW  Elec       q    Type
REMARK                         _______ _______ _______ _____ _____    ______ ____
ROOT
ATOM      1  C   UNL     1      38.280 -25.007 -14.336  0.00  0.00    +0.121 C 
ENDROOT
BRANCH   1   3
ATOM      2  O   UNL     1      37.255 -27.056 -13.556  0.00  0.00    -0.250 OA
ATOM      3  C   UNL     1      37.574 -26.346 -14.504  0.00  0.00    +0.314 C 
BRANCH   3   4
ATOM      4  O   UNL     1      37.329 -26.691 -15.791  0.00  0.00    -0.480 OA
ATOM      5  H   UNL     1      36.682 -26.229 -16.285  0.00  0.00    +0.295 HD
ENDBRANCH   3   4
ENDBRANCH   1   3
BRANCH   1   6
ATOM      6  C   UNL     1      37.435 -24.041 -13.497  0.00  0.00    +0.121 C 
BRANCH   6   8
ATOM      7  O   UNL     1      38.652 -23.003 -11.684  0.00  0.00    -0.250 OA
ATOM      8  C   UNL     1      37.971 -23.937 -12.088  0.00  0.00    +0.314 C 
BRANCH   8   9
ATOM      9  O   UNL     1      37.594 -24.979 -11.306  0.00  0.00    -0.480 OA
ATOM     10  H   UNL     1      36.917 -24.865 -10.668  0.00  0.00    +0.295 HD
ENDBRANCH   8   9
ENDBRANCH   6   8
ENDBRANCH   1   6
BRANCH   1  11
ATOM     11  C   UNL     1      39.677 -25.198 -13.733  0.00  0.00    +0.121 C 
BRANCH  11  13
ATOM     12  O   UNL     1      41.318 -26.916 -14.180  0.00  0.00    -0.250 OA
ATOM     13  C   UNL     1      40.546 -26.068 -14.610  0.00  0.00    +0.314 C 
BRANCH  13  14
ATOM     14  O   UNL     1      40.368 -25.821 -15.931  0.00  0.00    -0.480 OA
ATOM     15  H   UNL     1      40.426 -24.944 -16.256  0.00  0.00    +0.295 HD
ENDBRANCH  13  14
ENDBRANCH  11  13
ENDBRANCH   1  11
TORSDOF 8
ENDMDL
MODEL 4
REMARK VINA RESULT:      -6.5      1.636      4.077
REMARK  Name = 14925
REMARK  8 active torsions:
REMARK  status: ('A' for Active; 'I' for Inactive)
REMARK    1  A    between atoms: C_1  and  C_3
REMARK    2  A    between atoms: C_1  and  C_6
REMARK    3  A    between atoms: C_1  and  C_11
REMARK    4  A    between atoms: C_3  and  O_4
REMARK    5  A    between atoms: C_6  and  C_8
REMARK    6  A    between atoms: C_8  and  O_9
REMARK    7  A    between atoms: C_11  and  C_13
REMARK    8  A    between atoms: C_13  and  O_14
REMARK                            x       y       z     vdW  Elec       q    Type
REMARK                         _______ _______ _______ _____ _____    ______ ____
ROOT
ATOM      1  C   UNL     1      38.281 -25.750 -13.677  0.00  0.00    +0.121 C 
ENDROOT
BRANCH   1   3
ATOM      2  O   UNL     1      38.120 -24.600 -11.554  0.00  0.00    -0.250 OA
ATOM      3  C   UNL     1      37.672 -25.453 -12.313  0.00  0.00    +0.314 C 
BRANCH   3   4
ATOM      4  O   UNL     1      36.593 -26.211 -12.005  0.00  0.00    -0.480 OA
ATOM      5  H   UNL     1      36.506 -26.577 -11.147  0.00  0.00    +0.295 HD
ENDBRANCH   3   4
ENDBRANCH   1   3
BRANCH   1   6
ATOM      6  C   UNL     1      37.396 -25.206 -14.805  0.00  0.00    +0.121 C 
BRANCH   6   8
ATOM      7  O   UNL     1      36.865 -27.216 -16.039  0.00  0.00    -0.250 OA
ATOM      8  C   UNL     1      36.484 -26.282 -15.345  0.00  0.00    +0.314 C 
BRANCH   8   9
ATOM      9  O   UNL     1      35.195 -26.120 -14.956  0.00  0.00    -0.480 OA
ATOM     10  H   UNL     1      34.889 -26.522 -14.167  0.00  0.00    +0.295 HD
ENDBRANCH   8   9
ENDBRANCH   6   8
ENDBRANCH   1   6
BRANCH   1  11
ATOM     11  C   UNL     1      39.709 -25.198 -13.769  0.00  0.00    +0.121 C 
BRANCH  11  13
ATOM     12  O   UNL     1      41.366 -26.932 -14.075  0.00  0.00    -0.250 OA
ATOM     13  C   UNL     1      40.606 -26.111 -14.572  0.00  0.00    +0.314 C 
BRANCH  13  14
ATOM     14  O   UNL     1      40.468 -25.935 -15.909  0.00  0.00    -0.480 OA
ATOM     15  H   UNL     1      40.990 -26.436 -16.505  0.00  0.00    +0.295 HD
ENDBRANCH  13  14
ENDBRANCH  11  13
ENDBRANCH   1  11
TORSDOF 8
ENDMDL
MODEL 5
REMARK VINA RESULT:      -6.3      1.558      3.399
REMARK  Name = 14925
REMARK  8 active torsions:
REMARK  status: ('A' for Active; 'I' for Inactive)
REMARK    1  A    between atoms: C_1  and  C_3
REMARK    2  A    between atoms: C_1  and  C_6
REMARK    3  A    between atoms: C_1  and  C_11
REMARK    4  A    between atoms: C_3  and  O_4
REMARK    5  A    between atoms: C_6  and  C_8
REMARK    6  A    between atoms: C_8  and  O_9
REMARK    7  A    between atoms: C_11  and  C_13
REMARK    8  A    between atoms: C_13  and  O_14
REMARK                            x       y       z     vdW  Elec       q    Type
REMARK                         _______ _______ _______ _____ _____    ______ ____
ROOT
ATOM      1  C   UNL     1      37.960 -24.655 -13.326  0.00  0.00    +0.121 C 
ENDROOT
BRANCH   1   3
ATOM      2  O   UNL     1      37.631 -24.496 -10.933  0.00  0.00    -0.250 OA
ATOM      3  C   UNL     1      37.986 -23.953 -11.974  0.00  0.00    +0.314 C 
BRANCH   3   4
ATOM      4  O   UNL     1      38.431 -22.675 -12.016  0.00  0.00    -0.480 OA
ATOM      5  H   UNL     1      37.830 -21.965 -11.907  0.00  0.00    +0.295 HD
ENDBRANCH   3   4
ENDBRANCH   1   3
BRANCH   1   6
ATOM      6  C   UNL     1      39.230 -25.488 -13.537  0.00  0.00    +0.121 C 
BRANCH   6   8
ATOM      7  O   UNL     1      40.641 -25.982 -15.437  0.00  0.00    -0.250 OA
ATOM      8  C   UNL     1      39.811 -25.251 -14.910  0.00  0.00    +0.314 C 
BRANCH   8   9
ATOM      9  O   UNL     1      39.295 -24.153 -15.516  0.00  0.00    -0.480 OA
ATOM     10  H   UNL     1      38.470 -23.808 -15.235  0.00  0.00    +0.295 HD
ENDBRANCH   8   9
ENDBRANCH   6   8
ENDBRANCH   1   6
BRANCH   1  11
ATOM     11  C   UNL     1      36.697 -25.513 -13.472  0.00  0.00    +0.121 C 
BRANCH  11  13
ATOM     12  O   UNL     1      36.208 -24.690 -15.692  0.00  0.00    -0.250 OA
ATOM     13  C   UNL     1      36.274 -25.636 -14.916  0.00  0.00    +0.314 C 
BRANCH  13  14
ATOM     14  O   UNL     1      35.989 -26.913 -15.270  0.00  0.00    -0.480 OA
ATOM     15  H   UNL     1      35.418 -27.431 -14.737  0.00  0.00    +0.295 HD
ENDBRANCH  13  14
ENDBRANCH  11  13
ENDBRANCH   1  11
TORSDOF 8
ENDMDL
MODEL 6
REMARK VINA RESULT:      -6.3      1.588      3.122
REMARK  Name = 14925
REMARK  8 active torsions:
REMARK  status: ('A' for Active; 'I' for Inactive)
REMARK    1  A    between atoms: C_1  and  C_3
REMARK    2  A    between atoms: C_1  and  C_6
REMARK    3  A    between atoms: C_1  and  C_11
REMARK    4  A    between atoms: C_3  and  O_4
REMARK    5  A    between atoms: C_6  and  C_8
REMARK    6  A    between atoms: C_8  and  O_9
REMARK    7  A    between atoms: C_11  and  C_13
REMARK    8  A    between atoms: C_13  and  O_14
REMARK                            x       y       z     vdW  Elec       q    Type
REMARK                         _______ _______ _______ _____ _____    ______ ____
ROOT
ATOM      1  C   UNL     1      38.439 -25.313 -13.909  0.00  0.00    +0.121 C 
ENDROOT
BRANCH   1   3
ATOM      2  O   UNL     1      40.762 -24.660 -14.095  0.00  0.00    -0.250 OA
ATOM      3  C   UNL     1      39.914 -25.539 -14.214  0.00  0.00    +0.314 C 
BRANCH   3   4
ATOM      4  O   UNL     1      40.214 -26.792 -14.630  0.00  0.00    -0.480 OA
ATOM      5  H   UNL     1      41.016 -26.956 -15.085  0.00  0.00    +0.295 HD
ENDBRANCH   3   4
ENDBRANCH   1   3
BRANCH   1   6
ATOM      6  C   UNL     1      37.621 -26.581 -14.183  0.00  0.00    +0.121 C 
BRANCH   6   8
ATOM      7  O   UNL     1      35.872 -25.437 -15.398  0.00  0.00    -0.250 OA
ATOM      8  C   UNL     1      36.663 -26.370 -15.331  0.00  0.00    +0.314 C 
BRANCH   8   9
ATOM      9  O   UNL     1      36.789 -27.311 -16.299  0.00  0.00    -0.480 OA
ATOM     10  H   UNL     1      37.639 -27.551 -16.612  0.00  0.00    +0.295 HD
ENDBRANCH   8   9
ENDBRANCH   6   8
ENDBRANCH   1   6
BRANCH   1  11
ATOM     11  C   UNL     1      38.248 -24.823 -12.468  0.00  0.00    +0.121 C 
BRANCH  11  13
ATOM     12  O   UNL     1      38.084 -22.496 -11.837  0.00  0.00    -0.250 OA
ATOM     13  C   UNL     1      37.607 -23.456 -12.427  0.00  0.00    +0.314 C 
BRANCH  13  14
ATOM     14  O   UNL     1      36.450 -23.401 -13.131  0.00  0.00    -0.480 OA
ATOM     15  H   UNL     1      36.216 -22.617 -13.589  0.00  0.00    +0.295 HD
ENDBRANCH  13  14
ENDBRANCH  11  13
ENDBRANCH   1  11
TORSDOF 8
ENDMDL
MODEL 7
REMARK VINA RESULT:      -6.1      1.916      4.636
REMARK  Name = 14925
REMARK  8 active torsions:
REMARK  status: ('A' for Active; 'I' for Inactive)
REMARK    1  A    between atoms: C_1  and  C_3
REMARK    2  A    between atoms: C_1  and  C_6
REMARK    3  A    between atoms: C_1  and  C_11
REMARK    4  A    between atoms: C_3  and  O_4
REMARK    5  A    between atoms: C_6  and  C_8
REMARK    6  A    between atoms: C_8  and  O_9
REMARK    7  A    between atoms: C_11  and  C_13
REMARK    8  A    between atoms: C_13  and  O_14
REMARK                            x       y       z     vdW  Elec       q    Type
REMARK                         _______ _______ _______ _____ _____    ______ ____
ROOT
ATOM      1  C   UNL     1      37.210 -24.327 -14.098  0.00  0.00    +0.121 C 
ENDROOT
BRANCH   1   3
ATOM      2  O   UNL     1      36.870 -22.489 -15.634  0.00  0.00    -0.250 OA
ATOM      3  C   UNL     1      37.599 -23.389 -15.233  0.00  0.00    +0.314 C 
BRANCH   3   4
ATOM      4  O   UNL     1      38.819 -23.634 -15.767  0.00  0.00    -0.480 OA
ATOM      5  H   UNL     1      38.892 -23.949 -16.646  0.00  0.00    +0.295 HD
ENDBRANCH   3   4
ENDBRANCH   1   3
BRANCH   1   6
ATOM      6  C   UNL     1      36.508 -23.562 -12.969  0.00  0.00    +0.121 C 
BRANCH   6   8
ATOM      7  O   UNL     1      38.511 -23.037 -11.722  0.00  0.00    -0.250 OA
ATOM      8  C   UNL     1      37.377 -23.499 -11.735  0.00  0.00    +0.314 C 
BRANCH   8   9
ATOM      9  O   UNL     1      36.758 -23.986 -10.631  0.00  0.00    -0.480 OA
ATOM     10  H   UNL     1      37.235 -24.085  -9.831  0.00  0.00    +0.295 HD
ENDBRANCH   8   9
ENDBRANCH   6   8
ENDBRANCH   1   6
BRANCH   1  11
ATOM     11  C   UNL     1      36.343 -25.482 -14.615  0.00  0.00    +0.121 C 
BRANCH  11  13
ATOM     12  O   UNL     1      38.164 -27.066 -14.486  0.00  0.00    -0.250 OA
ATOM     13  C   UNL     1      37.188 -26.640 -15.089  0.00  0.00    +0.314 C 
BRANCH  13  14
ATOM     14  O   UNL     1      36.738 -27.173 -16.253  0.00  0.00    -0.480 OA
ATOM     15  H   UNL     1      36.334 -26.623 -16.895  0.00  0.00    +0.295 HD
ENDBRANCH  13  14
ENDBRANCH  11  13
ENDBRANCH   1  11
TORSDOF 8
ENDMDL
MODEL 8
REMARK VINA RESULT:      -6.0      1.404      1.716
REMARK  Name = 14925
REMARK  8 active torsions:
REMARK  status: ('A' for Active; 'I' for Inactive)
REMARK    1  A    between atoms: C_1  and  C_3
REMARK    2  A    between atoms: C_1  and  C_6
REMARK    3  A    between atoms: C_1  and  C_11
REMARK    4  A    between atoms: C_3  and  O_4
REMARK    5  A    between atoms: C_6  and  C_8
REMARK    6  A    between atoms: C_8  and  O_9
REMARK    7  A    between atoms: C_11  and  C_13
REMARK    8  A    between atoms: C_13  and  O_14
REMARK                            x       y       z     vdW  Elec       q    Type
REMARK                         _______ _______ _______ _____ _____    ______ ____
ROOT
ATOM      1  C   UNL     1      37.426 -25.081 -14.096  0.00  0.00    +0.121 C 
ENDROOT
BRANCH   1   3
ATOM      2  O   UNL     1      36.585 -26.684 -15.701  0.00  0.00    -0.250 OA
ATOM      3  C   UNL     1      36.342 -25.792 -14.896  0.00  0.00    +0.314 C 
BRANCH   3   4
ATOM      4  O   UNL     1      35.085 -25.355 -14.646  0.00  0.00    -0.480 OA
ATOM      5  H   UNL     1      34.950 -24.578 -14.141  0.00  0.00    +0.295 HD
ENDBRANCH   3   4
ENDBRANCH   1   3
BRANCH   1   6
ATOM      6  C   UNL     1      38.572 -24.624 -15.008  0.00  0.00    +0.121 C 
BRANCH   6   8
ATOM      7  O   UNL     1      40.933 -24.945 -14.600  0.00  0.00    -0.250 OA
ATOM      8  C   UNL     1      39.821 -25.434 -14.754  0.00  0.00    +0.314 C 
BRANCH   8   9
ATOM      9  O   UNL     1      39.577 -26.767 -14.686  0.00  0.00    -0.480 OA
ATOM     10  H   UNL     1      39.255 -27.144 -13.891  0.00  0.00    +0.295 HD
ENDBRANCH   8   9
ENDBRANCH   6   8
ENDBRANCH   1   6
BRANCH   1  11
ATOM     11  C   UNL     1      36.838 -23.906 -13.305  0.00  0.00    +0.121 C 
BRANCH  11  13
ATOM     12  O   UNL     1      38.169 -22.483 -11.874  0.00  0.00    -0.250 OA
ATOM     13  C   UNL     1      37.673 -23.582 -12.089  0.00  0.00    +0.314 C 
BRANCH  13  14
ATOM     14  O   UNL     1      37.805 -24.639 -11.249  0.00  0.00    -0.480 OA
ATOM     15  H   UNL     1      38.277 -25.400 -11.524  0.00  0.00    +0.295 HD
ENDBRANCH  13  14
ENDBRANCH  11  13
ENDBRANCH   1  11
TORSDOF 8
ENDMDL
MODEL 9
REMARK VINA RESULT:      -5.9      1.739      2.482
REMARK  Name = 14925
REMARK  8 active torsions:
REMARK  status: ('A' for Active; 'I' for Inactive)
REMARK    1  A    between atoms: C_1  and  C_3
REMARK    2  A    between atoms: C_1  and  C_6
REMARK    3  A    between atoms: C_1  and  C_11
REMARK    4  A    between atoms: C_3  and  O_4
REMARK    5  A    between atoms: C_6  and  C_8
REMARK    6  A    between atoms: C_8  and  O_9
REMARK    7  A    between atoms: C_11  and  C_13
REMARK    8  A    between atoms: C_13  and  O_14
REMARK                            x       y       z     vdW  Elec       q    Type
REMARK                         _______ _______ _______ _____ _____    ______ ____
ROOT
ATOM      1  C   UNL     1      38.094 -25.808 -14.079  0.00  0.00    +0.121 C 
ENDROOT
BRANCH   1   3
ATOM      2  O   UNL     1      36.361 -24.788 -15.425  0.00  0.00    -0.250 OA
ATOM      3  C   UNL     1      37.354 -24.642 -14.720  0.00  0.00    +0.314 C 
BRANCH   3   4
ATOM      4  O   UNL     1      37.886 -23.425 -14.451  0.00  0.00    -0.480 OA
ATOM      5  H   UNL     1      38.567 -23.342 -13.814  0.00  0.00    +0.295 HD
ENDBRANCH   3   4
ENDBRANCH   1   3
BRANCH   1   6
ATOM      6  C   UNL     1      39.532 -25.414 -13.718  0.00  0.00    +0.121 C 
BRANCH   6   8
ATOM      7  O   UNL     1      40.567 -25.921 -15.843  0.00  0.00    -0.250 OA
ATOM      8  C   UNL     1      40.525 -26.093 -14.631  0.00  0.00    +0.314 C 
BRANCH   8   9
ATOM      9  O   UNL     1      41.388 -26.898 -13.963  0.00  0.00    -0.480 OA
ATOM     10  H   UNL     1      41.236 -27.822 -13.929  0.00  0.00    +0.295 HD
ENDBRANCH   8   9
ENDBRANCH   6   8
ENDBRANCH   1   6
BRANCH   1  11
ATOM     11  C   UNL     1      37.333 -26.331 -12.855  0.00  0.00    +0.121 C 
BRANCH  11  13
ATOM     12  O   UNL     1      37.336 -24.455 -11.330  0.00  0.00    -0.250 OA
ATOM     13  C   UNL     1      36.707 -25.204 -12.067  0.00  0.00    +0.314 C 
BRANCH  13  14
ATOM     14  O   UNL     1      35.372 -25.099 -12.276  0.00  0.00    -0.480 OA
ATOM     15  H   UNL     1      35.037 -25.042 -13.150  0.00  0.00    +0.295 HD
ENDBRANCH  13  14
ENDBRANCH  11  13
ENDBRANCH   1  11
TORSDOF 8
ENDMDL
