MODEL 1
REMARK VINA RESULT:     -11.3      0.000      0.000
REMARK  Name = 66571548
REMARK  8 active torsions:
REMARK  status: ('A' for Active; 'I' for Inactive)
REMARK    1  A    between atoms: C_2  and  C_10
REMARK    2  A    between atoms: C_2  and  C_22
REMARK    3  A    between atoms: N_3  and  C_15
REMARK    4  A    between atoms: C_15  and  C_18
REMARK    5  A    between atoms: C_18  and  O_19
REMARK    6  A    between atoms: C_25  and  N_28
REMARK    7  A    between atoms: C_29  and  C_31
REMARK    8  A    between atoms: C_31  and  C_34
REMARK                            x       y       z     vdW  Elec       q    Type
REMARK                         _______ _______ _______ _____ _____    ______ ____
ROOT
ATOM      1  O   UNL     1      33.837 -23.980 -19.634  0.00  0.00    -0.286 OA
ATOM      2  C   UNL     1      34.075 -23.119 -18.759  0.00  0.00    +0.199 C 
ENDROOT
BRANCH   2  10
ATOM      3  N   UNL     1      32.169 -23.435 -15.710  0.00  0.00    -0.261 N 
ATOM      4  N   UNL     1      33.713 -23.754 -13.885  0.00  0.00    -0.322 NA
ATOM      5  N   UNL     1      36.040 -23.768 -14.601  0.00  0.00    -0.170 NA
ATOM      6  N   UNL     1      35.454 -24.042 -12.351  0.00  0.00    -0.293 N 
ATOM      7  C   UNL     1      33.428 -23.565 -15.185  0.00  0.00    +0.201 C 
ATOM      8  C   UNL     1      32.255 -23.259 -17.067  0.00  0.00    +0.071 C 
ATOM      9  C   UNL     1      34.339 -23.469 -16.230  0.00  0.00    +0.069 C 
ATOM     10  C   UNL     1      33.589 -23.275 -17.418  0.00  0.00    +0.059 C 
ATOM     11  C   UNL     1      35.688 -23.577 -15.894  0.00  0.00    +0.116 C 
ATOM     12  C   UNL     1      35.043 -23.843 -13.690  0.00  0.00    +0.143 C 
ATOM     13  H   UNL     1      34.781 -24.106 -11.635  0.00  0.00    +0.155 HD
ATOM     14  H   UNL     1      36.411 -24.116 -12.136  0.00  0.00    +0.155 HD
BRANCH   3  15
ATOM     15  C   UNL     1      30.852 -23.476 -14.911  0.00  0.00    +0.091 C 
ATOM     16  C   UNL     1      30.845 -22.539 -13.679  0.00  0.00    +0.023 C 
ATOM     17  C   UNL     1      29.692 -23.023 -15.828  0.00  0.00    +0.023 C 
BRANCH  15  18
ATOM     18  C   UNL     1      30.565 -24.919 -14.423  0.00  0.00    +0.155 C 
BRANCH  18  19
ATOM     19  O   UNL     1      30.991 -25.088 -13.075  0.00  0.00    -0.380 OA
ATOM     20  H   UNL     1      30.894 -26.019 -12.820  0.00  0.00    +0.211 HD
ENDBRANCH  18  19
ENDBRANCH  15  18
ENDBRANCH   3  15
ENDBRANCH   2  10
BRANCH   2  22
ATOM     21  N   UNL     1      36.909 -20.624 -19.003  0.00  0.00    -0.241 NA
ATOM     22  C   UNL     1      34.887 -21.934 -19.205  0.00  0.00    +0.059 C 
ATOM     23  C   UNL     1      34.415 -21.068 -20.186  0.00  0.00    +0.021 C 
ATOM     24  C   UNL     1      36.129 -21.670 -18.649  0.00  0.00    +0.102 C 
ATOM     25  C   UNL     1      35.189 -19.980 -20.575  0.00  0.00    +0.070 C 
ATOM     26  C   UNL     1      36.418 -19.804 -19.959  0.00  0.00    +0.113 C 
BRANCH  25  28
ATOM     27  O   UNL     1      36.732 -18.201 -22.438  0.00  0.00    -0.274 OA
ATOM     28  N   UNL     1      34.742 -19.096 -21.554  0.00  0.00    -0.282 N 
ATOM     29  C   UNL     1      35.507 -18.280 -22.407  0.00  0.00    +0.232 C 
ATOM     30  H   UNL     1      33.767 -19.034 -21.663  0.00  0.00    +0.155 HD
BRANCH  29  31
ATOM     31  C   UNL     1      34.617 -17.464 -23.331  0.00  0.00    +0.131 C 
BRANCH  31  34
ATOM     32 CL   UNL     1      32.139 -12.820 -20.560  0.00  0.00    -0.081 Cl
ATOM     33  N   UNL     1      33.769 -16.373 -21.329  0.00  0.00    -0.247 NA
ATOM     34  C   UNL     1      33.989 -16.271 -22.659  0.00  0.00    +0.068 C 
ATOM     35  C   UNL     1      33.672 -15.154 -23.415  0.00  0.00    +0.016 C 
ATOM     36  C   UNL     1      33.093 -14.071 -22.764  0.00  0.00    +0.014 C 
ATOM     37  C   UNL     1      33.205 -15.300 -20.730  0.00  0.00    +0.110 C 
ATOM     38  C   UNL     1      32.851 -14.137 -21.396  0.00  0.00    +0.077 C 
ENDBRANCH  31  34
ENDBRANCH  29  31
ENDBRANCH  25  28
ENDBRANCH   2  22
TORSDOF 8
ENDMDL
MODEL 2
REMARK VINA RESULT:     -11.3      1.604      3.116
REMARK  Name = 66571548
REMARK  8 active torsions:
REMARK  status: ('A' for Active; 'I' for Inactive)
REMARK    1  A    between atoms: C_2  and  C_10
REMARK    2  A    between atoms: C_2  and  C_22
REMARK    3  A    between atoms: N_3  and  C_15
REMARK    4  A    between atoms: C_15  and  C_18
REMARK    5  A    between atoms: C_18  and  O_19
REMARK    6  A    between atoms: C_25  and  N_28
REMARK    7  A    between atoms: C_29  and  C_31
REMARK    8  A    between atoms: C_31  and  C_34
REMARK                            x       y       z     vdW  Elec       q    Type
REMARK                         _______ _______ _______ _____ _____    ______ ____
ROOT
ATOM      1  O   UNL     1      32.680 -22.288 -19.504  0.00  0.00    -0.286 OA
ATOM      2  C   UNL     1      33.732 -22.147 -18.842  0.00  0.00    +0.199 C 
ENDROOT
BRANCH   2  10
ATOM      3  N   UNL     1      34.876 -23.654 -15.769  0.00  0.00    -0.261 N 
ATOM      4  N   UNL     1      32.944 -24.314 -14.486  0.00  0.00    -0.322 NA
ATOM      5  N   UNL     1      30.842 -23.793 -15.599  0.00  0.00    -0.170 NA
ATOM      6  N   UNL     1      30.886 -24.829 -13.501  0.00  0.00    -0.293 N 
ATOM      7  C   UNL     1      33.526 -23.771 -15.569  0.00  0.00    +0.201 C 
ATOM      8  C   UNL     1      35.110 -23.051 -16.977  0.00  0.00    +0.071 C 
ATOM      9  C   UNL     1      32.882 -23.232 -16.676  0.00  0.00    +0.069 C 
ATOM     10  C   UNL     1      33.891 -22.778 -17.563  0.00  0.00    +0.059 C 
ATOM     11  C   UNL     1      31.488 -23.259 -16.662  0.00  0.00    +0.116 C 
ATOM     12  C   UNL     1      31.600 -24.280 -14.591  0.00  0.00    +0.143 C 
ATOM     13  H   UNL     1      31.375 -25.202 -12.732  0.00  0.00    +0.155 HD
ATOM     14  H   UNL     1      29.903 -24.838 -13.511  0.00  0.00    +0.155 HD
BRANCH   3  15
ATOM     15  C   UNL     1      35.973 -24.124 -14.794  0.00  0.00    +0.091 C 
ATOM     16  C   UNL     1      36.220 -25.652 -14.830  0.00  0.00    +0.023 C 
ATOM     17  C   UNL     1      37.309 -23.443 -15.174  0.00  0.00    +0.023 C 
BRANCH  15  18
ATOM     18  C   UNL     1      35.609 -23.727 -13.341  0.00  0.00    +0.155 C 
BRANCH  18  19
ATOM     19  O   UNL     1      35.125 -24.853 -12.618  0.00  0.00    -0.380 OA
ATOM     20  H   UNL     1      34.367 -25.237 -13.087  0.00  0.00    +0.211 HD
ENDBRANCH  18  19
ENDBRANCH  15  18
ENDBRANCH   3  15
ENDBRANCH   2  10
BRANCH   2  22
ATOM     21  N   UNL     1      37.137 -20.737 -19.701  0.00  0.00    -0.241 NA
ATOM     22  C   UNL     1      34.793 -21.286 -19.470  0.00  0.00    +0.059 C 
ATOM     23  C   UNL     1      34.460 -20.273 -20.363  0.00  0.00    +0.021 C 
ATOM     24  C   UNL     1      36.134 -21.475 -19.173  0.00  0.00    +0.102 C 
ATOM     25  C   UNL     1      35.465 -19.492 -20.926  0.00  0.00    +0.070 C 
ATOM     26  C   UNL     1      36.775 -19.762 -20.565  0.00  0.00    +0.113 C 
BRANCH  25  28
ATOM     27  O   UNL     1      35.233 -16.530 -20.492  0.00  0.00    -0.274 OA
ATOM     28  N   UNL     1      35.162 -18.470 -21.823  0.00  0.00    -0.282 N 
ATOM     29  C   UNL     1      35.065 -17.090 -21.572  0.00  0.00    +0.232 C 
ATOM     30  H   UNL     1      34.994 -18.751 -22.751  0.00  0.00    +0.155 HD
BRANCH  29  31
ATOM     31  C   UNL     1      34.712 -16.325 -22.837  0.00  0.00    +0.131 C 
BRANCH  31  34
ATOM     32 CL   UNL     1      31.365 -11.488 -21.948  0.00  0.00    -0.081 Cl
ATOM     33  N   UNL     1      34.018 -14.068 -23.423  0.00  0.00    -0.247 NA
ATOM     34  C   UNL     1      33.850 -15.116 -22.586  0.00  0.00    +0.068 C 
ATOM     35  C   UNL     1      32.948 -15.131 -21.534  0.00  0.00    +0.016 C 
ATOM     36  C   UNL     1      32.167 -13.999 -21.330  0.00  0.00    +0.014 C 
ATOM     37  C   UNL     1      33.242 -12.985 -23.194  0.00  0.00    +0.110 C 
ATOM     38  C   UNL     1      32.311 -12.901 -22.170  0.00  0.00    +0.077 C 
ENDBRANCH  31  34
ENDBRANCH  29  31
ENDBRANCH  25  28
ENDBRANCH   2  22
TORSDOF 8
ENDMDL
MODEL 3
REMARK VINA RESULT:     -11.0      1.663      2.111
REMARK  Name = 66571548
REMARK  8 active torsions:
REMARK  status: ('A' for Active; 'I' for Inactive)
REMARK    1  A    between atoms: C_2  and  C_10
REMARK    2  A    between atoms: C_2  and  C_22
REMARK    3  A    between atoms: N_3  and  C_15
REMARK    4  A    between atoms: C_15  and  C_18
REMARK    5  A    between atoms: C_18  and  O_19
REMARK    6  A    between atoms: C_25  and  N_28
REMARK    7  A    between atoms: C_29  and  C_31
REMARK    8  A    between atoms: C_31  and  C_34
REMARK                            x       y       z     vdW  Elec       q    Type
REMARK                         _______ _______ _______ _____ _____    ______ ____
ROOT
ATOM      1  O   UNL     1      34.173 -23.665 -20.033  0.00  0.00    -0.286 OA
ATOM      2  C   UNL     1      34.336 -22.751 -19.196  0.00  0.00    +0.199 C 
ENDROOT
BRANCH   2  10
ATOM      3  N   UNL     1      32.913 -23.368 -15.938  0.00  0.00    -0.261 N 
ATOM      4  N   UNL     1      34.691 -23.289 -14.310  0.00  0.00    -0.322 NA
ATOM      5  N   UNL     1      36.866 -22.827 -15.302  0.00  0.00    -0.170 NA
ATOM      6  N   UNL     1      36.620 -23.147 -12.997  0.00  0.00    -0.293 N 
ATOM      7  C   UNL     1      34.222 -23.209 -15.568  0.00  0.00    +0.201 C 
ATOM      8  C   UNL     1      32.800 -23.222 -17.296  0.00  0.00    +0.071 C 
ATOM      9  C   UNL     1      34.963 -22.953 -16.716  0.00  0.00    +0.069 C 
ATOM     10  C   UNL     1      34.056 -22.963 -17.805  0.00  0.00    +0.059 C 
ATOM     11  C   UNL     1      36.333 -22.759 -16.544  0.00  0.00    +0.116 C 
ATOM     12  C   UNL     1      36.023 -23.085 -14.277  0.00  0.00    +0.143 C 
ATOM     13  H   UNL     1      36.066 -23.331 -12.204  0.00  0.00    +0.155 HD
ATOM     14  H   UNL     1      37.589 -23.008 -12.898  0.00  0.00    +0.155 HD
BRANCH   3  15
ATOM     15  C   UNL     1      31.739 -23.664 -14.985  0.00  0.00    +0.091 C 
ATOM     16  C   UNL     1      30.387 -23.866 -15.711  0.00  0.00    +0.023 C 
ATOM     17  C   UNL     1      32.034 -24.972 -14.214  0.00  0.00    +0.023 C 
BRANCH  15  18
ATOM     18  C   UNL     1      31.572 -22.512 -13.962  0.00  0.00    +0.155 C 
BRANCH  18  19
ATOM     19  O   UNL     1      32.222 -22.829 -12.736  0.00  0.00    -0.380 OA
ATOM     20  H   UNL     1      33.182 -22.747 -12.848  0.00  0.00    +0.211 HD
ENDBRANCH  18  19
ENDBRANCH  15  18
ENDBRANCH   3  15
ENDBRANCH   2  10
BRANCH   2  22
ATOM     21  N   UNL     1      36.707 -20.055 -20.394  0.00  0.00    -0.241 NA
ATOM     22  C   UNL     1      34.836 -21.441 -19.742  0.00  0.00    +0.059 C 
ATOM     23  C   UNL     1      33.952 -20.425 -20.091  0.00  0.00    +0.021 C 
ATOM     24  C   UNL     1      36.191 -21.208 -19.910  0.00  0.00    +0.102 C 
ATOM     25  C   UNL     1      34.445 -19.224 -20.591  0.00  0.00    +0.070 C 
ATOM     26  C   UNL     1      35.818 -19.091 -20.723  0.00  0.00    +0.113 C 
BRANCH  25  28
ATOM     27  O   UNL     1      34.859 -16.251 -20.549  0.00  0.00    -0.274 OA
ATOM     28  N   UNL     1      33.584 -18.189 -20.948  0.00  0.00    -0.282 N 
ATOM     29  C   UNL     1      33.825 -16.804 -20.912  0.00  0.00    +0.232 C 
ATOM     30  H   UNL     1      32.694 -18.462 -21.266  0.00  0.00    +0.155 HD
BRANCH  29  31
ATOM     31  C   UNL     1      32.611 -16.023 -21.390  0.00  0.00    +0.131 C 
BRANCH  31  34
ATOM     32 CL   UNL     1      34.017 -11.712 -25.241  0.00  0.00    -0.081 Cl
ATOM     33  N   UNL     1      33.596 -15.260 -23.480  0.00  0.00    -0.247 NA
ATOM     34  C   UNL     1      32.953 -14.908 -22.345  0.00  0.00    +0.068 C 
ATOM     35  C   UNL     1      32.602 -13.607 -22.023  0.00  0.00    +0.016 C 
ATOM     36  C   UNL     1      32.932 -12.602 -22.926  0.00  0.00    +0.014 C 
ATOM     37  C   UNL     1      33.901 -14.257 -24.334  0.00  0.00    +0.110 C 
ATOM     38  C   UNL     1      33.594 -12.925 -24.105  0.00  0.00    +0.077 C 
ENDBRANCH  31  34
ENDBRANCH  29  31
ENDBRANCH  25  28
ENDBRANCH   2  22
TORSDOF 8
ENDMDL
MODEL 4
REMARK VINA RESULT:     -10.8      2.013      2.520
REMARK  Name = 66571548
REMARK  8 active torsions:
REMARK  status: ('A' for Active; 'I' for Inactive)
REMARK    1  A    between atoms: C_2  and  C_10
REMARK    2  A    between atoms: C_2  and  C_22
REMARK    3  A    between atoms: N_3  and  C_15
REMARK    4  A    between atoms: C_15  and  C_18
REMARK    5  A    between atoms: C_18  and  O_19
REMARK    6  A    between atoms: C_25  and  N_28
REMARK    7  A    between atoms: C_29  and  C_31
REMARK    8  A    between atoms: C_31  and  C_34
REMARK                            x       y       z     vdW  Elec       q    Type
REMARK                         _______ _______ _______ _____ _____    ______ ____
ROOT
ATOM      1  O   UNL     1      36.801 -22.344 -17.978  0.00  0.00    -0.286 OA
ATOM      2  C   UNL     1      35.562 -22.300 -17.816  0.00  0.00    +0.199 C 
ENDROOT
BRANCH   2  10
ATOM      3  N   UNL     1      33.369 -23.580 -15.251  0.00  0.00    -0.261 N 
ATOM      4  N   UNL     1      34.726 -24.336 -13.407  0.00  0.00    -0.322 NA
ATOM      5  N   UNL     1      37.110 -24.026 -13.792  0.00  0.00    -0.170 NA
ATOM      6  N   UNL     1      36.308 -24.969 -11.805  0.00  0.00    -0.293 N 
ATOM      7  C   UNL     1      34.569 -23.794 -14.627  0.00  0.00    +0.201 C 
ATOM      8  C   UNL     1      33.588 -23.015 -16.481  0.00  0.00    +0.071 C 
ATOM      9  C   UNL     1      35.578 -23.354 -15.476  0.00  0.00    +0.069 C 
ATOM     10  C   UNL     1      34.948 -22.862 -16.647  0.00  0.00    +0.059 C 
ATOM     11  C   UNL     1      36.886 -23.487 -15.013  0.00  0.00    +0.116 C 
ATOM     12  C   UNL     1      36.030 -24.412 -13.075  0.00  0.00    +0.143 C 
ATOM     13  H   UNL     1      35.569 -25.271 -11.229  0.00  0.00    +0.155 HD
ATOM     14  H   UNL     1      37.238 -25.055 -11.498  0.00  0.00    +0.155 HD
BRANCH   3  15
ATOM     15  C   UNL     1      31.981 -23.917 -14.673  0.00  0.00    +0.091 C 
ATOM     16  C   UNL     1      30.901 -24.159 -15.754  0.00  0.00    +0.023 C 
ATOM     17  C   UNL     1      32.084 -25.216 -13.841  0.00  0.00    +0.023 C 
BRANCH  15  18
ATOM     18  C   UNL     1      31.492 -22.773 -13.748  0.00  0.00    +0.155 C 
BRANCH  18  19
ATOM     19  O   UNL     1      32.186 -22.799 -12.505  0.00  0.00    -0.380 OA
ATOM     20  H   UNL     1      32.201 -21.907 -12.125  0.00  0.00    +0.211 HD
ENDBRANCH  18  19
ENDBRANCH  15  18
ENDBRANCH   3  15
ENDBRANCH   2  10
BRANCH   2  22
ATOM     21  N   UNL     1      32.663 -21.308 -20.036  0.00  0.00    -0.241 NA
ATOM     22  C   UNL     1      34.779 -21.632 -18.913  0.00  0.00    +0.059 C 
ATOM     23  C   UNL     1      35.392 -20.752 -19.799  0.00  0.00    +0.021 C 
ATOM     24  C   UNL     1      33.424 -21.874 -19.073  0.00  0.00    +0.102 C 
ATOM     25  C   UNL     1      34.642 -20.151 -20.804  0.00  0.00    +0.070 C 
ATOM     26  C   UNL     1      33.293 -20.459 -20.879  0.00  0.00    +0.113 C 
BRANCH  25  28
ATOM     27  O   UNL     1      35.144 -17.199 -20.587  0.00  0.00    -0.274 OA
ATOM     28  N   UNL     1      35.229 -19.267 -21.707  0.00  0.00    -0.282 N 
ATOM     29  C   UNL     1      35.444 -17.886 -21.559  0.00  0.00    +0.232 C 
ATOM     30  H   UNL     1      35.531 -19.660 -22.556  0.00  0.00    +0.155 HD
BRANCH  29  31
ATOM     31  C   UNL     1      36.118 -17.300 -22.790  0.00  0.00    +0.131 C 
BRANCH  31  34
ATOM     32 CL   UNL     1      32.413 -14.141 -26.209  0.00  0.00    -0.081 Cl
ATOM     33  N   UNL     1      34.855 -15.277 -23.273  0.00  0.00    -0.247 NA
ATOM     34  C   UNL     1      35.178 -16.526 -23.677  0.00  0.00    +0.068 C 
ATOM     35  C   UNL     1      34.699 -17.115 -24.836  0.00  0.00    +0.016 C 
ATOM     36  C   UNL     1      33.834 -16.374 -25.633  0.00  0.00    +0.014 C 
ATOM     37  C   UNL     1      34.012 -14.587 -24.073  0.00  0.00    +0.110 C 
ATOM     38  C   UNL     1      33.478 -15.085 -25.251  0.00  0.00    +0.077 C 
ENDBRANCH  31  34
ENDBRANCH  29  31
ENDBRANCH  25  28
ENDBRANCH   2  22
TORSDOF 8
ENDMDL
MODEL 5
REMARK VINA RESULT:     -10.5      2.543      4.128
REMARK  Name = 66571548
REMARK  8 active torsions:
REMARK  status: ('A' for Active; 'I' for Inactive)
REMARK    1  A    between atoms: C_2  and  C_10
REMARK    2  A    between atoms: C_2  and  C_22
REMARK    3  A    between atoms: N_3  and  C_15
REMARK    4  A    between atoms: C_15  and  C_18
REMARK    5  A    between atoms: C_18  and  O_19
REMARK    6  A    between atoms: C_25  and  N_28
REMARK    7  A    between atoms: C_29  and  C_31
REMARK    8  A    between atoms: C_31  and  C_34
REMARK                            x       y       z     vdW  Elec       q    Type
REMARK                         _______ _______ _______ _____ _____    ______ ____
ROOT
ATOM      1  O   UNL     1      37.714 -20.948 -16.781  0.00  0.00    -0.286 OA
ATOM      2  C   UNL     1      36.805 -21.788 -16.963  0.00  0.00    +0.199 C 
ENDROOT
BRANCH   2  10
ATOM      3  N   UNL     1      37.003 -24.570 -14.673  0.00  0.00    -0.261 N 
ATOM      4  N   UNL     1      34.784 -25.028 -13.848  0.00  0.00    -0.322 NA
ATOM      5  N   UNL     1      33.100 -23.530 -14.769  0.00  0.00    -0.170 NA
ATOM      6  N   UNL     1      32.532 -25.213 -13.245  0.00  0.00    -0.293 N 
ATOM      7  C   UNL     1      35.655 -24.335 -14.602  0.00  0.00    +0.201 C 
ATOM      8  C   UNL     1      37.578 -23.674 -15.536  0.00  0.00    +0.071 C 
ATOM      9  C   UNL     1      35.362 -23.266 -15.439  0.00  0.00    +0.069 C 
ATOM     10  C   UNL     1      36.585 -22.853 -16.027  0.00  0.00    +0.059 C 
ATOM     11  C   UNL     1      34.026 -22.872 -15.505  0.00  0.00    +0.116 C 
ATOM     12  C   UNL     1      33.531 -24.552 -13.997  0.00  0.00    +0.143 C 
ATOM     13  H   UNL     1      32.775 -25.967 -12.661  0.00  0.00    +0.155 HD
ATOM     14  H   UNL     1      31.595 -24.918 -13.305  0.00  0.00    +0.155 HD
BRANCH   3  15
ATOM     15  C   UNL     1      37.766 -25.669 -13.909  0.00  0.00    +0.091 C 
ATOM     16  C   UNL     1      37.265 -27.100 -14.216  0.00  0.00    +0.023 C 
ATOM     17  C   UNL     1      39.259 -25.618 -14.312  0.00  0.00    +0.023 C 
BRANCH  15  18
ATOM     18  C   UNL     1      37.657 -25.435 -12.380  0.00  0.00    +0.155 C 
BRANCH  18  19
ATOM     19  O   UNL     1      36.713 -26.330 -11.801  0.00  0.00    -0.380 OA
ATOM     20  H   UNL     1      35.946 -26.415 -12.388  0.00  0.00    +0.211 HD
ENDBRANCH  18  19
ENDBRANCH  15  18
ENDBRANCH   3  15
ENDBRANCH   2  10
BRANCH   2  22
ATOM     21  N   UNL     1      34.013 -22.194 -19.485  0.00  0.00    -0.241 NA
ATOM     22  C   UNL     1      35.978 -21.604 -18.207  0.00  0.00    +0.059 C 
ATOM     23  C   UNL     1      36.372 -20.720 -19.206  0.00  0.00    +0.021 C 
ATOM     24  C   UNL     1      34.802 -22.311 -18.393  0.00  0.00    +0.102 C 
ATOM     25  C   UNL     1      35.588 -20.573 -20.345  0.00  0.00    +0.070 C 
ATOM     26  C   UNL     1      34.428 -21.326 -20.435  0.00  0.00    +0.113 C 
BRANCH  25  28
ATOM     27  O   UNL     1      34.756 -17.735 -20.864  0.00  0.00    -0.274 OA
ATOM     28  N   UNL     1      35.957 -19.697 -21.363  0.00  0.00    -0.282 N 
ATOM     29  C   UNL     1      35.539 -18.370 -21.565  0.00  0.00    +0.232 C 
ATOM     30  H   UNL     1      36.591 -20.053 -22.026  0.00  0.00    +0.155 HD
BRANCH  29  31
ATOM     31  C   UNL     1      36.188 -17.772 -22.803  0.00  0.00    +0.131 C 
BRANCH  31  34
ATOM     32 CL   UNL     1      32.574 -14.127 -25.810  0.00  0.00    -0.081 Cl
ATOM     33  N   UNL     1      35.067 -15.632 -23.092  0.00  0.00    -0.247 NA
ATOM     34  C   UNL     1      35.268 -16.873 -23.588  0.00  0.00    +0.068 C 
ATOM     35  C   UNL     1      34.684 -17.348 -24.751  0.00  0.00    +0.016 C 
ATOM     36  C   UNL     1      33.840 -16.493 -25.451  0.00  0.00    +0.014 C 
ATOM     37  C   UNL     1      34.241 -14.829 -23.799  0.00  0.00    +0.110 C 
ATOM     38  C   UNL     1      33.608 -15.208 -24.973  0.00  0.00    +0.077 C 
ENDBRANCH  31  34
ENDBRANCH  29  31
ENDBRANCH  25  28
ENDBRANCH   2  22
TORSDOF 8
ENDMDL
MODEL 6
REMARK VINA RESULT:     -10.3      2.256      3.706
REMARK  Name = 66571548
REMARK  8 active torsions:
REMARK  status: ('A' for Active; 'I' for Inactive)
REMARK    1  A    between atoms: C_2  and  C_10
REMARK    2  A    between atoms: C_2  and  C_22
REMARK    3  A    between atoms: N_3  and  C_15
REMARK    4  A    between atoms: C_15  and  C_18
REMARK    5  A    between atoms: C_18  and  O_19
REMARK    6  A    between atoms: C_25  and  N_28
REMARK    7  A    between atoms: C_29  and  C_31
REMARK    8  A    between atoms: C_31  and  C_34
REMARK                            x       y       z     vdW  Elec       q    Type
REMARK                         _______ _______ _______ _____ _____    ______ ____
ROOT
ATOM      1  O   UNL     1      33.096 -22.881 -20.151  0.00  0.00    -0.286 OA
ATOM      2  C   UNL     1      33.807 -22.208 -19.374  0.00  0.00    +0.199 C 
ENDROOT
BRANCH   2  10
ATOM      3  N   UNL     1      35.117 -23.260 -16.180  0.00  0.00    -0.261 N 
ATOM      4  N   UNL     1      33.260 -23.629 -14.686  0.00  0.00    -0.322 NA
ATOM      5  N   UNL     1      31.103 -23.202 -15.731  0.00  0.00    -0.170 NA
ATOM      6  N   UNL     1      31.263 -23.897 -13.501  0.00  0.00    -0.293 N 
ATOM      7  C   UNL     1      33.782 -23.288 -15.877  0.00  0.00    +0.201 C 
ATOM      8  C   UNL     1      35.284 -22.864 -17.482  0.00  0.00    +0.071 C 
ATOM      9  C   UNL     1      33.078 -22.903 -17.012  0.00  0.00    +0.069 C 
ATOM     10  C   UNL     1      34.036 -22.637 -18.023  0.00  0.00    +0.059 C 
ATOM     11  C   UNL     1      31.688 -22.869 -16.904  0.00  0.00    +0.116 C 
ATOM     12  C   UNL     1      31.915 -23.556 -14.709  0.00  0.00    +0.143 C 
ATOM     13  H   UNL     1      31.792 -24.165 -12.715  0.00  0.00    +0.155 HD
ATOM     14  H   UNL     1      30.281 -23.866 -13.446  0.00  0.00    +0.155 HD
BRANCH   3  15
ATOM     15  C   UNL     1      36.265 -23.617 -15.216  0.00  0.00    +0.091 C 
ATOM     16  C   UNL     1      36.034 -23.123 -13.767  0.00  0.00    +0.023 C 
ATOM     17  C   UNL     1      36.408 -25.155 -15.150  0.00  0.00    +0.023 C 
BRANCH  15  18
ATOM     18  C   UNL     1      37.601 -23.015 -15.724  0.00  0.00    +0.155 C 
BRANCH  18  19
ATOM     19  O   UNL     1      38.699 -23.841 -15.349  0.00  0.00    -0.380 OA
ATOM     20  H   UNL     1      39.351 -23.310 -14.866  0.00  0.00    +0.211 HD
ENDBRANCH  18  19
ENDBRANCH  15  18
ENDBRANCH   3  15
ENDBRANCH   2  10
BRANCH   2  22
ATOM     21  N   UNL     1      36.339 -19.733 -20.709  0.00  0.00    -0.241 NA
ATOM     22  C   UNL     1      34.391 -20.945 -19.944  0.00  0.00    +0.059 C 
ATOM     23  C   UNL     1      33.587 -19.847 -20.229  0.00  0.00    +0.021 C 
ATOM     24  C   UNL     1      35.749 -20.838 -20.199  0.00  0.00    +0.102 C 
ATOM     25  C   UNL     1      34.157 -18.692 -20.754  0.00  0.00    +0.070 C 
ATOM     26  C   UNL     1      35.525 -18.686 -20.974  0.00  0.00    +0.113 C 
BRANCH  25  28
ATOM     27  O   UNL     1      34.721 -15.768 -20.367  0.00  0.00    -0.274 OA
ATOM     28  N   UNL     1      33.377 -17.576 -21.049  0.00  0.00    -0.282 N 
ATOM     29  C   UNL     1      33.685 -16.219 -20.849  0.00  0.00    +0.232 C 
ATOM     30  H   UNL     1      32.497 -17.762 -21.448  0.00  0.00    +0.155 HD
BRANCH  29  31
ATOM     31  C   UNL     1      32.548 -15.323 -21.313  0.00  0.00    +0.131 C 
BRANCH  31  34
ATOM     32 CL   UNL     1      34.037 -11.505 -25.625  0.00  0.00    -0.081 Cl
ATOM     33  N   UNL     1      32.570 -13.090 -22.278  0.00  0.00    -0.247 NA
ATOM     34  C   UNL     1      32.940 -14.382 -22.422  0.00  0.00    +0.068 C 
ATOM     35  C   UNL     1      33.643 -14.870 -23.511  0.00  0.00    +0.016 C 
ATOM     36  C   UNL     1      33.989 -13.975 -24.517  0.00  0.00    +0.014 C 
ATOM     37  C   UNL     1      32.924 -12.249 -23.275  0.00  0.00    +0.110 C 
ATOM     38  C   UNL     1      33.626 -12.638 -24.405  0.00  0.00    +0.077 C 
ENDBRANCH  31  34
ENDBRANCH  29  31
ENDBRANCH  25  28
ENDBRANCH   2  22
TORSDOF 8
ENDMDL
MODEL 7
REMARK VINA RESULT:     -10.3      5.234     12.262
REMARK  Name = 66571548
REMARK  8 active torsions:
REMARK  status: ('A' for Active; 'I' for Inactive)
REMARK    1  A    between atoms: C_2  and  C_10
REMARK    2  A    between atoms: C_2  and  C_22
REMARK    3  A    between atoms: N_3  and  C_15
REMARK    4  A    between atoms: C_15  and  C_18
REMARK    5  A    between atoms: C_18  and  O_19
REMARK    6  A    between atoms: C_25  and  N_28
REMARK    7  A    between atoms: C_29  and  C_31
REMARK    8  A    between atoms: C_31  and  C_34
REMARK                            x       y       z     vdW  Elec       q    Type
REMARK                         _______ _______ _______ _____ _____    ______ ____
ROOT
ATOM      1  O   UNL     1      34.441 -11.481 -26.305  0.00  0.00    -0.286 OA
ATOM      2  C   UNL     1      33.862 -11.912 -25.284  0.00  0.00    +0.199 C 
ENDROOT
BRANCH   2  10
ATOM      3  N   UNL     1      32.773  -9.109 -23.289  0.00  0.00    -0.261 N 
ATOM      4  N   UNL     1      31.690  -9.964 -21.312  0.00  0.00    -0.322 NA
ATOM      5  N   UNL     1      31.647 -12.397 -21.231  0.00  0.00    -0.170 NA
ATOM      6  N   UNL     1      30.711 -11.103 -19.520  0.00  0.00    -0.293 N 
ATOM      7  C   UNL     1      32.332 -10.124 -22.482  0.00  0.00    +0.201 C 
ATOM      8  C   UNL     1      33.379  -9.637 -24.400  0.00  0.00    +0.071 C 
ATOM      9  C   UNL     1      32.664 -11.328 -23.091  0.00  0.00    +0.069 C 
ATOM     10  C   UNL     1      33.326 -11.012 -24.303  0.00  0.00    +0.059 C 
ATOM     11  C   UNL     1      32.296 -12.491 -22.415  0.00  0.00    +0.116 C 
ATOM     12  C   UNL     1      31.388 -11.156 -20.760  0.00  0.00    +0.143 C 
ATOM     13  H   UNL     1      30.490 -10.232 -19.118  0.00  0.00    +0.155 HD
ATOM     14  H   UNL     1      30.459 -11.936 -19.060  0.00  0.00    +0.155 HD
BRANCH   3  15
ATOM     15  C   UNL     1      32.620  -7.602 -23.004  0.00  0.00    +0.091 C 
ATOM     16  C   UNL     1      33.440  -6.704 -23.962  0.00  0.00    +0.023 C 
ATOM     17  C   UNL     1      31.136  -7.205 -23.175  0.00  0.00    +0.023 C 
BRANCH  15  18
ATOM     18  C   UNL     1      33.056  -7.282 -21.551  0.00  0.00    +0.155 C 
BRANCH  18  19
ATOM     19  O   UNL     1      31.925  -6.968 -20.745  0.00  0.00    -0.380 OA
ATOM     20  H   UNL     1      31.240  -6.557 -21.295  0.00  0.00    +0.211 HD
ENDBRANCH  18  19
ENDBRANCH  15  18
ENDBRANCH   3  15
ENDBRANCH   2  10
BRANCH   2  22
ATOM     21  N   UNL     1      32.971 -15.508 -26.054  0.00  0.00    -0.241 NA
ATOM     22  C   UNL     1      33.771 -13.408 -25.161  0.00  0.00    +0.059 C 
ATOM     23  C   UNL     1      34.363 -14.078 -24.096  0.00  0.00    +0.021 C 
ATOM     24  C   UNL     1      33.092 -14.162 -26.105  0.00  0.00    +0.102 C 
ATOM     25  C   UNL     1      34.260 -15.463 -24.009  0.00  0.00    +0.070 C 
ATOM     26  C   UNL     1      33.560 -16.125 -25.005  0.00  0.00    +0.113 C 
BRANCH  25  28
ATOM     27  O   UNL     1      35.167 -18.320 -23.833  0.00  0.00    -0.274 OA
ATOM     28  N   UNL     1      34.842 -16.161 -22.953  0.00  0.00    -0.282 N 
ATOM     29  C   UNL     1      35.252 -17.505 -22.918  0.00  0.00    +0.232 C 
ATOM     30  H   UNL     1      34.983 -15.647 -22.126  0.00  0.00    +0.155 HD
BRANCH  29  31
ATOM     31  C   UNL     1      35.840 -17.865 -21.563  0.00  0.00    +0.131 C 
BRANCH  31  34
ATOM     32 CL   UNL     1      33.366 -22.627 -18.997  0.00  0.00    -0.081 Cl
ATOM     33  N   UNL     1      36.003 -19.954 -20.327  0.00  0.00    -0.247 NA
ATOM     34  C   UNL     1      35.183 -19.060 -20.923  0.00  0.00    +0.068 C 
ATOM     35  C   UNL     1      33.804 -19.184 -20.972  0.00  0.00    +0.016 C 
ATOM     36  C   UNL     1      33.230 -20.299 -20.371  0.00  0.00    +0.014 C 
ATOM     37  C   UNL     1      35.409 -21.024 -19.753  0.00  0.00    +0.110 C 
ATOM     38  C   UNL     1      34.040 -21.241 -19.748  0.00  0.00    +0.077 C 
ENDBRANCH  31  34
ENDBRANCH  29  31
ENDBRANCH  25  28
ENDBRANCH   2  22
TORSDOF 8
ENDMDL
MODEL 8
REMARK VINA RESULT:     -10.2      3.963     10.353
REMARK  Name = 66571548
REMARK  8 active torsions:
REMARK  status: ('A' for Active; 'I' for Inactive)
REMARK    1  A    between atoms: C_2  and  C_10
REMARK    2  A    between atoms: C_2  and  C_22
REMARK    3  A    between atoms: N_3  and  C_15
REMARK    4  A    between atoms: C_15  and  C_18
REMARK    5  A    between atoms: C_18  and  O_19
REMARK    6  A    between atoms: C_25  and  N_28
REMARK    7  A    between atoms: C_29  and  C_31
REMARK    8  A    between atoms: C_31  and  C_34
REMARK                            x       y       z     vdW  Elec       q    Type
REMARK                         _______ _______ _______ _____ _____    ______ ____
ROOT
ATOM      1  O   UNL     1      36.851 -19.031 -22.298  0.00  0.00    -0.286 OA
ATOM      2  C   UNL     1      35.712 -18.791 -21.841  0.00  0.00    +0.199 C 
ENDROOT
BRANCH   2  10
ATOM      3  N   UNL     1      33.919 -15.664 -22.002  0.00  0.00    -0.261 N 
ATOM      4  N   UNL     1      33.475 -15.166 -24.319  0.00  0.00    -0.322 NA
ATOM      5  N   UNL     1      34.335 -16.865 -25.837  0.00  0.00    -0.170 NA
ATOM      6  N   UNL     1      33.205 -14.976 -26.634  0.00  0.00    -0.293 N 
ATOM      7  C   UNL     1      33.982 -15.938 -23.342  0.00  0.00    +0.201 C 
ATOM      8  C   UNL     1      34.540 -16.664 -21.300  0.00  0.00    +0.071 C 
ATOM      9  C   UNL     1      34.656 -17.143 -23.501  0.00  0.00    +0.069 C 
ATOM     10  C   UNL     1      35.006 -17.596 -22.204  0.00  0.00    +0.059 C 
ATOM     11  C   UNL     1      34.823 -17.598 -24.809  0.00  0.00    +0.116 C 
ATOM     12  C   UNL     1      33.700 -15.710 -25.532  0.00  0.00    +0.143 C 
ATOM     13  H   UNL     1      32.732 -14.126 -26.486  0.00  0.00    +0.155 HD
ATOM     14  H   UNL     1      33.334 -15.315 -27.549  0.00  0.00    +0.155 HD
BRANCH   3  15
ATOM     15  C   UNL     1      33.256 -14.426 -21.367  0.00  0.00    +0.091 C 
ATOM     16  C   UNL     1      32.427 -14.748 -20.100  0.00  0.00    +0.023 C 
ATOM     17  C   UNL     1      34.357 -13.427 -20.942  0.00  0.00    +0.023 C 
BRANCH  15  18
ATOM     18  C   UNL     1      32.323 -13.731 -22.391  0.00  0.00    +0.155 C 
BRANCH  18  19
ATOM     19  O   UNL     1      32.967 -12.601 -22.973  0.00  0.00    -0.380 OA
ATOM     20  H   UNL     1      33.310 -12.840 -23.848  0.00  0.00    +0.211 HD
ENDBRANCH  18  19
ENDBRANCH  15  18
ENDBRANCH   3  15
ENDBRANCH   2  10
BRANCH   2  22
ATOM     21  N   UNL     1      33.221 -21.018 -20.064  0.00  0.00    -0.241 NA
ATOM     22  C   UNL     1      35.149 -19.824 -20.904  0.00  0.00    +0.059 C 
ATOM     23  C   UNL     1      35.973 -20.527 -20.031  0.00  0.00    +0.021 C 
ATOM     24  C   UNL     1      33.792 -20.104 -20.881  0.00  0.00    +0.102 C 
ATOM     25  C   UNL     1      35.422 -21.475 -19.174  0.00  0.00    +0.070 C 
ATOM     26  C   UNL     1      34.053 -21.681 -19.230  0.00  0.00    +0.113 C 
BRANCH  25  28
ATOM     27  O   UNL     1      37.220 -20.520 -16.967  0.00  0.00    -0.274 OA
ATOM     28  N   UNL     1      36.223 -22.193 -18.289  0.00  0.00    -0.282 N 
ATOM     29  C   UNL     1      37.051 -21.699 -17.266  0.00  0.00    +0.232 C 
ATOM     30  H   UNL     1      36.206 -23.171 -18.393  0.00  0.00    +0.155 HD
BRANCH  29  31
ATOM     31  C   UNL     1      37.753 -22.831 -16.533  0.00  0.00    +0.131 C 
BRANCH  31  34
ATOM     32 CL   UNL     1      35.381 -24.190 -11.249  0.00  0.00    -0.081 Cl
ATOM     33  N   UNL     1      37.963 -23.498 -14.202  0.00  0.00    -0.247 NA
ATOM     34  C   UNL     1      37.121 -23.170 -15.208  0.00  0.00    +0.068 C 
ATOM     35  C   UNL     1      35.742 -23.132 -15.083  0.00  0.00    +0.016 C 
ATOM     36  C   UNL     1      35.191 -23.450 -13.847  0.00  0.00    +0.014 C 
ATOM     37  C   UNL     1      37.392 -23.800 -13.015  0.00  0.00    +0.110 C 
ATOM     38  C   UNL     1      36.025 -23.792 -12.788  0.00  0.00    +0.077 C 
ENDBRANCH  31  34
ENDBRANCH  29  31
ENDBRANCH  25  28
ENDBRANCH   2  22
TORSDOF 8
ENDMDL
MODEL 9
REMARK VINA RESULT:     -10.2      3.332     10.196
REMARK  Name = 66571548
REMARK  8 active torsions:
REMARK  status: ('A' for Active; 'I' for Inactive)
REMARK    1  A    between atoms: C_2  and  C_10
REMARK    2  A    between atoms: C_2  and  C_22
REMARK    3  A    between atoms: N_3  and  C_15
REMARK    4  A    between atoms: C_15  and  C_18
REMARK    5  A    between atoms: C_18  and  O_19
REMARK    6  A    between atoms: C_25  and  N_28
REMARK    7  A    between atoms: C_29  and  C_31
REMARK    8  A    between atoms: C_31  and  C_34
REMARK                            x       y       z     vdW  Elec       q    Type
REMARK                         _______ _______ _______ _____ _____    ______ ____
ROOT
ATOM      1  O   UNL     1      34.940 -19.750 -23.860  0.00  0.00    -0.286 OA
ATOM      2  C   UNL     1      34.945 -19.037 -22.834  0.00  0.00    +0.199 C 
ENDROOT
BRANCH   2  10
ATOM      3  N   UNL     1      33.864 -15.656 -22.185  0.00  0.00    -0.261 N 
ATOM      4  N   UNL     1      33.402 -14.592 -24.300  0.00  0.00    -0.322 NA
ATOM      5  N   UNL     1      33.784 -16.060 -26.204  0.00  0.00    -0.170 NA
ATOM      6  N   UNL     1      33.044 -13.858 -26.491  0.00  0.00    -0.293 N 
ATOM      7  C   UNL     1      33.787 -15.641 -23.553  0.00  0.00    +0.201 C 
ATOM      8  C   UNL     1      34.294 -16.887 -21.764  0.00  0.00    +0.071 C 
ATOM      9  C   UNL     1      34.175 -16.893 -24.016  0.00  0.00    +0.069 C 
ATOM     10  C   UNL     1      34.494 -17.676 -22.878  0.00  0.00    +0.059 C 
ATOM     11  C   UNL     1      34.161 -17.079 -25.398  0.00  0.00    +0.116 C 
ATOM     12  C   UNL     1      33.433 -14.896 -25.613  0.00  0.00    +0.143 C 
ATOM     13  H   UNL     1      32.776 -12.982 -26.129  0.00  0.00    +0.155 HD
ATOM     14  H   UNL     1      33.043 -14.010 -27.463  0.00  0.00    +0.155 HD
BRANCH   3  15
ATOM     15  C   UNL     1      33.522 -14.477 -21.253  0.00  0.00    +0.091 C 
ATOM     16  C   UNL     1      32.414 -14.803 -20.223  0.00  0.00    +0.023 C 
ATOM     17  C   UNL     1      34.785 -14.090 -20.448  0.00  0.00    +0.023 C 
BRANCH  15  18
ATOM     18  C   UNL     1      33.066 -13.250 -22.082  0.00  0.00    +0.155 C 
BRANCH  18  19
ATOM     19  O   UNL     1      31.645 -13.172 -22.127  0.00  0.00    -0.380 OA
ATOM     20  H   UNL     1      31.377 -12.256 -22.301  0.00  0.00    +0.211 HD
ENDBRANCH  18  19
ENDBRANCH  15  18
ENDBRANCH   3  15
ENDBRANCH   2  10
BRANCH   2  22
ATOM     21  N   UNL     1      37.306 -20.223 -20.125  0.00  0.00    -0.241 NA
ATOM     22  C   UNL     1      35.447 -19.695 -21.577  0.00  0.00    +0.059 C 
ATOM     23  C   UNL     1      34.579 -20.367 -20.723  0.00  0.00    +0.021 C 
ATOM     24  C   UNL     1      36.789 -19.653 -21.237  0.00  0.00    +0.102 C 
ATOM     25  C   UNL     1      35.074 -20.966 -19.570  0.00  0.00    +0.070 C 
ATOM     26  C   UNL     1      36.433 -20.867 -19.318  0.00  0.00    +0.113 C 
BRANCH  25  28
ATOM     27  O   UNL     1      34.083 -23.800 -19.634  0.00  0.00    -0.274 OA
ATOM     28  N   UNL     1      34.229 -21.646 -18.695  0.00  0.00    -0.282 N 
ATOM     29  C   UNL     1      33.792 -22.981 -18.767  0.00  0.00    +0.232 C 
ATOM     30  H   UNL     1      33.895 -21.126 -17.930  0.00  0.00    +0.155 HD
BRANCH  29  31
ATOM     31  C   UNL     1      32.873 -23.321 -17.604  0.00  0.00    +0.131 C 
BRANCH  31  34
ATOM     32 CL   UNL     1      35.864 -24.006 -12.507  0.00  0.00    -0.081 Cl
ATOM     33  N   UNL     1      34.952 -23.480 -16.349  0.00  0.00    -0.247 NA
ATOM     34  C   UNL     1      33.601 -23.497 -16.297  0.00  0.00    +0.068 C 
ATOM     35  C   UNL     1      32.872 -23.665 -15.130  0.00  0.00    +0.016 C 
ATOM     36  C   UNL     1      33.575 -23.824 -13.941  0.00  0.00    +0.014 C 
ATOM     37  C   UNL     1      35.601 -23.638 -15.174  0.00  0.00    +0.110 C 
ATOM     38  C   UNL     1      34.965 -23.812 -13.954  0.00  0.00    +0.077 C 
ENDBRANCH  31  34
ENDBRANCH  29  31
ENDBRANCH  25  28
ENDBRANCH   2  22
TORSDOF 8
ENDMDL
