MODEL 1
REMARK VINA RESULT:      -9.7      0.000      0.000
REMARK  Name = 6852147
REMARK  9 active torsions:
REMARK  status: ('A' for Active; 'I' for Inactive)
REMARK    1  A    between atoms: S_1  and  C_4
REMARK    2  A    between atoms: S_1  and  N_18
REMARK    3  A    between atoms: C_7  and  C_10
REMARK    4  A    between atoms: C_15  and  O_16
REMARK    5  A    between atoms: N_18  and  C_20
REMARK    6  A    between atoms: C_20  and  C_21
REMARK    7  A    between atoms: C_20  and  P_24
REMARK    8  A    between atoms: P_24  and  O_26
REMARK    9  A    between atoms: P_24  and  O_28
REMARK                            x       y       z     vdW  Elec       q    Type
REMARK                         _______ _______ _______ _____ _____    ______ ____
ROOT
ATOM      1  S   UNL     1      33.495 -23.227 -17.556  0.00  0.00    +0.061 S 
ATOM      2  O   UNL     1      33.845 -24.507 -18.141  0.00  0.00    -0.153 OA
ATOM      3  O   UNL     1      32.160 -23.007 -17.033  0.00  0.00    -0.153 OA
ENDROOT
BRANCH   1   4
ATOM      4  C   UNL     1      33.772 -21.982 -18.778  0.00  0.00    +0.122 C 
ATOM      5  C   UNL     1      32.688 -21.303 -19.310  0.00  0.00    +0.020 C 
ATOM      6  C   UNL     1      35.067 -21.707 -19.183  0.00  0.00    +0.020 C 
ATOM      7  C   UNL     1      34.205 -20.031 -20.695  0.00  0.00    +0.000 C 
ATOM      8  C   UNL     1      32.907 -20.320 -20.275  0.00  0.00    +0.001 C 
ATOM      9  C   UNL     1      35.285 -20.724 -20.149  0.00  0.00    +0.001 C 
BRANCH   7  10
ATOM     10  C   UNL     1      34.432 -19.011 -21.696  0.00  0.00    +0.000 C 
ATOM     11  C   UNL     1      34.693 -19.376 -23.016  0.00  0.00    +0.003 C 
ATOM     12  C   UNL     1      34.389 -17.663 -21.340  0.00  0.00    +0.003 C 
ATOM     13  C   UNL     1      34.912 -18.394 -23.981  0.00  0.00    +0.037 C 
ATOM     14  C   UNL     1      34.608 -16.680 -22.305  0.00  0.00    +0.037 C 
ATOM     15  C   UNL     1      34.869 -17.045 -23.626  0.00  0.00    +0.139 C 
BRANCH  15  16
ATOM     16  O   UNL     1      35.082 -16.086 -24.567  0.00  0.00    -0.471 OA
ATOM     17  C   UNL     1      34.025 -15.837 -25.492  0.00  0.00    +0.252 C 
ENDBRANCH  15  16
ENDBRANCH   7  10
ENDBRANCH   1   4
BRANCH   1  18
ATOM     18  N   UNL     1      34.630 -22.809 -16.363  0.00  0.00    -0.169 NA
ATOM     19  H   UNL     1      34.158 -22.155 -15.740  0.00  0.00    +0.149 HD
BRANCH  18  20
ATOM     20  C   UNL     1      35.273 -23.816 -15.493  0.00  0.00    +0.179 C 
BRANCH  20  21
ATOM     21  C   UNL     1      36.740 -23.433 -15.203  0.00  0.00    +0.028 C 
ATOM     22  C   UNL     1      37.665 -24.632 -14.983  0.00  0.00    +0.002 C 
ATOM     23  C   UNL     1      37.319 -22.528 -16.295  0.00  0.00    +0.002 C 
ENDBRANCH  20  21
BRANCH  20  24
ATOM     24  P   UNL     1      34.222 -23.930 -14.037  0.00  0.00    +0.352 P 
ATOM     25  O   UNL     1      34.937 -23.913 -12.718  0.00  0.00    -0.257 OA
BRANCH  24  26
ATOM     26  O   UNL     1      33.335 -25.255 -14.304  0.00  0.00    -0.323 OA
ATOM     27  H   UNL     1      33.918 -26.027 -14.364  0.00  0.00    +0.220 HD
ENDBRANCH  24  26
BRANCH  24  28
ATOM     28  O   UNL     1      33.147 -22.741 -14.247  0.00  0.00    -0.323 OA
ATOM     29  H   UNL     1      32.995 -22.288 -13.402  0.00  0.00    +0.220 HD
ENDBRANCH  24  28
ENDBRANCH  20  24
ENDBRANCH  18  20
ENDBRANCH   1  18
TORSDOF 9
ENDMDL
MODEL 2
REMARK VINA RESULT:      -9.7      1.832      2.978
REMARK  Name = 6852147
REMARK  9 active torsions:
REMARK  status: ('A' for Active; 'I' for Inactive)
REMARK    1  A    between atoms: S_1  and  C_4
REMARK    2  A    between atoms: S_1  and  N_18
REMARK    3  A    between atoms: C_7  and  C_10
REMARK    4  A    between atoms: C_15  and  O_16
REMARK    5  A    between atoms: N_18  and  C_20
REMARK    6  A    between atoms: C_20  and  C_21
REMARK    7  A    between atoms: C_20  and  P_24
REMARK    8  A    between atoms: P_24  and  O_26
REMARK    9  A    between atoms: P_24  and  O_28
REMARK                            x       y       z     vdW  Elec       q    Type
REMARK                         _______ _______ _______ _____ _____    ______ ____
ROOT
ATOM      1  S   UNL     1      34.760 -24.331 -15.291  0.00  0.00    +0.061 S 
ATOM      2  O   UNL     1      35.147 -25.657 -15.732  0.00  0.00    -0.153 OA
ATOM      3  O   UNL     1      33.439 -24.107 -14.734  0.00  0.00    -0.153 OA
ENDROOT
BRANCH   1   4
ATOM      4  C   UNL     1      34.923 -23.236 -16.667  0.00  0.00    +0.122 C 
ATOM      5  C   UNL     1      36.087 -22.498 -16.810  0.00  0.00    +0.020 C 
ATOM      6  C   UNL     1      33.885 -23.134 -17.578  0.00  0.00    +0.020 C 
ATOM      7  C   UNL     1      35.179 -21.518 -18.823  0.00  0.00    +0.000 C 
ATOM      8  C   UNL     1      36.215 -21.633 -17.897  0.00  0.00    +0.001 C 
ATOM      9  C   UNL     1      34.014 -22.268 -18.663  0.00  0.00    +0.001 C 
BRANCH   7  10
ATOM     10  C   UNL     1      35.313 -20.621 -19.950  0.00  0.00    +0.000 C 
ATOM     11  C   UNL     1      34.199 -20.308 -20.728  0.00  0.00    +0.003 C 
ATOM     12  C   UNL     1      36.557 -20.070 -20.259  0.00  0.00    +0.003 C 
ATOM     13  C   UNL     1      34.327 -19.444 -21.815  0.00  0.00    +0.037 C 
ATOM     14  C   UNL     1      36.685 -19.206 -21.346  0.00  0.00    +0.037 C 
ATOM     15  C   UNL     1      35.571 -18.892 -22.125  0.00  0.00    +0.139 C 
BRANCH  15  16
ATOM     16  O   UNL     1      35.697 -18.049 -23.185  0.00  0.00    -0.471 OA
ATOM     17  C   UNL     1      34.766 -18.204 -24.254  0.00  0.00    +0.252 C 
ENDBRANCH  15  16
ENDBRANCH   7  10
ENDBRANCH   1   4
BRANCH   1  18
ATOM     18  N   UNL     1      35.923 -23.721 -14.214  0.00  0.00    -0.169 NA
ATOM     19  H   UNL     1      35.453 -22.999 -13.668  0.00  0.00    +0.149 HD
BRANCH  18  20
ATOM     20  C   UNL     1      36.631 -24.578 -13.240  0.00  0.00    +0.179 C 
BRANCH  20  21
ATOM     21  C   UNL     1      38.155 -24.536 -13.479  0.00  0.00    +0.028 C 
ATOM     22  C   UNL     1      38.923 -25.674 -12.802  0.00  0.00    +0.002 C 
ATOM     23  C   UNL     1      38.497 -24.498 -14.971  0.00  0.00    +0.002 C 
ENDBRANCH  20  21
BRANCH  20  24
ATOM     24  P   UNL     1      36.104 -23.996 -11.621  0.00  0.00    +0.352 P 
ATOM     25  O   UNL     1      37.035 -23.032 -10.944  0.00  0.00    -0.257 OA
BRANCH  24  26
ATOM     26  O   UNL     1      35.825 -25.356 -10.792  0.00  0.00    -0.323 OA
ATOM     27  H   UNL     1      36.636 -25.886 -10.761  0.00  0.00    +0.220 HD
ENDBRANCH  24  26
BRANCH  24  28
ATOM     28  O   UNL     1      34.612 -23.432 -11.883  0.00  0.00    -0.323 OA
ATOM     29  H   UNL     1      34.380 -22.793 -11.191  0.00  0.00    +0.220 HD
ENDBRANCH  24  28
ENDBRANCH  20  24
ENDBRANCH  18  20
ENDBRANCH   1  18
TORSDOF 9
ENDMDL
MODEL 3
REMARK VINA RESULT:      -9.6      2.378      3.279
REMARK  Name = 6852147
REMARK  9 active torsions:
REMARK  status: ('A' for Active; 'I' for Inactive)
REMARK    1  A    between atoms: S_1  and  C_4
REMARK    2  A    between atoms: S_1  and  N_18
REMARK    3  A    between atoms: C_7  and  C_10
REMARK    4  A    between atoms: C_15  and  O_16
REMARK    5  A    between atoms: N_18  and  C_20
REMARK    6  A    between atoms: C_20  and  C_21
REMARK    7  A    between atoms: C_20  and  P_24
REMARK    8  A    between atoms: P_24  and  O_26
REMARK    9  A    between atoms: P_24  and  O_28
REMARK                            x       y       z     vdW  Elec       q    Type
REMARK                         _______ _______ _______ _____ _____    ______ ____
ROOT
ATOM      1  S   UNL     1      33.772 -23.317 -17.676  0.00  0.00    +0.061 S 
ATOM      2  O   UNL     1      34.859 -23.206 -16.722  0.00  0.00    -0.153 OA
ATOM      3  O   UNL     1      33.589 -24.543 -18.429  0.00  0.00    -0.153 OA
ENDROOT
BRANCH   1   4
ATOM      4  C   UNL     1      33.957 -22.018 -18.859  0.00  0.00    +0.122 C 
ATOM      5  C   UNL     1      35.227 -21.674 -19.292  0.00  0.00    +0.020 C 
ATOM      6  C   UNL     1      32.830 -21.367 -19.332  0.00  0.00    +0.020 C 
ATOM      7  C   UNL     1      34.248 -19.982 -20.712  0.00  0.00    +0.000 C 
ATOM      8  C   UNL     1      35.373 -20.648 -20.226  0.00  0.00    +0.001 C 
ATOM      9  C   UNL     1      32.976 -20.341 -20.265  0.00  0.00    +0.001 C 
BRANCH   7  10
ATOM     10  C   UNL     1      34.400 -18.918 -21.681  0.00  0.00    +0.000 C 
ATOM     11  C   UNL     1      34.299 -17.588 -21.277  0.00  0.00    +0.003 C 
ATOM     12  C   UNL     1      34.647 -19.224 -23.019  0.00  0.00    +0.003 C 
ATOM     13  C   UNL     1      34.444 -16.562 -22.210  0.00  0.00    +0.037 C 
ATOM     14  C   UNL     1      34.792 -18.198 -23.953  0.00  0.00    +0.037 C 
ATOM     15  C   UNL     1      34.691 -16.867 -23.549  0.00  0.00    +0.139 C 
BRANCH  15  16
ATOM     16  O   UNL     1      34.835 -15.867 -24.460  0.00  0.00    -0.471 OA
ATOM     17  C   UNL     1      33.812 -15.734 -25.446  0.00  0.00    +0.252 C 
ENDBRANCH  15  16
ENDBRANCH   7  10
ENDBRANCH   1   4
BRANCH   1  18
ATOM     18  N   UNL     1      32.305 -22.905 -16.926  0.00  0.00    -0.169 NA
ATOM     19  H   UNL     1      31.682 -22.597 -17.672  0.00  0.00    +0.149 HD
BRANCH  18  20
ATOM     20  C   UNL     1      31.530 -23.868 -16.115  0.00  0.00    +0.179 C 
BRANCH  20  21
ATOM     21  C   UNL     1      32.237 -24.145 -14.770  0.00  0.00    +0.028 C 
ATOM     22  C   UNL     1      32.580 -22.883 -13.976  0.00  0.00    +0.002 C 
ATOM     23  C   UNL     1      31.431 -25.106 -13.891  0.00  0.00    +0.002 C 
ENDBRANCH  20  21
BRANCH  20  24
ATOM     24  P   UNL     1      29.885 -23.156 -15.970  0.00  0.00    +0.352 P 
ATOM     25  O   UNL     1      29.579 -22.491 -14.660  0.00  0.00    -0.257 OA
BRANCH  24  26
ATOM     26  O   UNL     1      28.898 -24.379 -16.350  0.00  0.00    -0.323 OA
ATOM     27  H   UNL     1      29.303 -25.216 -16.077  0.00  0.00    +0.220 HD
ENDBRANCH  24  26
BRANCH  24  28
ATOM     28  O   UNL     1      29.768 -22.196 -17.266  0.00  0.00    -0.323 OA
ATOM     29  H   UNL     1      29.813 -22.734 -18.073  0.00  0.00    +0.220 HD
ENDBRANCH  24  28
ENDBRANCH  20  24
ENDBRANCH  18  20
ENDBRANCH   1  18
TORSDOF 9
ENDMDL
MODEL 4
REMARK VINA RESULT:      -9.5      1.692      2.093
REMARK  Name = 6852147
REMARK  9 active torsions:
REMARK  status: ('A' for Active; 'I' for Inactive)
REMARK    1  A    between atoms: S_1  and  C_4
REMARK    2  A    between atoms: S_1  and  N_18
REMARK    3  A    between atoms: C_7  and  C_10
REMARK    4  A    between atoms: C_15  and  O_16
REMARK    5  A    between atoms: N_18  and  C_20
REMARK    6  A    between atoms: C_20  and  C_21
REMARK    7  A    between atoms: C_20  and  P_24
REMARK    8  A    between atoms: P_24  and  O_26
REMARK    9  A    between atoms: P_24  and  O_28
REMARK                            x       y       z     vdW  Elec       q    Type
REMARK                         _______ _______ _______ _____ _____    ______ ____
ROOT
ATOM      1  S   UNL     1      33.751 -23.047 -17.884  0.00  0.00    +0.061 S 
ATOM      2  O   UNL     1      33.670 -24.311 -18.590  0.00  0.00    -0.153 OA
ATOM      3  O   UNL     1      32.673 -22.636 -17.003  0.00  0.00    -0.153 OA
ENDROOT
BRANCH   1   4
ATOM      4  C   UNL     1      33.938 -21.768 -19.087  0.00  0.00    +0.122 C 
ATOM      5  C   UNL     1      32.812 -21.111 -19.557  0.00  0.00    +0.020 C 
ATOM      6  C   UNL     1      35.205 -21.444 -19.540  0.00  0.00    +0.020 C 
ATOM      7  C   UNL     1      34.230 -19.763 -20.975  0.00  0.00    +0.000 C 
ATOM      8  C   UNL     1      32.960 -20.100 -20.507  0.00  0.00    +0.001 C 
ATOM      9  C   UNL     1      35.352 -20.435 -20.491  0.00  0.00    +0.001 C 
BRANCH   7  10
ATOM     10  C   UNL     1      34.382 -18.715 -21.960  0.00  0.00    +0.000 C 
ATOM     11  C   UNL     1      34.581 -19.042 -23.301  0.00  0.00    +0.003 C 
ATOM     12  C   UNL     1      34.331 -17.376 -21.569  0.00  0.00    +0.003 C 
ATOM     13  C   UNL     1      34.729 -18.033 -24.252  0.00  0.00    +0.037 C 
ATOM     14  C   UNL     1      34.478 -16.367 -22.520  0.00  0.00    +0.037 C 
ATOM     15  C   UNL     1      34.678 -16.694 -23.861  0.00  0.00    +0.139 C 
BRANCH  15  16
ATOM     16  O   UNL     1      34.821 -15.708 -24.788  0.00  0.00    -0.471 OA
ATOM     17  C   UNL     1      33.734 -15.499 -25.688  0.00  0.00    +0.252 C 
ENDBRANCH  15  16
ENDBRANCH   7  10
ENDBRANCH   1   4
BRANCH   1  18
ATOM     18  N   UNL     1      35.221 -22.954 -17.038  0.00  0.00    -0.169 NA
ATOM     19  H   UNL     1      35.628 -22.050 -17.276  0.00  0.00    +0.149 HD
BRANCH  18  20
ATOM     20  C   UNL     1      35.298 -23.065 -15.567  0.00  0.00    +0.179 C 
BRANCH  20  21
ATOM     21  C   UNL     1      34.738 -24.422 -15.089  0.00  0.00    +0.028 C 
ATOM     22  C   UNL     1      35.816 -25.454 -14.745  0.00  0.00    +0.002 C 
ATOM     23  C   UNL     1      33.782 -24.259 -13.904  0.00  0.00    +0.002 C 
ENDBRANCH  20  21
BRANCH  20  24
ATOM     24  P   UNL     1      37.026 -22.775 -15.156  0.00  0.00    +0.352 P 
ATOM     25  O   UNL     1      37.340 -22.696 -13.690  0.00  0.00    -0.257 OA
BRANCH  24  26
ATOM     26  O   UNL     1      37.406 -21.448 -15.997  0.00  0.00    -0.323 OA
ATOM     27  H   UNL     1      38.370 -21.348 -16.023  0.00  0.00    +0.220 HD
ENDBRANCH  24  26
BRANCH  24  28
ATOM     28  O   UNL     1      37.811 -23.937 -15.960  0.00  0.00    -0.323 OA
ATOM     29  H   UNL     1      37.332 -24.776 -15.866  0.00  0.00    +0.220 HD
ENDBRANCH  24  28
ENDBRANCH  20  24
ENDBRANCH  18  20
ENDBRANCH   1  18
TORSDOF 9
ENDMDL
MODEL 5
REMARK VINA RESULT:      -9.2      2.669      3.567
REMARK  Name = 6852147
REMARK  9 active torsions:
REMARK  status: ('A' for Active; 'I' for Inactive)
REMARK    1  A    between atoms: S_1  and  C_4
REMARK    2  A    between atoms: S_1  and  N_18
REMARK    3  A    between atoms: C_7  and  C_10
REMARK    4  A    between atoms: C_15  and  O_16
REMARK    5  A    between atoms: N_18  and  C_20
REMARK    6  A    between atoms: C_20  and  C_21
REMARK    7  A    between atoms: C_20  and  P_24
REMARK    8  A    between atoms: P_24  and  O_26
REMARK    9  A    between atoms: P_24  and  O_28
REMARK                            x       y       z     vdW  Elec       q    Type
REMARK                         _______ _______ _______ _____ _____    ______ ____
ROOT
ATOM      1  S   UNL     1      35.432 -23.876 -15.414  0.00  0.00    +0.061 S 
ATOM      2  O   UNL     1      35.613 -25.245 -15.855  0.00  0.00    -0.153 OA
ATOM      3  O   UNL     1      34.262 -23.511 -14.637  0.00  0.00    -0.153 OA
ENDROOT
BRANCH   1   4
ATOM      4  C   UNL     1      35.431 -22.843 -16.847  0.00  0.00    +0.122 C 
ATOM      5  C   UNL     1      36.565 -22.108 -17.152  0.00  0.00    +0.020 C 
ATOM      6  C   UNL     1      34.297 -22.786 -17.641  0.00  0.00    +0.020 C 
ATOM      7  C   UNL     1      35.430 -21.223 -19.093  0.00  0.00    +0.000 C 
ATOM      8  C   UNL     1      36.564 -21.292 -18.283  0.00  0.00    +0.001 C 
ATOM      9  C   UNL     1      34.297 -21.970 -18.771  0.00  0.00    +0.001 C 
BRANCH   7  10
ATOM     10  C   UNL     1      35.430 -20.377 -20.267  0.00  0.00    +0.000 C 
ATOM     11  C   UNL     1      36.602 -19.732 -20.660  0.00  0.00    +0.003 C 
ATOM     12  C   UNL     1      34.258 -20.208 -21.004  0.00  0.00    +0.003 C 
ATOM     13  C   UNL     1      36.603 -18.916 -21.791  0.00  0.00    +0.037 C 
ATOM     14  C   UNL     1      34.259 -19.392 -22.135  0.00  0.00    +0.037 C 
ATOM     15  C   UNL     1      35.431 -18.746 -22.529  0.00  0.00    +0.139 C 
BRANCH  15  16
ATOM     16  O   UNL     1      35.431 -17.951 -23.634  0.00  0.00    -0.471 OA
ATOM     17  C   UNL     1      34.605 -18.353 -24.724  0.00  0.00    +0.252 C 
ENDBRANCH  15  16
ENDBRANCH   7  10
ENDBRANCH   1   4
BRANCH   1  18
ATOM     18  N   UNL     1      36.823 -23.345 -14.597  0.00  0.00    -0.169 NA
ATOM     19  H   UNL     1      36.546 -22.513 -14.077  0.00  0.00    +0.149 HD
BRANCH  18  20
ATOM     20  C   UNL     1      37.559 -24.201 -13.643  0.00  0.00    +0.179 C 
BRANCH  20  21
ATOM     21  C   UNL     1      36.603 -25.194 -12.949  0.00  0.00    +0.028 C 
ATOM     22  C   UNL     1      37.284 -26.474 -12.457  0.00  0.00    +0.002 C 
ATOM     23  C   UNL     1      35.840 -24.538 -11.794  0.00  0.00    +0.002 C 
ENDBRANCH  20  21
BRANCH  20  24
ATOM     24  P   UNL     1      38.874 -24.966 -14.604  0.00  0.00    +0.352 P 
ATOM     25  O   UNL     1      40.074 -25.412 -13.820  0.00  0.00    -0.257 OA
BRANCH  24  26
ATOM     26  O   UNL     1      39.191 -23.880 -15.760  0.00  0.00    -0.323 OA
ATOM     27  H   UNL     1      40.101 -23.561 -15.661  0.00  0.00    +0.220 HD
ENDBRANCH  24  26
BRANCH  24  28
ATOM     28  O   UNL     1      38.118 -26.138 -15.421  0.00  0.00    -0.323 OA
ATOM     29  H   UNL     1      38.774 -26.757 -15.780  0.00  0.00    +0.220 HD
ENDBRANCH  24  28
ENDBRANCH  20  24
ENDBRANCH  18  20
ENDBRANCH   1  18
TORSDOF 9
ENDMDL
MODEL 6
REMARK VINA RESULT:      -8.9      3.745      9.074
REMARK  Name = 6852147
REMARK  9 active torsions:
REMARK  status: ('A' for Active; 'I' for Inactive)
REMARK    1  A    between atoms: S_1  and  C_4
REMARK    2  A    between atoms: S_1  and  N_18
REMARK    3  A    between atoms: C_7  and  C_10
REMARK    4  A    between atoms: C_15  and  O_16
REMARK    5  A    between atoms: N_18  and  C_20
REMARK    6  A    between atoms: C_20  and  C_21
REMARK    7  A    between atoms: C_20  and  P_24
REMARK    8  A    between atoms: P_24  and  O_26
REMARK    9  A    between atoms: P_24  and  O_28
REMARK                            x       y       z     vdW  Elec       q    Type
REMARK                         _______ _______ _______ _____ _____    ______ ____
ROOT
ATOM      1  S   UNL     1      35.277 -18.819 -22.970  0.00  0.00    +0.061 S 
ATOM      2  O   UNL     1      34.932 -19.607 -24.138  0.00  0.00    -0.153 OA
ATOM      3  O   UNL     1      36.617 -18.284 -22.825  0.00  0.00    -0.153 OA
ENDROOT
BRANCH   1   4
ATOM      4  C   UNL     1      34.968 -19.809 -21.541  0.00  0.00    +0.122 C 
ATOM      5  C   UNL     1      36.031 -20.432 -20.907  0.00  0.00    +0.020 C 
ATOM      6  C   UNL     1      33.670 -19.946 -21.078  0.00  0.00    +0.020 C 
ATOM      7  C   UNL     1      34.485 -21.362 -19.300  0.00  0.00    +0.000 C 
ATOM      8  C   UNL     1      35.787 -21.214 -19.778  0.00  0.00    +0.001 C 
ATOM      9  C   UNL     1      33.427 -20.728 -19.950  0.00  0.00    +0.001 C 
BRANCH   7  10
ATOM     10  C   UNL     1      34.233 -22.174 -18.128  0.00  0.00    +0.000 C 
ATOM     11  C   UNL     1      35.269 -22.453 -17.239  0.00  0.00    +0.003 C 
ATOM     12  C   UNL     1      32.953 -22.675 -17.890  0.00  0.00    +0.003 C 
ATOM     13  C   UNL     1      35.028 -23.235 -16.110  0.00  0.00    +0.037 C 
ATOM     14  C   UNL     1      32.711 -23.457 -16.761  0.00  0.00    +0.037 C 
ATOM     15  C   UNL     1      33.748 -23.738 -15.870  0.00  0.00    +0.139 C 
BRANCH  15  16
ATOM     16  O   UNL     1      33.511 -24.500 -14.768  0.00  0.00    -0.471 OA
ATOM     17  C   UNL     1      32.209 -24.421 -14.191  0.00  0.00    +0.252 C 
ENDBRANCH  15  16
ENDBRANCH   7  10
ENDBRANCH   1   4
BRANCH   1  18
ATOM     18  N   UNL     1      34.155 -17.558 -22.776  0.00  0.00    -0.169 NA
ATOM     19  H   UNL     1      33.690 -17.727 -21.884  0.00  0.00    +0.149 HD
BRANCH  18  20
ATOM     20  C   UNL     1      34.553 -16.135 -22.769  0.00  0.00    +0.179 C 
BRANCH  20  21
ATOM     21  C   UNL     1      33.671 -15.315 -23.735  0.00  0.00    +0.028 C 
ATOM     22  C   UNL     1      33.945 -13.809 -23.700  0.00  0.00    +0.002 C 
ATOM     23  C   UNL     1      33.775 -15.826 -25.175  0.00  0.00    +0.002 C 
ENDBRANCH  20  21
BRANCH  20  24
ATOM     24  P   UNL     1      34.465 -15.623 -21.046  0.00  0.00    +0.352 P 
ATOM     25  O   UNL     1      34.976 -14.243 -20.753  0.00  0.00    -0.257 OA
BRANCH  24  26
ATOM     26  O   UNL     1      35.228 -16.806 -20.251  0.00  0.00    -0.323 OA
ATOM     27  H   UNL     1      34.608 -17.238 -19.645  0.00  0.00    +0.220 HD
ENDBRANCH  24  26
BRANCH  24  28
ATOM     28  O   UNL     1      32.918 -15.876 -20.651  0.00  0.00    -0.323 OA
ATOM     29  H   UNL     1      32.695 -15.354 -19.864  0.00  0.00    +0.220 HD
ENDBRANCH  24  28
ENDBRANCH  20  24
ENDBRANCH  18  20
ENDBRANCH   1  18
TORSDOF 9
ENDMDL
MODEL 7
REMARK VINA RESULT:      -8.8      3.784      9.364
REMARK  Name = 6852147
REMARK  9 active torsions:
REMARK  status: ('A' for Active; 'I' for Inactive)
REMARK    1  A    between atoms: S_1  and  C_4
REMARK    2  A    between atoms: S_1  and  N_18
REMARK    3  A    between atoms: C_7  and  C_10
REMARK    4  A    between atoms: C_15  and  O_16
REMARK    5  A    between atoms: N_18  and  C_20
REMARK    6  A    between atoms: C_20  and  C_21
REMARK    7  A    between atoms: C_20  and  P_24
REMARK    8  A    between atoms: P_24  and  O_26
REMARK    9  A    between atoms: P_24  and  O_28
REMARK                            x       y       z     vdW  Elec       q    Type
REMARK                         _______ _______ _______ _____ _____    ______ ____
ROOT
ATOM      1  S   UNL     1      35.168 -18.635 -22.726  0.00  0.00    +0.061 S 
ATOM      2  O   UNL     1      34.149 -19.016 -23.685  0.00  0.00    -0.153 OA
ATOM      3  O   UNL     1      36.568 -18.652 -23.108  0.00  0.00    -0.153 OA
ENDROOT
BRANCH   1   4
ATOM      4  C   UNL     1      35.013 -19.695 -21.322  0.00  0.00    +0.122 C 
ATOM      5  C   UNL     1      36.156 -20.117 -20.663  0.00  0.00    +0.020 C 
ATOM      6  C   UNL     1      33.752 -20.087 -20.906  0.00  0.00    +0.020 C 
ATOM      7  C   UNL     1      34.770 -21.359 -19.122  0.00  0.00    +0.000 C 
ATOM      8  C   UNL     1      36.033 -20.954 -19.554  0.00  0.00    +0.001 C 
ATOM      9  C   UNL     1      33.629 -20.925 -19.798  0.00  0.00    +0.001 C 
BRANCH   7  10
ATOM     10  C   UNL     1      34.643 -22.227 -17.972  0.00  0.00    +0.000 C 
ATOM     11  C   UNL     1      35.720 -22.393 -17.102  0.00  0.00    +0.003 C 
ATOM     12  C   UNL     1      33.443 -22.898 -17.733  0.00  0.00    +0.003 C 
ATOM     13  C   UNL     1      35.599 -23.231 -15.993  0.00  0.00    +0.037 C 
ATOM     14  C   UNL     1      33.322 -23.735 -16.624  0.00  0.00    +0.037 C 
ATOM     15  C   UNL     1      34.400 -23.902 -15.754  0.00  0.00    +0.139 C 
BRANCH  15  16
ATOM     16  O   UNL     1      34.280 -24.719 -14.672  0.00  0.00    -0.471 OA
ATOM     17  C   UNL     1      33.227 -24.432 -13.754  0.00  0.00    +0.252 C 
ENDBRANCH  15  16
ENDBRANCH   7  10
ENDBRANCH   1   4
BRANCH   1  18
ATOM     18  N   UNL     1      34.796 -17.115 -22.064  0.00  0.00    -0.169 NA
ATOM     19  H   UNL     1      35.625 -16.537 -22.199  0.00  0.00    +0.149 HD
BRANCH  18  20
ATOM     20  C   UNL     1      33.650 -16.307 -22.529  0.00  0.00    +0.179 C 
BRANCH  20  21
ATOM     21  C   UNL     1      33.158 -15.361 -21.412  0.00  0.00    +0.028 C 
ATOM     22  C   UNL     1      32.073 -15.966 -20.517  0.00  0.00    +0.002 C 
ATOM     23  C   UNL     1      34.315 -14.850 -20.548  0.00  0.00    +0.002 C 
ENDBRANCH  20  21
BRANCH  20  24
ATOM     24  P   UNL     1      34.221 -15.480 -24.020  0.00  0.00    +0.352 P 
ATOM     25  O   UNL     1      33.851 -14.030 -24.141  0.00  0.00    -0.257 OA
BRANCH  24  26
ATOM     26  O   UNL     1      33.671 -16.416 -25.218  0.00  0.00    -0.323 OA
ATOM     27  H   UNL     1      32.724 -16.253 -25.345  0.00  0.00    +0.220 HD
ENDBRANCH  24  26
BRANCH  24  28
ATOM     28  O   UNL     1      35.810 -15.782 -24.040  0.00  0.00    -0.323 OA
ATOM     29  H   UNL     1      36.034 -16.283 -24.841  0.00  0.00    +0.220 HD
ENDBRANCH  24  28
ENDBRANCH  20  24
ENDBRANCH  18  20
ENDBRANCH   1  18
TORSDOF 9
ENDMDL
MODEL 8
REMARK VINA RESULT:      -8.8      3.837      9.141
REMARK  Name = 6852147
REMARK  9 active torsions:
REMARK  status: ('A' for Active; 'I' for Inactive)
REMARK    1  A    between atoms: S_1  and  C_4
REMARK    2  A    between atoms: S_1  and  N_18
REMARK    3  A    between atoms: C_7  and  C_10
REMARK    4  A    between atoms: C_15  and  O_16
REMARK    5  A    between atoms: N_18  and  C_20
REMARK    6  A    between atoms: C_20  and  C_21
REMARK    7  A    between atoms: C_20  and  P_24
REMARK    8  A    between atoms: P_24  and  O_26
REMARK    9  A    between atoms: P_24  and  O_28
REMARK                            x       y       z     vdW  Elec       q    Type
REMARK                         _______ _______ _______ _____ _____    ______ ____
ROOT
ATOM      1  S   UNL     1      34.950 -18.116 -23.264  0.00  0.00    +0.061 S 
ATOM      2  O   UNL     1      34.565 -18.860 -24.448  0.00  0.00    -0.153 OA
ATOM      3  O   UNL     1      36.251 -17.479 -23.198  0.00  0.00    -0.153 OA
ENDROOT
BRANCH   1   4
ATOM      4  C   UNL     1      34.849 -19.211 -21.883  0.00  0.00    +0.122 C 
ATOM      5  C   UNL     1      33.604 -19.610 -21.424  0.00  0.00    +0.020 C 
ATOM      6  C   UNL     1      36.016 -19.652 -21.281  0.00  0.00    +0.020 C 
ATOM      7  C   UNL     1      34.691 -20.927 -19.715  0.00  0.00    +0.000 C 
ATOM      8  C   UNL     1      33.525 -20.475 -20.333  0.00  0.00    +0.001 C 
ATOM      9  C   UNL     1      35.936 -20.516 -20.189  0.00  0.00    +0.001 C 
BRANCH   7  10
ATOM     10  C   UNL     1      34.608 -21.825 -18.583  0.00  0.00    +0.000 C 
ATOM     11  C   UNL     1      33.420 -22.507 -18.320  0.00  0.00    +0.003 C 
ATOM     12  C   UNL     1      35.716 -22.007 -17.755  0.00  0.00    +0.003 C 
ATOM     13  C   UNL     1      33.339 -23.372 -17.229  0.00  0.00    +0.037 C 
ATOM     14  C   UNL     1      35.635 -22.872 -16.664  0.00  0.00    +0.037 C 
ATOM     15  C   UNL     1      34.447 -23.555 -16.401  0.00  0.00    +0.139 C 
BRANCH  15  16
ATOM     16  O   UNL     1      34.369 -24.399 -15.336  0.00  0.00    -0.471 OA
ATOM     17  C   UNL     1      35.560 -25.094 -14.970  0.00  0.00    +0.252 C 
ENDBRANCH  15  16
ENDBRANCH   7  10
ENDBRANCH   1   4
BRANCH   1  18
ATOM     18  N   UNL     1      33.754 -16.968 -22.893  0.00  0.00    -0.169 NA
ATOM     19  H   UNL     1      33.313 -17.287 -22.031  0.00  0.00    +0.149 HD
BRANCH  18  20
ATOM     20  C   UNL     1      34.062 -15.537 -22.691  0.00  0.00    +0.179 C 
BRANCH  20  21
ATOM     21  C   UNL     1      33.389 -14.673 -23.778  0.00  0.00    +0.028 C 
ATOM     22  C   UNL     1      33.898 -13.230 -23.831  0.00  0.00    +0.002 C 
ATOM     23  C   UNL     1      33.502 -15.311 -25.166  0.00  0.00    +0.002 C 
ENDBRANCH  20  21
BRANCH  20  24
ATOM     24  P   UNL     1      33.546 -15.170 -21.007  0.00  0.00    +0.352 P 
ATOM     25  O   UNL     1      33.009 -13.787 -20.781  0.00  0.00    -0.257 OA
BRANCH  24  26
ATOM     26  O   UNL     1      34.841 -15.543 -20.115  0.00  0.00    -0.323 OA
ATOM     27  H   UNL     1      34.984 -16.501 -20.140  0.00  0.00    +0.220 HD
ENDBRANCH  24  26
BRANCH  24  28
ATOM     28  O   UNL     1      32.519 -16.367 -20.653  0.00  0.00    -0.323 OA
ATOM     29  H   UNL     1      32.984 -17.053 -20.148  0.00  0.00    +0.220 HD
ENDBRANCH  24  28
ENDBRANCH  20  24
ENDBRANCH  18  20
ENDBRANCH   1  18
TORSDOF 9
ENDMDL
MODEL 9
REMARK VINA RESULT:      -8.7      2.253      3.324
REMARK  Name = 6852147
REMARK  9 active torsions:
REMARK  status: ('A' for Active; 'I' for Inactive)
REMARK    1  A    between atoms: S_1  and  C_4
REMARK    2  A    between atoms: S_1  and  N_18
REMARK    3  A    between atoms: C_7  and  C_10
REMARK    4  A    between atoms: C_15  and  O_16
REMARK    5  A    between atoms: N_18  and  C_20
REMARK    6  A    between atoms: C_20  and  C_21
REMARK    7  A    between atoms: C_20  and  P_24
REMARK    8  A    between atoms: P_24  and  O_26
REMARK    9  A    between atoms: P_24  and  O_28
REMARK                            x       y       z     vdW  Elec       q    Type
REMARK                         _______ _______ _______ _____ _____    ______ ____
ROOT
ATOM      1  S   UNL     1      36.618 -23.728 -15.403  0.00  0.00    +0.061 S 
ATOM      2  O   UNL     1      37.956 -23.389 -14.957  0.00  0.00    -0.153 OA
ATOM      3  O   UNL     1      36.298 -25.095 -15.769  0.00  0.00    -0.153 OA
ENDROOT
BRANCH   1   4
ATOM      4  C   UNL     1      36.249 -22.727 -16.811  0.00  0.00    +0.122 C 
ATOM      5  C   UNL     1      37.193 -21.818 -17.260  0.00  0.00    +0.020 C 
ATOM      6  C   UNL     1      35.024 -22.868 -17.440  0.00  0.00    +0.020 C 
ATOM      7  C   UNL     1      35.672 -21.156 -19.016  0.00  0.00    +0.000 C 
ATOM      8  C   UNL     1      36.902 -21.027 -18.372  0.00  0.00    +0.001 C 
ATOM      9  C   UNL     1      34.733 -22.076 -18.551  0.00  0.00    +0.001 C 
BRANCH   7  10
ATOM     10  C   UNL     1      35.371 -20.336 -20.170  0.00  0.00    +0.000 C 
ATOM     11  C   UNL     1      36.383 -19.597 -20.783  0.00  0.00    +0.003 C 
ATOM     12  C   UNL     1      34.069 -20.284 -20.668  0.00  0.00    +0.003 C 
ATOM     13  C   UNL     1      36.094 -18.806 -21.894  0.00  0.00    +0.037 C 
ATOM     14  C   UNL     1      33.780 -19.492 -21.780  0.00  0.00    +0.037 C 
ATOM     15  C   UNL     1      34.791 -18.753 -22.393  0.00  0.00    +0.139 C 
BRANCH  15  16
ATOM     16  O   UNL     1      34.508 -17.982 -23.478  0.00  0.00    -0.471 OA
ATOM     17  C   UNL     1      34.458 -18.635 -24.745  0.00  0.00    +0.252 C 
ENDBRANCH  15  16
ENDBRANCH   7  10
ENDBRANCH   1   4
BRANCH   1  18
ATOM     18  N   UNL     1      35.478 -23.178 -14.270  0.00  0.00    -0.169 NA
ATOM     19  H   UNL     1      34.735 -22.733 -14.809  0.00  0.00    +0.149 HD
BRANCH  18  20
ATOM     20  C   UNL     1      34.807 -24.085 -13.316  0.00  0.00    +0.179 C 
BRANCH  20  21
ATOM     21  C   UNL     1      35.217 -23.754 -11.865  0.00  0.00    +0.028 C 
ATOM     22  C   UNL     1      35.239 -24.967 -10.932  0.00  0.00    +0.002 C 
ATOM     23  C   UNL     1      36.567 -23.032 -11.805  0.00  0.00    +0.002 C 
ENDBRANCH  20  21
BRANCH  20  24
ATOM     24  P   UNL     1      33.048 -23.922 -13.658  0.00  0.00    +0.352 P 
ATOM     25  O   UNL     1      32.693 -23.550 -15.068  0.00  0.00    -0.257 OA
BRANCH  24  26
ATOM     26  O   UNL     1      32.530 -22.878 -12.537  0.00  0.00    -0.323 OA
ATOM     27  H   UNL     1      32.534 -23.310 -11.669  0.00  0.00    +0.220 HD
ENDBRANCH  24  26
BRANCH  24  28
ATOM     28  O   UNL     1      32.427 -25.324 -13.145  0.00  0.00    -0.323 OA
ATOM     29  H   UNL     1      33.119 -25.843 -12.705  0.00  0.00    +0.220 HD
ENDBRANCH  24  28
ENDBRANCH  20  24
ENDBRANCH  18  20
ENDBRANCH   1  18
TORSDOF 9
ENDMDL
