MODEL 1
REMARK VINA RESULT:     -11.4      0.000      0.000
REMARK  Name = 448317
REMARK  6 active torsions:
REMARK  status: ('A' for Active; 'I' for Inactive)
REMARK    1  A    between atoms: C_1  and  C_18
REMARK    2  A    between atoms: C_4  and  N_24
REMARK    3  A    between atoms: C_5  and  S_25
REMARK    4  A    between atoms: S_25  and  C_26
REMARK    5  A    between atoms: C_27  and  O_32
REMARK    6  A    between atoms: O_32  and  C_33
REMARK                            x       y       z     vdW  Elec       q    Type
REMARK                         _______ _______ _______ _____ _____    ______ ____
ROOT
ATOM      1  C   UNL     1      33.997 -20.974 -19.652  0.00  0.00    +0.002 C 
ATOM      2  C   UNL     1      35.307 -20.573 -19.914  0.00  0.00    +0.025 C 
ATOM      3  C   UNL     1      32.954 -20.515 -20.456  0.00  0.00    +0.001 C 
ATOM      4  C   UNL     1      35.575 -19.714 -20.980  0.00  0.00    +0.149 C 
ATOM      5  C   UNL     1      34.532 -19.255 -21.784  0.00  0.00    +0.052 C 
ATOM      6  C   UNL     1      33.221 -19.656 -21.523  0.00  0.00    +0.008 C 
ENDROOT
BRANCH   1  18
ATOM      7  O   UNL     1      38.858 -23.903 -12.346  0.00  0.00    -0.275 OA
ATOM      8  N   UNL     1      35.532 -23.681 -15.897  0.00  0.00    -0.290 N 
ATOM      9  N   UNL     1      37.594 -24.553 -14.180  0.00  0.00    -0.276 N 
ATOM     10  N   UNL     1      33.182 -23.586 -16.411  0.00  0.00    -0.229 NA
ATOM     11  C   UNL     1      35.428 -25.001 -15.260  0.00  0.00    +0.114 C 
ATOM     12  C   UNL     1      36.355 -22.687 -15.191  0.00  0.00    +0.114 C 
ATOM     13  C   UNL     1      36.817 -25.545 -14.928  0.00  0.00    +0.115 C 
ATOM     14  C   UNL     1      37.728 -23.269 -14.863  0.00  0.00    +0.115 C 
ATOM     15  C   UNL     1      34.475 -23.209 -16.684  0.00  0.00    +0.132 C 
ATOM     16  C   UNL     1      38.195 -24.756 -12.941  0.00  0.00    +0.226 C 
ATOM     17  C   UNL     1      34.759 -22.343 -17.757  0.00  0.00    +0.034 C 
ATOM     18  C   UNL     1      33.720 -21.865 -18.547  0.00  0.00    +0.004 C 
ATOM     19  C   UNL     1      38.000 -26.112 -12.311  0.00  0.00    +0.095 C 
ATOM     20  C   UNL     1      32.412 -22.246 -18.271  0.00  0.00    +0.021 C 
ATOM     21  C   UNL     1      32.198 -23.102 -17.202  0.00  0.00    +0.100 C 
ENDBRANCH   1  18
BRANCH   4  24
ATOM     22  O   UNL     1      37.191 -18.611 -22.200  0.00  0.00    -0.126 OA
ATOM     23  O   UNL     1      37.810 -19.725 -20.411  0.00  0.00    -0.126 OA
ATOM     24  N   UNL     1      36.928 -19.331 -21.209  0.00  0.00    +0.058 N 
ENDBRANCH   4  24
BRANCH   5  25
ATOM     25  S   UNL     1      34.806 -18.151 -23.168  0.00  0.00    -0.082 S 
BRANCH  25  26
ATOM     26  C   UNL     1      34.449 -16.571 -22.418  0.00  0.00    +0.063 C 
ATOM     27  C   UNL     1      33.971 -15.498 -23.172  0.00  0.00    +0.144 C 
ATOM     28  C   UNL     1      34.659 -16.417 -21.045  0.00  0.00    +0.010 C 
ATOM     29  C   UNL     1      33.703 -14.276 -22.557  0.00  0.00    +0.037 C 
ATOM     30  C   UNL     1      34.390 -15.194 -20.431  0.00  0.00    +0.001 C 
ATOM     31  C   UNL     1      33.913 -14.123 -21.186  0.00  0.00    +0.003 C 
BRANCH  27  32
ATOM     32  O   UNL     1      33.753 -15.611 -24.513  0.00  0.00    -0.475 OA
BRANCH  32  33
ATOM     33  C   UNL     1      33.071 -14.533 -25.151  0.00  0.00    +0.206 C 
ATOM     34  C   UNL     1      33.066 -14.770 -26.646  0.00  0.00    +0.051 C 
ENDBRANCH  32  33
ENDBRANCH  27  32
ENDBRANCH  25  26
ENDBRANCH   5  25
TORSDOF 6
ENDMDL
MODEL 2
REMARK VINA RESULT:     -10.8      6.358     10.869
REMARK  Name = 448317
REMARK  6 active torsions:
REMARK  status: ('A' for Active; 'I' for Inactive)
REMARK    1  A    between atoms: C_1  and  C_18
REMARK    2  A    between atoms: C_4  and  N_24
REMARK    3  A    between atoms: C_5  and  S_25
REMARK    4  A    between atoms: S_25  and  C_26
REMARK    5  A    between atoms: C_27  and  O_32
REMARK    6  A    between atoms: O_32  and  C_33
REMARK                            x       y       z     vdW  Elec       q    Type
REMARK                         _______ _______ _______ _____ _____    ______ ____
ROOT
ATOM      1  C   UNL     1      33.778 -11.497 -24.328  0.00  0.00    +0.002 C 
ATOM      2  C   UNL     1      32.797 -10.965 -23.492  0.00  0.00    +0.025 C 
ATOM      3  C   UNL     1      34.840 -10.698 -24.752  0.00  0.00    +0.001 C 
ATOM      4  C   UNL     1      32.878  -9.635 -23.077  0.00  0.00    +0.149 C 
ATOM      5  C   UNL     1      33.940  -8.837 -23.501  0.00  0.00    +0.052 C 
ATOM      6  C   UNL     1      34.923  -9.368 -24.339  0.00  0.00    +0.008 C 
ENDROOT
BRANCH   1  18
ATOM      7  O   UNL     1      34.229 -19.651 -19.980  0.00  0.00    -0.275 OA
ATOM      8  N   UNL     1      34.416 -16.254 -23.467  0.00  0.00    -0.290 N 
ATOM      9  N   UNL     1      35.078 -18.365 -21.716  0.00  0.00    -0.276 N 
ATOM     10  N   UNL     1      33.532 -15.539 -25.589  0.00  0.00    -0.229 NA
ATOM     11  C   UNL     1      34.966 -17.501 -24.018  0.00  0.00    +0.114 C 
ATOM     12  C   UNL     1      33.716 -16.372 -22.178  0.00  0.00    +0.114 C 
ATOM     13  C   UNL     1      35.818 -18.217 -22.971  0.00  0.00    +0.115 C 
ATOM     14  C   UNL     1      34.592 -17.104 -21.163  0.00  0.00    +0.115 C 
ATOM     15  C   UNL     1      34.009 -15.235 -24.336  0.00  0.00    +0.132 C 
ATOM     16  C   UNL     1      34.842 -19.563 -21.047  0.00  0.00    +0.226 C 
ATOM     17  C   UNL     1      34.096 -13.898 -23.906  0.00  0.00    +0.034 C 
ATOM     18  C   UNL     1      33.694 -12.875 -24.758  0.00  0.00    +0.004 C 
ATOM     19  C   UNL     1      35.380 -20.814 -21.694  0.00  0.00    +0.095 C 
ATOM     20  C   UNL     1      33.212 -13.183 -26.025  0.00  0.00    +0.021 C 
ATOM     21  C   UNL     1      33.152 -14.518 -26.390  0.00  0.00    +0.100 C 
ENDBRANCH   1  18
BRANCH   4  24
ATOM     22  O   UNL     1      32.033  -9.165 -20.984  0.00  0.00    -0.126 OA
ATOM     23  O   UNL     1      30.807  -8.679 -22.741  0.00  0.00    -0.126 OA
ATOM     24  N   UNL     1      31.854  -9.134 -22.224  0.00  0.00    +0.058 N 
ENDBRANCH   4  24
BRANCH   5  25
ATOM     25  S   UNL     1      34.105  -7.123 -23.008  0.00  0.00    -0.082 S 
BRANCH  25  26
ATOM     26  C   UNL     1      33.716  -6.289 -24.538  0.00  0.00    +0.063 C 
ATOM     27  C   UNL     1      32.439  -5.782 -24.785  0.00  0.00    +0.144 C 
ATOM     28  C   UNL     1      34.719  -6.150 -25.500  0.00  0.00    +0.010 C 
ATOM     29  C   UNL     1      32.166  -5.136 -25.991  0.00  0.00    +0.037 C 
ATOM     30  C   UNL     1      34.444  -5.504 -26.706  0.00  0.00    +0.001 C 
ATOM     31  C   UNL     1      33.169  -4.997 -26.952  0.00  0.00    +0.003 C 
BRANCH  27  32
ATOM     32  O   UNL     1      31.436  -5.897 -23.870  0.00  0.00    -0.475 OA
BRANCH  32  33
ATOM     33  C   UNL     1      31.168  -4.758 -23.056  0.00  0.00    +0.206 C 
ATOM     34  C   UNL     1      30.428  -5.203 -21.812  0.00  0.00    +0.051 C 
ENDBRANCH  32  33
ENDBRANCH  27  32
ENDBRANCH  25  26
ENDBRANCH   5  25
TORSDOF 6
ENDMDL
MODEL 3
REMARK VINA RESULT:     -10.3      6.099     12.548
REMARK  Name = 448317
REMARK  6 active torsions:
REMARK  status: ('A' for Active; 'I' for Inactive)
REMARK    1  A    between atoms: C_1  and  C_18
REMARK    2  A    between atoms: C_4  and  N_24
REMARK    3  A    between atoms: C_5  and  S_25
REMARK    4  A    between atoms: S_25  and  C_26
REMARK    5  A    between atoms: C_27  and  O_32
REMARK    6  A    between atoms: O_32  and  C_33
REMARK                            x       y       z     vdW  Elec       q    Type
REMARK                         _______ _______ _______ _____ _____    ______ ____
ROOT
ATOM      1  C   UNL     1      32.913 -13.892 -22.063  0.00  0.00    +0.002 C 
ATOM      2  C   UNL     1      32.913 -13.959 -23.456  0.00  0.00    +0.025 C 
ATOM      3  C   UNL     1      33.379 -14.972 -21.313  0.00  0.00    +0.001 C 
ATOM      4  C   UNL     1      33.380 -15.105 -24.100  0.00  0.00    +0.149 C 
ATOM      5  C   UNL     1      33.846 -16.185 -23.350  0.00  0.00    +0.052 C 
ATOM      6  C   UNL     1      33.847 -16.119 -21.956  0.00  0.00    +0.008 C 
ENDROOT
BRANCH   1  18
ATOM      7  O   UNL     1      30.614  -5.386 -24.884  0.00  0.00    -0.275 OA
ATOM      8  N   UNL     1      32.009  -9.100 -22.057  0.00  0.00    -0.290 N 
ATOM      9  N   UNL     1      31.902  -6.620 -23.399  0.00  0.00    -0.276 N 
ATOM     10  N   UNL     1      31.493 -10.409 -20.103  0.00  0.00    -0.229 NA
ATOM     11  C   UNL     1      32.173  -7.858 -21.289  0.00  0.00    +0.114 C 
ATOM     12  C   UNL     1      31.246  -8.987 -23.310  0.00  0.00    +0.114 C 
ATOM     13  C   UNL     1      32.712  -6.743 -22.185  0.00  0.00    +0.115 C 
ATOM     14  C   UNL     1      31.802  -7.856 -24.171  0.00  0.00    +0.115 C 
ATOM     15  C   UNL     1      31.979 -10.328 -21.387  0.00  0.00    +0.132 C 
ATOM     16  C   UNL     1      31.275  -5.460 -23.846  0.00  0.00    +0.226 C 
ATOM     17  C   UNL     1      32.453 -11.477 -22.048  0.00  0.00    +0.034 C 
ATOM     18  C   UNL     1      32.429 -12.704 -21.395  0.00  0.00    +0.004 C 
ATOM     19  C   UNL     1      31.431  -4.234 -22.981  0.00  0.00    +0.095 C 
ATOM     20  C   UNL     1      31.938 -12.785 -20.097  0.00  0.00    +0.021 C 
ATOM     21  C   UNL     1      31.487 -11.619 -19.500  0.00  0.00    +0.100 C 
ENDBRANCH   1  18
BRANCH   4  24
ATOM     22  O   UNL     1      32.567 -14.374 -26.130  0.00  0.00    -0.126 OA
ATOM     23  O   UNL     1      34.141 -15.906 -26.124  0.00  0.00    -0.126 OA
ATOM     24  N   UNL     1      33.361 -15.130 -25.524  0.00  0.00    +0.058 N 
ENDBRANCH   4  24
BRANCH   5  25
ATOM     25  S   UNL     1      34.459 -17.686 -24.112  0.00  0.00    -0.082 S 
BRANCH  25  26
ATOM     26  C   UNL     1      35.376 -18.405 -22.760  0.00  0.00    +0.063 C 
ATOM     27  C   UNL     1      34.758 -19.226 -21.817  0.00  0.00    +0.144 C 
ATOM     28  C   UNL     1      36.742 -18.129 -22.654  0.00  0.00    +0.010 C 
ATOM     29  C   UNL     1      35.501 -19.772 -20.771  0.00  0.00    +0.037 C 
ATOM     30  C   UNL     1      37.485 -18.676 -21.607  0.00  0.00    +0.001 C 
ATOM     31  C   UNL     1      36.865 -19.497 -20.665  0.00  0.00    +0.003 C 
BRANCH  27  32
ATOM     32  O   UNL     1      33.428 -19.519 -21.888  0.00  0.00    -0.475 OA
BRANCH  32  33
ATOM     33  C   UNL     1      32.713 -19.592 -20.657  0.00  0.00    +0.206 C 
ATOM     34  C   UNL     1      32.791 -21.006 -20.124  0.00  0.00    +0.051 C 
ENDBRANCH  32  33
ENDBRANCH  27  32
ENDBRANCH  25  26
ENDBRANCH   5  25
TORSDOF 6
ENDMDL
MODEL 4
REMARK VINA RESULT:      -9.7      4.488      8.190
REMARK  Name = 448317
REMARK  6 active torsions:
REMARK  status: ('A' for Active; 'I' for Inactive)
REMARK    1  A    between atoms: C_1  and  C_18
REMARK    2  A    between atoms: C_4  and  N_24
REMARK    3  A    between atoms: C_5  and  S_25
REMARK    4  A    between atoms: S_25  and  C_26
REMARK    5  A    between atoms: C_27  and  O_32
REMARK    6  A    between atoms: O_32  and  C_33
REMARK                            x       y       z     vdW  Elec       q    Type
REMARK                         _______ _______ _______ _____ _____    ______ ____
ROOT
ATOM      1  C   UNL     1      33.602 -14.384 -23.757  0.00  0.00    +0.002 C 
ATOM      2  C   UNL     1      34.240 -13.356 -24.451  0.00  0.00    +0.025 C 
ATOM      3  C   UNL     1      32.537 -14.094 -22.905  0.00  0.00    +0.001 C 
ATOM      4  C   UNL     1      33.812 -12.038 -24.295  0.00  0.00    +0.149 C 
ATOM      5  C   UNL     1      32.747 -11.747 -23.443  0.00  0.00    +0.052 C 
ATOM      6  C   UNL     1      32.108 -12.775 -22.748  0.00  0.00    +0.008 C 
ENDROOT
BRANCH   1  18
ATOM      7  O   UNL     1      32.469 -22.157 -18.869  0.00  0.00    -0.275 OA
ATOM      8  N   UNL     1      34.305 -18.857 -21.947  0.00  0.00    -0.290 N 
ATOM      9  N   UNL     1      34.013 -20.736 -19.862  0.00  0.00    -0.276 N 
ATOM     10  N   UNL     1      34.904 -18.393 -24.232  0.00  0.00    -0.229 NA
ATOM     11  C   UNL     1      35.277 -19.953 -21.823  0.00  0.00    +0.114 C 
ATOM     12  C   UNL     1      32.969 -19.114 -21.385  0.00  0.00    +0.114 C 
ATOM     13  C   UNL     1      35.351 -20.440 -20.377  0.00  0.00    +0.115 C 
ATOM     14  C   UNL     1      33.084 -19.612 -19.946  0.00  0.00    +0.115 C 
ATOM     15  C   UNL     1      34.397 -17.971 -23.026  0.00  0.00    +0.132 C 
ATOM     16  C   UNL     1      33.602 -21.947 -19.310  0.00  0.00    +0.226 C 
ATOM     17  C   UNL     1      33.962 -16.643 -22.855  0.00  0.00    +0.034 C 
ATOM     18  C   UNL     1      34.046 -15.751 -23.919  0.00  0.00    +0.004 C 
ATOM     19  C   UNL     1      34.628 -23.051 -19.268  0.00  0.00    +0.095 C 
ATOM     20  C   UNL     1      34.559 -16.179 -25.138  0.00  0.00    +0.021 C 
ATOM     21  C   UNL     1      34.971 -17.497 -25.242  0.00  0.00    +0.100 C 
ENDBRANCH   1  18
BRANCH   4  24
ATOM     22  O   UNL     1      34.583 -11.126 -26.268  0.00  0.00    -0.126 OA
ATOM     23  O   UNL     1      34.981 -10.053 -24.394  0.00  0.00    -0.126 OA
ATOM     24  N   UNL     1      34.494 -11.021 -25.023  0.00  0.00    +0.058 N 
ENDBRANCH   4  24
BRANCH   5  25
ATOM     25  S   UNL     1      32.147 -10.077 -23.196  0.00  0.00    -0.082 S 
BRANCH  25  26
ATOM     26  C   UNL     1      31.914 -10.057 -21.427  0.00  0.00    +0.063 C 
ATOM     27  C   UNL     1      32.286  -8.955 -20.656  0.00  0.00    +0.144 C 
ATOM     28  C   UNL     1      31.347 -11.177 -20.812  0.00  0.00    +0.010 C 
ATOM     29  C   UNL     1      32.091  -8.970 -19.275  0.00  0.00    +0.037 C 
ATOM     30  C   UNL     1      31.153 -11.191 -19.431  0.00  0.00    +0.001 C 
ATOM     31  C   UNL     1      31.525 -10.089 -18.661  0.00  0.00    +0.003 C 
BRANCH  27  32
ATOM     32  O   UNL     1      32.840  -7.844 -21.220  0.00  0.00    -0.475 OA
BRANCH  32  33
ATOM     33  C   UNL     1      32.136  -6.615 -21.058  0.00  0.00    +0.206 C 
ATOM     34  C   UNL     1      31.217  -6.413 -22.243  0.00  0.00    +0.051 C 
ENDBRANCH  32  33
ENDBRANCH  27  32
ENDBRANCH  25  26
ENDBRANCH   5  25
TORSDOF 6
ENDMDL
MODEL 5
REMARK VINA RESULT:      -9.7      6.402     10.824
REMARK  Name = 448317
REMARK  6 active torsions:
REMARK  status: ('A' for Active; 'I' for Inactive)
REMARK    1  A    between atoms: C_1  and  C_18
REMARK    2  A    between atoms: C_4  and  N_24
REMARK    3  A    between atoms: C_5  and  S_25
REMARK    4  A    between atoms: S_25  and  C_26
REMARK    5  A    between atoms: C_27  and  O_32
REMARK    6  A    between atoms: O_32  and  C_33
REMARK                            x       y       z     vdW  Elec       q    Type
REMARK                         _______ _______ _______ _____ _____    ______ ____
ROOT
ATOM      1  C   UNL     1      33.891 -11.432 -24.457  0.00  0.00    +0.002 C 
ATOM      2  C   UNL     1      33.120 -10.872 -23.439  0.00  0.00    +0.025 C 
ATOM      3  C   UNL     1      34.862 -10.663 -25.099  0.00  0.00    +0.001 C 
ATOM      4  C   UNL     1      33.320  -9.543 -23.061  0.00  0.00    +0.149 C 
ATOM      5  C   UNL     1      34.290  -8.775 -23.704  0.00  0.00    +0.052 C 
ATOM      6  C   UNL     1      35.063  -9.334 -24.722  0.00  0.00    +0.008 C 
ENDROOT
BRANCH   1  18
ATOM      7  O   UNL     1      34.290 -19.536 -20.011  0.00  0.00    -0.275 OA
ATOM      8  N   UNL     1      34.330 -16.206 -23.567  0.00  0.00    -0.290 N 
ATOM      9  N   UNL     1      35.038 -18.328 -21.847  0.00  0.00    -0.276 N 
ATOM     10  N   UNL     1      33.284 -15.469 -25.606  0.00  0.00    -0.229 NA
ATOM     11  C   UNL     1      34.748 -17.491 -24.144  0.00  0.00    +0.114 C 
ATOM     12  C   UNL     1      33.756 -16.263 -22.213  0.00  0.00    +0.114 C 
ATOM     13  C   UNL     1      35.657 -18.243 -23.172  0.00  0.00    +0.115 C 
ATOM     14  C   UNL     1      34.683 -17.032 -21.275  0.00  0.00    +0.115 C 
ATOM     15  C   UNL     1      33.900 -15.177 -24.412  0.00  0.00    +0.132 C 
ATOM     16  C   UNL     1      34.799 -19.500 -21.134  0.00  0.00    +0.226 C 
ATOM     17  C   UNL     1      34.107 -13.842 -24.019  0.00  0.00    +0.034 C 
ATOM     18  C   UNL     1      33.684 -12.808 -24.848  0.00  0.00    +0.004 C 
ATOM     19  C   UNL     1      35.195 -20.791 -21.806  0.00  0.00    +0.095 C 
ATOM     20  C   UNL     1      33.061 -13.104 -26.056  0.00  0.00    +0.021 C 
ATOM     21  C   UNL     1      32.887 -14.438 -26.386  0.00  0.00    +0.100 C 
ENDBRANCH   1  18
BRANCH   4  24
ATOM     22  O   UNL     1      31.263  -9.055 -22.140  0.00  0.00    -0.126 OA
ATOM     23  O   UNL     1      33.069  -8.523 -21.009  0.00  0.00    -0.126 OA
ATOM     24  N   UNL     1      32.509  -9.013 -22.017  0.00  0.00    +0.058 N 
ENDBRANCH   4  24
BRANCH   5  25
ATOM     25  S   UNL     1      34.599  -7.065 -23.269  0.00  0.00    -0.082 S 
BRANCH  25  26
ATOM     26  C   UNL     1      33.193  -6.264 -24.023  0.00  0.00    +0.063 C 
ATOM     27  C   UNL     1      33.251  -5.765 -25.325  0.00  0.00    +0.144 C 
ATOM     28  C   UNL     1      32.015  -6.138 -23.282  0.00  0.00    +0.010 C 
ATOM     29  C   UNL     1      32.135  -5.143 -25.885  0.00  0.00    +0.037 C 
ATOM     30  C   UNL     1      30.899  -5.516 -23.843  0.00  0.00    +0.001 C 
ATOM     31  C   UNL     1      30.959  -5.018 -25.145  0.00  0.00    +0.003 C 
BRANCH  27  32
ATOM     32  O   UNL     1      34.382  -5.870 -26.079  0.00  0.00    -0.475 OA
BRANCH  32  33
ATOM     33  C   UNL     1      34.569  -4.898 -27.105  0.00  0.00    +0.206 C 
ATOM     34  C   UNL     1      36.041  -4.821 -27.448  0.00  0.00    +0.051 C 
ENDBRANCH  32  33
ENDBRANCH  27  32
ENDBRANCH  25  26
ENDBRANCH   5  25
TORSDOF 6
ENDMDL
MODEL 6
REMARK VINA RESULT:      -9.5      5.149      8.812
REMARK  Name = 448317
REMARK  6 active torsions:
REMARK  status: ('A' for Active; 'I' for Inactive)
REMARK    1  A    between atoms: C_1  and  C_18
REMARK    2  A    between atoms: C_4  and  N_24
REMARK    3  A    between atoms: C_5  and  S_25
REMARK    4  A    between atoms: S_25  and  C_26
REMARK    5  A    between atoms: C_27  and  O_32
REMARK    6  A    between atoms: O_32  and  C_33
REMARK                            x       y       z     vdW  Elec       q    Type
REMARK                         _______ _______ _______ _____ _____    ______ ____
ROOT
ATOM      1  C   UNL     1      33.276 -13.702 -23.428  0.00  0.00    +0.002 C 
ATOM      2  C   UNL     1      32.617 -13.465 -22.222  0.00  0.00    +0.025 C 
ATOM      3  C   UNL     1      33.377 -12.686 -24.378  0.00  0.00    +0.001 C 
ATOM      4  C   UNL     1      32.062 -12.212 -21.963  0.00  0.00    +0.149 C 
ATOM      5  C   UNL     1      32.163 -11.195 -22.913  0.00  0.00    +0.052 C 
ATOM      6  C   UNL     1      32.822 -11.432 -24.121  0.00  0.00    +0.008 C 
ENDROOT
BRANCH   1  18
ATOM      7  O   UNL     1      32.707 -21.981 -19.338  0.00  0.00    -0.275 OA
ATOM      8  N   UNL     1      34.331 -18.247 -22.011  0.00  0.00    -0.290 N 
ATOM      9  N   UNL     1      34.144 -20.337 -20.125  0.00  0.00    -0.276 N 
ATOM     10  N   UNL     1      34.965 -17.512 -24.214  0.00  0.00    -0.229 NA
ATOM     11  C   UNL     1      35.397 -19.257 -21.947  0.00  0.00    +0.114 C 
ATOM     12  C   UNL     1      33.007 -18.676 -21.535  0.00  0.00    +0.114 C 
ATOM     13  C   UNL     1      35.466 -19.873 -20.550  0.00  0.00    +0.115 C 
ATOM     14  C   UNL     1      33.117 -19.298 -20.145  0.00  0.00    +0.115 C 
ATOM     15  C   UNL     1      34.378 -17.256 -22.999  0.00  0.00    +0.132 C 
ATOM     16  C   UNL     1      33.829 -21.627 -19.707  0.00  0.00    +0.226 C 
ATOM     17  C   UNL     1      33.814 -15.996 -22.725  0.00  0.00    +0.034 C 
ATOM     18  C   UNL     1      33.851 -15.001 -23.696  0.00  0.00    +0.004 C 
ATOM     19  C   UNL     1      34.952 -22.633 -19.721  0.00  0.00    +0.095 C 
ATOM     20  C   UNL     1      34.445 -15.261 -24.926  0.00  0.00    +0.021 C 
ATOM     21  C   UNL     1      34.983 -16.521 -25.134  0.00  0.00    +0.100 C 
ENDBRANCH   1  18
BRANCH   4  24
ATOM     22  O   UNL     1      31.985 -12.348 -19.663  0.00  0.00    -0.126 OA
ATOM     23  O   UNL     1      30.250 -11.514 -20.720  0.00  0.00    -0.126 OA
ATOM     24  N   UNL     1      31.399 -12.015 -20.719  0.00  0.00    +0.058 N 
ENDBRANCH   4  24
BRANCH   5  25
ATOM     25  S   UNL     1      31.473  -9.564 -22.646  0.00  0.00    -0.082 S 
BRANCH  25  26
ATOM     26  C   UNL     1      32.726  -8.538 -23.397  0.00  0.00    +0.063 C 
ATOM     27  C   UNL     1      32.412  -7.300 -23.959  0.00  0.00    +0.144 C 
ATOM     28  C   UNL     1      34.045  -8.996 -23.417  0.00  0.00    +0.010 C 
ATOM     29  C   UNL     1      33.413  -6.521 -24.539  0.00  0.00    +0.037 C 
ATOM     30  C   UNL     1      35.047  -8.217 -23.998  0.00  0.00    +0.001 C 
ATOM     31  C   UNL     1      34.731  -6.980 -24.559  0.00  0.00    +0.003 C 
BRANCH  27  32
ATOM     32  O   UNL     1      31.136  -6.818 -23.956  0.00  0.00    -0.475 OA
BRANCH  32  33
ATOM     33  C   UNL     1      30.932  -5.528 -23.386  0.00  0.00    +0.206 C 
ATOM     34  C   UNL     1      30.981  -5.643 -21.877  0.00  0.00    +0.051 C 
ENDBRANCH  32  33
ENDBRANCH  27  32
ENDBRANCH  25  26
ENDBRANCH   5  25
TORSDOF 6
ENDMDL
MODEL 7
REMARK VINA RESULT:      -9.3      3.215     10.294
REMARK  Name = 448317
REMARK  6 active torsions:
REMARK  status: ('A' for Active; 'I' for Inactive)
REMARK    1  A    between atoms: C_1  and  C_18
REMARK    2  A    between atoms: C_4  and  N_24
REMARK    3  A    between atoms: C_5  and  S_25
REMARK    4  A    between atoms: S_25  and  C_26
REMARK    5  A    between atoms: C_27  and  O_32
REMARK    6  A    between atoms: O_32  and  C_33
REMARK                            x       y       z     vdW  Elec       q    Type
REMARK                         _______ _______ _______ _____ _____    ______ ____
ROOT
ATOM      1  C   UNL     1      34.772 -20.404 -20.142  0.00  0.00    +0.002 C 
ATOM      2  C   UNL     1      35.684 -20.791 -19.161  0.00  0.00    +0.025 C 
ATOM      3  C   UNL     1      33.585 -21.118 -20.310  0.00  0.00    +0.001 C 
ATOM      4  C   UNL     1      35.411 -21.890 -18.346  0.00  0.00    +0.149 C 
ATOM      5  C   UNL     1      34.225 -22.604 -18.515  0.00  0.00    +0.052 C 
ATOM      6  C   UNL     1      33.311 -22.218 -19.496  0.00  0.00    +0.008 C 
ENDROOT
BRANCH   1  18
ATOM      7  O   UNL     1      32.006 -11.576 -20.211  0.00  0.00    -0.275 OA
ATOM      8  N   UNL     1      33.725 -15.894 -21.671  0.00  0.00    -0.290 N 
ATOM      9  N   UNL     1      32.215 -13.519 -21.463  0.00  0.00    -0.276 N 
ATOM     10  N   UNL     1      35.603 -17.064 -22.619  0.00  0.00    -0.229 NA
ATOM     11  C   UNL     1      33.535 -15.054 -22.862  0.00  0.00    +0.114 C 
ATOM     12  C   UNL     1      33.637 -15.203 -20.374  0.00  0.00    +0.114 C 
ATOM     13  C   UNL     1      32.250 -14.235 -22.739  0.00  0.00    +0.115 C 
ATOM     14  C   UNL     1      32.350 -14.385 -20.294  0.00  0.00    +0.115 C 
ATOM     15  C   UNL     1      34.540 -17.029 -21.749  0.00  0.00    +0.132 C 
ATOM     16  C   UNL     1      32.049 -12.146 -21.303  0.00  0.00    +0.226 C 
ATOM     17  C   UNL     1      34.253 -18.131 -20.921  0.00  0.00    +0.034 C 
ATOM     18  C   UNL     1      35.055 -19.265 -20.986  0.00  0.00    +0.004 C 
ATOM     19  C   UNL     1      31.921 -11.332 -22.566  0.00  0.00    +0.095 C 
ATOM     20  C   UNL     1      36.130 -19.300 -21.867  0.00  0.00    +0.021 C 
ATOM     21  C   UNL     1      36.359 -18.184 -22.655  0.00  0.00    +0.100 C 
ENDBRANCH   1  18
BRANCH   4  24
ATOM     22  O   UNL     1      36.178 -23.280 -16.674  0.00  0.00    -0.126 OA
ATOM     23  O   UNL     1      37.381 -21.521 -17.206  0.00  0.00    -0.126 OA
ATOM     24  N   UNL     1      36.372 -22.249 -17.358  0.00  0.00    +0.058 N 
ENDBRANCH   4  24
BRANCH   5  25
ATOM     25  S   UNL     1      33.811 -24.024 -17.504  0.00  0.00    -0.082 S 
BRANCH  25  26
ATOM     26  C   UNL     1      32.498 -23.355 -16.497  0.00  0.00    +0.063 C 
ATOM     27  C   UNL     1      32.670 -23.131 -15.130  0.00  0.00    +0.144 C 
ATOM     28  C   UNL     1      31.276 -23.054 -17.103  0.00  0.00    +0.010 C 
ATOM     29  C   UNL     1      31.625 -22.608 -14.371  0.00  0.00    +0.037 C 
ATOM     30  C   UNL     1      30.230 -22.530 -16.342  0.00  0.00    +0.001 C 
ATOM     31  C   UNL     1      30.404 -22.307 -14.976  0.00  0.00    +0.003 C 
BRANCH  27  32
ATOM     32  O   UNL     1      33.849 -23.411 -14.505  0.00  0.00    -0.475 OA
BRANCH  32  33
ATOM     33  C   UNL     1      33.787 -24.231 -13.340  0.00  0.00    +0.206 C 
ATOM     34  C   UNL     1      35.065 -24.060 -12.548  0.00  0.00    +0.051 C 
ENDBRANCH  32  33
ENDBRANCH  27  32
ENDBRANCH  25  26
ENDBRANCH   5  25
TORSDOF 6
ENDMDL
MODEL 8
REMARK VINA RESULT:      -9.2      3.113     10.220
REMARK  Name = 448317
REMARK  6 active torsions:
REMARK  status: ('A' for Active; 'I' for Inactive)
REMARK    1  A    between atoms: C_1  and  C_18
REMARK    2  A    between atoms: C_4  and  N_24
REMARK    3  A    between atoms: C_5  and  S_25
REMARK    4  A    between atoms: S_25  and  C_26
REMARK    5  A    between atoms: C_27  and  O_32
REMARK    6  A    between atoms: O_32  and  C_33
REMARK                            x       y       z     vdW  Elec       q    Type
REMARK                         _______ _______ _______ _____ _____    ______ ____
ROOT
ATOM      1  C   UNL     1      35.142 -21.222 -19.368  0.00  0.00    +0.002 C 
ATOM      2  C   UNL     1      35.776 -21.589 -18.181  0.00  0.00    +0.025 C 
ATOM      3  C   UNL     1      33.952 -21.845 -19.744  0.00  0.00    +0.001 C 
ATOM      4  C   UNL     1      35.219 -22.577 -17.368  0.00  0.00    +0.149 C 
ATOM      5  C   UNL     1      34.029 -23.200 -17.744  0.00  0.00    +0.052 C 
ATOM      6  C   UNL     1      33.395 -22.834 -18.932  0.00  0.00    +0.008 C 
ENDROOT
BRANCH   1  18
ATOM      7  O   UNL     1      32.397 -12.828 -22.123  0.00  0.00    -0.275 OA
ATOM      8  N   UNL     1      34.697 -17.119 -21.964  0.00  0.00    -0.290 N 
ATOM      9  N   UNL     1      33.169 -14.905 -22.815  0.00  0.00    -0.276 N 
ATOM     10  N   UNL     1      36.834 -18.220 -21.841  0.00  0.00    -0.229 NA
ATOM     11  C   UNL     1      34.999 -16.489 -23.257  0.00  0.00    +0.114 C 
ATOM     12  C   UNL     1      34.054 -16.256 -20.961  0.00  0.00    +0.114 C 
ATOM     13  C   UNL     1      33.758 -15.795 -23.817  0.00  0.00    +0.115 C 
ATOM     14  C   UNL     1      32.828 -15.569 -21.560  0.00  0.00    +0.115 C 
ATOM     15  C   UNL     1      35.504 -18.164 -21.500  0.00  0.00    +0.132 C 
ATOM     16  C   UNL     1      32.910 -13.547 -22.983  0.00  0.00    +0.226 C 
ATOM     17  C   UNL     1      34.930 -19.154 -20.681  0.00  0.00    +0.034 C 
ATOM     18  C   UNL     1      35.719 -20.199 -20.211  0.00  0.00    +0.004 C 
ATOM     19  C   UNL     1      33.299 -12.947 -24.311  0.00  0.00    +0.095 C 
ATOM     20  C   UNL     1      37.065 -20.255 -20.555  0.00  0.00    +0.021 C 
ATOM     21  C   UNL     1      37.570 -19.251 -21.366  0.00  0.00    +0.100 C 
ENDBRANCH   1  18
BRANCH   4  24
ATOM     22  O   UNL     1      36.395 -24.065 -16.056  0.00  0.00    -0.126 OA
ATOM     23  O   UNL     1      35.986 -22.061 -15.255  0.00  0.00    -0.126 OA
ATOM     24  N   UNL     1      35.901 -22.919 -16.165  0.00  0.00    +0.058 N 
ENDBRANCH   4  24
BRANCH   5  25
ATOM     25  S   UNL     1      33.261 -24.475 -16.748  0.00  0.00    -0.082 S 
BRANCH  25  26
ATOM     26  C   UNL     1      31.887 -23.577 -16.046  0.00  0.00    +0.063 C 
ATOM     27  C   UNL     1      31.973 -22.983 -14.786  0.00  0.00    +0.144 C 
ATOM     28  C   UNL     1      30.706 -23.475 -16.784  0.00  0.00    +0.010 C 
ATOM     29  C   UNL     1      30.881 -22.289 -14.265  0.00  0.00    +0.037 C 
ATOM     30  C   UNL     1      29.614 -22.781 -16.263  0.00  0.00    +0.001 C 
ATOM     31  C   UNL     1      29.701 -22.188 -15.003  0.00  0.00    +0.003 C 
BRANCH  27  32
ATOM     32  O   UNL     1      33.110 -23.059 -14.038  0.00  0.00    -0.475 OA
BRANCH  32  33
ATOM     33  C   UNL     1      33.359 -24.289 -13.361  0.00  0.00    +0.206 C 
ATOM     34  C   UNL     1      34.777 -24.283 -12.833  0.00  0.00    +0.051 C 
ENDBRANCH  32  33
ENDBRANCH  27  32
ENDBRANCH  25  26
ENDBRANCH   5  25
TORSDOF 6
ENDMDL
MODEL 9
REMARK VINA RESULT:      -9.1      3.210      4.216
REMARK  Name = 448317
REMARK  6 active torsions:
REMARK  status: ('A' for Active; 'I' for Inactive)
REMARK    1  A    between atoms: C_1  and  C_18
REMARK    2  A    between atoms: C_4  and  N_24
REMARK    3  A    between atoms: C_5  and  S_25
REMARK    4  A    between atoms: S_25  and  C_26
REMARK    5  A    between atoms: C_27  and  O_32
REMARK    6  A    between atoms: O_32  and  C_33
REMARK                            x       y       z     vdW  Elec       q    Type
REMARK                         _______ _______ _______ _____ _____    ______ ____
ROOT
ATOM      1  C   UNL     1      35.303 -19.259 -21.269  0.00  0.00    +0.002 C 
ATOM      2  C   UNL     1      34.984 -19.520 -22.601  0.00  0.00    +0.025 C 
ATOM      3  C   UNL     1      35.306 -17.946 -20.797  0.00  0.00    +0.001 C 
ATOM      4  C   UNL     1      34.666 -18.469 -23.462  0.00  0.00    +0.149 C 
ATOM      5  C   UNL     1      34.670 -17.156 -22.991  0.00  0.00    +0.052 C 
ATOM      6  C   UNL     1      34.989 -16.894 -21.658  0.00  0.00    +0.008 C 
ENDROOT
BRANCH   1  18
ATOM      7  O   UNL     1      30.353 -24.839 -15.797  0.00  0.00    -0.275 OA
ATOM      8  N   UNL     1      34.072 -22.317 -17.675  0.00  0.00    -0.290 N 
ATOM      9  N   UNL     1      32.149 -23.374 -15.902  0.00  0.00    -0.276 N 
ATOM     10  N   UNL     1      36.269 -22.452 -18.650  0.00  0.00    -0.229 NA
ATOM     11  C   UNL     1      34.511 -22.886 -16.394  0.00  0.00    +0.114 C 
ATOM     12  C   UNL     1      32.801 -22.833 -18.209  0.00  0.00    +0.114 C 
ATOM     13  C   UNL     1      33.387 -22.807 -15.361  0.00  0.00    +0.115 C 
ATOM     14  C   UNL     1      31.707 -22.752 -17.147  0.00  0.00    +0.115 C 
ATOM     15  C   UNL     1      35.027 -21.866 -18.594  0.00  0.00    +0.132 C 
ATOM     16  C   UNL     1      31.401 -24.396 -15.323  0.00  0.00    +0.226 C 
ATOM     17  C   UNL     1      34.694 -20.806 -19.457  0.00  0.00    +0.034 C 
ATOM     18  C   UNL     1      35.632 -20.347 -20.376  0.00  0.00    +0.004 C 
ATOM     19  C   UNL     1      31.937 -24.980 -14.040  0.00  0.00    +0.095 C 
ATOM     20  C   UNL     1      36.888 -20.941 -20.432  0.00  0.00    +0.021 C 
ATOM     21  C   UNL     1      37.155 -21.979 -19.555  0.00  0.00    +0.100 C 
ENDBRANCH   1  18
BRANCH   4  24
ATOM     22  O   UNL     1      33.822 -17.900 -25.531  0.00  0.00    -0.126 OA
ATOM     23  O   UNL     1      34.605 -19.932 -25.244  0.00  0.00    -0.126 OA
ATOM     24  N   UNL     1      34.348 -18.783 -24.815  0.00  0.00    +0.058 N 
ENDBRANCH   4  24
BRANCH   5  25
ATOM     25  S   UNL     1      34.272 -15.762 -24.042  0.00  0.00    -0.082 S 
BRANCH  25  26
ATOM     26  C   UNL     1      33.398 -14.709 -22.895  0.00  0.00    +0.063 C 
ATOM     27  C   UNL     1      33.144 -13.369 -23.186  0.00  0.00    +0.144 C 
ATOM     28  C   UNL     1      32.966 -15.252 -21.683  0.00  0.00    +0.010 C 
ATOM     29  C   UNL     1      32.459 -12.572 -22.269  0.00  0.00    +0.037 C 
ATOM     30  C   UNL     1      32.281 -14.455 -20.766  0.00  0.00    +0.001 C 
ATOM     31  C   UNL     1      32.027 -13.115 -21.058  0.00  0.00    +0.003 C 
BRANCH  27  32
ATOM     32  O   UNL     1      33.549 -12.804 -24.359  0.00  0.00    -0.475 OA
BRANCH  32  33
ATOM     33  C   UNL     1      33.862 -11.413 -24.336  0.00  0.00    +0.206 C 
ATOM     34  C   UNL     1      34.649 -11.064 -25.580  0.00  0.00    +0.051 C 
ENDBRANCH  32  33
ENDBRANCH  27  32
ENDBRANCH  25  26
ENDBRANCH   5  25
TORSDOF 6
ENDMDL
