MODEL 1
REMARK VINA RESULT:      -8.4      0.000      0.000
REMARK  Name = 36109
REMARK  6 active torsions:
REMARK  status: ('A' for Active; 'I' for Inactive)
REMARK    1  A    between atoms: C_1  and  O_2
REMARK    2  A    between atoms: C_1  and  O_9
REMARK    3  A    between atoms: C_1  and  C_16
REMARK    4  A    between atoms: O_2  and  C_3
REMARK    5  A    between atoms: O_9  and  C_10
REMARK    6  A    between atoms: C_16  and  N_17
REMARK                            x       y       z     vdW  Elec       q    Type
REMARK                         _______ _______ _______ _____ _____    ______ ____
ROOT
ATOM      1  C   UNL     1      35.048 -17.751 -21.839  0.00  0.00    +0.319 C 
ENDROOT
BRANCH   1   2
ATOM      2  O   UNL     1      35.803 -18.747 -21.119  0.00  0.00    -0.445 OA
BRANCH   2   3
ATOM      3  C   UNL     1      35.128 -19.802 -20.568  0.00  0.00    +0.142 C 
ATOM      4  C   UNL     1      33.739 -19.840 -20.632  0.00  0.00    +0.037 C 
ATOM      5  C   UNL     1      35.835 -20.826 -19.948  0.00  0.00    +0.037 C 
ATOM      6  C   UNL     1      33.050 -20.915 -20.070  0.00  0.00    +0.003 C 
ATOM      7  C   UNL     1      35.146 -21.901 -19.385  0.00  0.00    +0.003 C 
ATOM      8  C   UNL     1      33.754 -21.945 -19.447  0.00  0.00    +0.000 C 
ENDBRANCH   2   3
ENDBRANCH   1   2
BRANCH   1   9
ATOM      9  O   UNL     1      35.285 -16.451 -21.279  0.00  0.00    -0.445 OA
BRANCH   9  10
ATOM     10  C   UNL     1      34.344 -15.472 -21.451  0.00  0.00    +0.142 C 
ATOM     11  C   UNL     1      34.413 -14.636 -22.560  0.00  0.00    +0.037 C 
ATOM     12  C   UNL     1      33.327 -15.321 -20.514  0.00  0.00    +0.037 C 
ATOM     13  C   UNL     1      33.454 -13.637 -22.735  0.00  0.00    +0.003 C 
ATOM     14  C   UNL     1      32.369 -14.323 -20.688  0.00  0.00    +0.003 C 
ATOM     15  C   UNL     1      32.432 -13.480 -21.798  0.00  0.00    +0.000 C 
ENDBRANCH   9  10
ENDBRANCH   1   9
BRANCH   1  16
ATOM     16  C   UNL     1      35.592 -17.763 -23.277  0.00  0.00    +0.016 C 
BRANCH  16  17
ATOM     17  N   UNL     1      34.517 -17.985 -24.243  0.00  0.00    +0.389 N 
ATOM     18  C   UNL     1      34.563 -19.353 -24.754  0.00  0.00    -0.100 C 
ATOM     19  C   UNL     1      34.609 -17.024 -25.341  0.00  0.00    -0.100 C 
ATOM     20  H   UNL     1      33.623 -17.847 -23.768  0.00  0.00    -0.080 HD
ENDBRANCH  16  17
ENDBRANCH   1  16
TORSDOF 6
ENDMDL
MODEL 2
REMARK VINA RESULT:      -8.4      4.835      8.586
REMARK  Name = 36109
REMARK  6 active torsions:
REMARK  status: ('A' for Active; 'I' for Inactive)
REMARK    1  A    between atoms: C_1  and  O_2
REMARK    2  A    between atoms: C_1  and  O_9
REMARK    3  A    between atoms: C_1  and  C_16
REMARK    4  A    between atoms: O_2  and  C_3
REMARK    5  A    between atoms: O_9  and  C_10
REMARK    6  A    between atoms: C_16  and  N_17
REMARK                            x       y       z     vdW  Elec       q    Type
REMARK                         _______ _______ _______ _____ _____    ______ ____
ROOT
ATOM      1  C   UNL     1      34.995 -22.664 -16.875  0.00  0.00    +0.319 C 
ENDROOT
BRANCH   1   2
ATOM      2  O   UNL     1      35.318 -22.806 -18.273  0.00  0.00    -0.445 OA
BRANCH   2   3
ATOM      3  C   UNL     1      34.943 -21.808 -19.131  0.00  0.00    +0.142 C 
ATOM      4  C   UNL     1      35.916 -21.031 -19.753  0.00  0.00    +0.037 C 
ATOM      5  C   UNL     1      33.593 -21.577 -19.375  0.00  0.00    +0.037 C 
ATOM      6  C   UNL     1      35.534 -20.014 -20.628  0.00  0.00    +0.003 C 
ATOM      7  C   UNL     1      33.212 -20.560 -20.250  0.00  0.00    +0.003 C 
ATOM      8  C   UNL     1      34.182 -19.779 -20.876  0.00  0.00    +0.000 C 
ENDBRANCH   2   3
ENDBRANCH   1   2
BRANCH   1   9
ATOM      9  O   UNL     1      34.145 -23.741 -16.452  0.00  0.00    -0.445 OA
BRANCH   9  10
ATOM     10  C   UNL     1      32.894 -23.453 -15.978  0.00  0.00    +0.142 C 
ATOM     11  C   UNL     1      31.869 -23.158 -16.870  0.00  0.00    +0.037 C 
ATOM     12  C   UNL     1      32.658 -23.458 -14.606  0.00  0.00    +0.037 C 
ATOM     13  C   UNL     1      30.594 -22.863 -16.386  0.00  0.00    +0.003 C 
ATOM     14  C   UNL     1      31.384 -23.165 -14.123  0.00  0.00    +0.003 C 
ATOM     15  C   UNL     1      30.351 -22.866 -15.013  0.00  0.00    +0.000 C 
ENDBRANCH   9  10
ENDBRANCH   1   9
BRANCH   1  16
ATOM     16  C   UNL     1      36.328 -22.778 -16.117  0.00  0.00    +0.016 C 
BRANCH  16  17
ATOM     17  N   UNL     1      36.248 -23.792 -15.067  0.00  0.00    +0.389 N 
ATOM     18  C   UNL     1      36.235 -23.163 -13.748  0.00  0.00    -0.100 C 
ATOM     19  C   UNL     1      37.366 -24.729 -15.176  0.00  0.00    -0.100 C 
ATOM     20  H   UNL     1      35.379 -24.313 -15.186  0.00  0.00    -0.080 HD
ENDBRANCH  16  17
ENDBRANCH   1  16
TORSDOF 6
ENDMDL
MODEL 3
REMARK VINA RESULT:      -7.9      6.663      9.389
REMARK  Name = 36109
REMARK  6 active torsions:
REMARK  status: ('A' for Active; 'I' for Inactive)
REMARK    1  A    between atoms: C_1  and  O_2
REMARK    2  A    between atoms: C_1  and  O_9
REMARK    3  A    between atoms: C_1  and  C_16
REMARK    4  A    between atoms: O_2  and  C_3
REMARK    5  A    between atoms: O_9  and  C_10
REMARK    6  A    between atoms: C_16  and  N_17
REMARK                            x       y       z     vdW  Elec       q    Type
REMARK                         _______ _______ _______ _____ _____    ______ ____
ROOT
ATOM      1  C   UNL     1      34.828 -24.133 -14.863  0.00  0.00    +0.319 C 
ENDROOT
BRANCH   1   2
ATOM      2  O   UNL     1      33.873 -23.830 -13.826  0.00  0.00    -0.445 OA
BRANCH   2   3
ATOM      3  C   UNL     1      32.540 -23.910 -14.126  0.00  0.00    +0.142 C 
ATOM      4  C   UNL     1      31.870 -22.785 -14.597  0.00  0.00    +0.037 C 
ATOM      5  C   UNL     1      31.865 -25.115 -13.958  0.00  0.00    +0.037 C 
ATOM      6  C   UNL     1      30.512 -22.866 -14.903  0.00  0.00    +0.003 C 
ATOM      7  C   UNL     1      30.507 -25.196 -14.264  0.00  0.00    +0.003 C 
ATOM      8  C   UNL     1      29.831 -24.072 -14.737  0.00  0.00    +0.000 C 
ENDBRANCH   2   3
ENDBRANCH   1   2
BRANCH   1   9
ATOM      9  O   UNL     1      35.426 -22.923 -15.352  0.00  0.00    -0.445 OA
BRANCH   9  10
ATOM     10  C   UNL     1      35.305 -22.611 -16.679  0.00  0.00    +0.142 C 
ATOM     11  C   UNL     1      34.128 -22.915 -17.355  0.00  0.00    +0.037 C 
ATOM     12  C   UNL     1      36.361 -21.992 -17.341  0.00  0.00    +0.037 C 
ATOM     13  C   UNL     1      34.006 -22.598 -18.708  0.00  0.00    +0.003 C 
ATOM     14  C   UNL     1      36.238 -21.674 -18.693  0.00  0.00    +0.003 C 
ATOM     15  C   UNL     1      35.061 -21.978 -19.378  0.00  0.00    +0.000 C 
ENDBRANCH   9  10
ENDBRANCH   1   9
BRANCH   1  16
ATOM     16  C   UNL     1      35.927 -24.977 -14.196  0.00  0.00    +0.016 C 
BRANCH  16  17
ATOM     17  N   UNL     1      36.945 -25.372 -15.167  0.00  0.00    +0.389 N 
ATOM     18  C   UNL     1      36.953 -26.823 -15.339  0.00  0.00    -0.100 C 
ATOM     19  C   UNL     1      38.264 -24.899 -14.746  0.00  0.00    -0.100 C 
ATOM     20  H   UNL     1      36.720 -24.941 -16.065  0.00  0.00    -0.080 HD
ENDBRANCH  16  17
ENDBRANCH   1  16
TORSDOF 6
ENDMDL
MODEL 4
REMARK VINA RESULT:      -7.9      5.032      7.961
REMARK  Name = 36109
REMARK  6 active torsions:
REMARK  status: ('A' for Active; 'I' for Inactive)
REMARK    1  A    between atoms: C_1  and  O_2
REMARK    2  A    between atoms: C_1  and  O_9
REMARK    3  A    between atoms: C_1  and  C_16
REMARK    4  A    between atoms: O_2  and  C_3
REMARK    5  A    between atoms: O_9  and  C_10
REMARK    6  A    between atoms: C_16  and  N_17
REMARK                            x       y       z     vdW  Elec       q    Type
REMARK                         _______ _______ _______ _____ _____    ______ ____
ROOT
ATOM      1  C   UNL     1      33.476 -23.113 -17.070  0.00  0.00    +0.319 C 
ENDROOT
BRANCH   1   2
ATOM      2  O   UNL     1      34.034 -24.255 -16.390  0.00  0.00    -0.445 OA
BRANCH   2   3
ATOM      3  C   UNL     1      35.267 -24.128 -15.809  0.00  0.00    +0.142 C 
ATOM      4  C   UNL     1      35.977 -22.940 -15.954  0.00  0.00    +0.037 C 
ATOM      5  C   UNL     1      35.799 -25.184 -15.079  0.00  0.00    +0.037 C 
ATOM      6  C   UNL     1      37.234 -22.809 -15.362  0.00  0.00    +0.003 C 
ATOM      7  C   UNL     1      37.055 -25.053 -14.487  0.00  0.00    +0.003 C 
ATOM      8  C   UNL     1      37.772 -23.866 -14.629  0.00  0.00    +0.000 C 
ENDBRANCH   2   3
ENDBRANCH   1   2
BRANCH   1   9
ATOM      9  O   UNL     1      33.649 -23.248 -18.489  0.00  0.00    -0.445 OA
BRANCH   9  10
ATOM     10  C   UNL     1      34.070 -22.167 -19.214  0.00  0.00    +0.142 C 
ATOM     11  C   UNL     1      35.432 -21.940 -19.386  0.00  0.00    +0.037 C 
ATOM     12  C   UNL     1      33.133 -21.302 -19.771  0.00  0.00    +0.037 C 
ATOM     13  C   UNL     1      35.861 -20.836 -20.124  0.00  0.00    +0.003 C 
ATOM     14  C   UNL     1      33.563 -20.200 -20.509  0.00  0.00    +0.003 C 
ATOM     15  C   UNL     1      34.926 -19.966 -20.685  0.00  0.00    +0.000 C 
ENDBRANCH   9  10
ENDBRANCH   1   9
BRANCH   1  16
ATOM     16  C   UNL     1      31.969 -23.132 -16.766  0.00  0.00    +0.016 C 
BRANCH  16  17
ATOM     17  N   UNL     1      31.702 -23.770 -15.478  0.00  0.00    +0.389 N 
ATOM     18  C   UNL     1      30.474 -24.560 -15.542  0.00  0.00    -0.100 C 
ATOM     19  C   UNL     1      31.610 -22.765 -14.419  0.00  0.00    -0.100 C 
ATOM     20  H   UNL     1      32.479 -24.396 -15.261  0.00  0.00    -0.080 HD
ENDBRANCH  16  17
ENDBRANCH   1  16
TORSDOF 6
ENDMDL
MODEL 5
REMARK VINA RESULT:      -7.9      3.837      7.648
REMARK  Name = 36109
REMARK  6 active torsions:
REMARK  status: ('A' for Active; 'I' for Inactive)
REMARK    1  A    between atoms: C_1  and  O_2
REMARK    2  A    between atoms: C_1  and  O_9
REMARK    3  A    between atoms: C_1  and  C_16
REMARK    4  A    between atoms: O_2  and  C_3
REMARK    5  A    between atoms: O_9  and  C_10
REMARK    6  A    between atoms: C_16  and  N_17
REMARK                            x       y       z     vdW  Elec       q    Type
REMARK                         _______ _______ _______ _____ _____    ______ ____
ROOT
ATOM      1  C   UNL     1      33.537 -12.300 -23.622  0.00  0.00    +0.319 C 
ENDROOT
BRANCH   1   2
ATOM      2  O   UNL     1      32.182 -12.076 -23.181  0.00  0.00    -0.445 OA
BRANCH   2   3
ATOM      3  C   UNL     1      31.983 -11.396 -22.011  0.00  0.00    +0.142 C 
ATOM      4  C   UNL     1      31.716 -12.101 -20.841  0.00  0.00    +0.037 C 
ATOM      5  C   UNL     1      32.049 -10.007 -21.998  0.00  0.00    +0.037 C 
ATOM      6  C   UNL     1      31.513 -11.409 -19.647  0.00  0.00    +0.003 C 
ATOM      7  C   UNL     1      31.846  -9.315 -20.804  0.00  0.00    +0.003 C 
ATOM      8  C   UNL     1      31.578 -10.016 -19.629  0.00  0.00    +0.000 C 
ENDBRANCH   2   3
ENDBRANCH   1   2
BRANCH   1   9
ATOM      9  O   UNL     1      33.697 -13.660 -24.053  0.00  0.00    -0.445 OA
BRANCH   9  10
ATOM     10  C   UNL     1      34.120 -14.598 -23.150  0.00  0.00    +0.142 C 
ATOM     11  C   UNL     1      34.075 -14.315 -21.789  0.00  0.00    +0.037 C 
ATOM     12  C   UNL     1      34.592 -15.827 -23.602  0.00  0.00    +0.037 C 
ATOM     13  C   UNL     1      34.507 -15.271 -20.869  0.00  0.00    +0.003 C 
ATOM     14  C   UNL     1      35.024 -16.781 -22.682  0.00  0.00    +0.003 C 
ATOM     15  C   UNL     1      34.982 -16.504 -21.316  0.00  0.00    +0.000 C 
ENDBRANCH   9  10
ENDBRANCH   1   9
BRANCH   1  16
ATOM     16  C   UNL     1      33.746 -11.382 -24.838  0.00  0.00    +0.016 C 
BRANCH  16  17
ATOM     17  N   UNL     1      34.995 -10.631 -24.718  0.00  0.00    +0.389 N 
ATOM     18  C   UNL     1      34.755  -9.337 -24.082  0.00  0.00    -0.100 C 
ATOM     19  C   UNL     1      35.610 -10.450 -26.033  0.00  0.00    -0.100 C 
ATOM     20  H   UNL     1      35.638 -11.166 -24.133  0.00  0.00    -0.080 HD
ENDBRANCH  16  17
ENDBRANCH   1  16
TORSDOF 6
ENDMDL
MODEL 6
REMARK VINA RESULT:      -7.9      1.797      6.258
REMARK  Name = 36109
REMARK  6 active torsions:
REMARK  status: ('A' for Active; 'I' for Inactive)
REMARK    1  A    between atoms: C_1  and  O_2
REMARK    2  A    between atoms: C_1  and  O_9
REMARK    3  A    between atoms: C_1  and  C_16
REMARK    4  A    between atoms: O_2  and  C_3
REMARK    5  A    between atoms: O_9  and  C_10
REMARK    6  A    between atoms: C_16  and  N_17
REMARK                            x       y       z     vdW  Elec       q    Type
REMARK                         _______ _______ _______ _____ _____    ______ ____
ROOT
ATOM      1  C   UNL     1      34.471 -17.292 -22.322  0.00  0.00    +0.319 C 
ENDROOT
BRANCH   1   2
ATOM      2  O   UNL     1      35.137 -16.500 -23.326  0.00  0.00    -0.445 OA
BRANCH   2   3
ATOM      3  C   UNL     1      34.370 -15.757 -24.182  0.00  0.00    +0.142 C 
ATOM      4  C   UNL     1      34.034 -14.448 -23.847  0.00  0.00    +0.037 C 
ATOM      5  C   UNL     1      33.933 -16.314 -25.378  0.00  0.00    +0.037 C 
ATOM      6  C   UNL     1      33.252 -13.690 -24.719  0.00  0.00    +0.003 C 
ATOM      7  C   UNL     1      33.152 -15.556 -26.250  0.00  0.00    +0.003 C 
ATOM      8  C   UNL     1      32.812 -14.245 -25.920  0.00  0.00    +0.000 C 
ENDBRANCH   2   3
ENDBRANCH   1   2
BRANCH   1   9
ATOM      9  O   UNL     1      34.811 -18.678 -22.480  0.00  0.00    -0.445 OA
BRANCH   9  10
ATOM     10  C   UNL     1      34.506 -19.556 -21.475  0.00  0.00    +0.142 C 
ATOM     11  C   UNL     1      35.525 -20.261 -20.843  0.00  0.00    +0.037 C 
ATOM     12  C   UNL     1      33.180 -19.736 -21.096  0.00  0.00    +0.037 C 
ATOM     13  C   UNL     1      35.214 -21.157 -19.820  0.00  0.00    +0.003 C 
ATOM     14  C   UNL     1      32.870 -20.632 -20.073  0.00  0.00    +0.003 C 
ATOM     15  C   UNL     1      33.886 -21.343 -19.435  0.00  0.00    +0.000 C 
ENDBRANCH   9  10
ENDBRANCH   1   9
BRANCH   1  16
ATOM     16  C   UNL     1      35.021 -16.813 -20.968  0.00  0.00    +0.016 C 
BRANCH  16  17
ATOM     17  N   UNL     1      34.093 -15.884 -20.324  0.00  0.00    +0.389 N 
ATOM     18  C   UNL     1      32.743 -16.057 -20.858  0.00  0.00    -0.100 C 
ATOM     19  C   UNL     1      34.543 -14.504 -20.506  0.00  0.00    -0.100 C 
ATOM     20  H   UNL     1      34.074 -16.088 -19.324  0.00  0.00    -0.080 HD
ENDBRANCH  16  17
ENDBRANCH   1  16
TORSDOF 6
ENDMDL
MODEL 7
REMARK VINA RESULT:      -7.8      5.546      9.341
REMARK  Name = 36109
REMARK  6 active torsions:
REMARK  status: ('A' for Active; 'I' for Inactive)
REMARK    1  A    between atoms: C_1  and  O_2
REMARK    2  A    between atoms: C_1  and  O_9
REMARK    3  A    between atoms: C_1  and  C_16
REMARK    4  A    between atoms: O_2  and  C_3
REMARK    5  A    between atoms: O_9  and  C_10
REMARK    6  A    between atoms: C_16  and  N_17
REMARK                            x       y       z     vdW  Elec       q    Type
REMARK                         _______ _______ _______ _____ _____    ______ ____
ROOT
ATOM      1  C   UNL     1      34.834 -23.189 -16.011  0.00  0.00    +0.319 C 
ENDROOT
BRANCH   1   2
ATOM      2  O   UNL     1      34.298 -23.453 -17.324  0.00  0.00    -0.445 OA
BRANCH   2   3
ATOM      3  C   UNL     1      34.431 -22.489 -18.286  0.00  0.00    +0.142 C 
ATOM      4  C   UNL     1      35.697 -22.008 -18.609  0.00  0.00    +0.037 C 
ATOM      5  C   UNL     1      33.303 -21.998 -18.932  0.00  0.00    +0.037 C 
ATOM      6  C   UNL     1      35.833 -21.025 -19.590  0.00  0.00    +0.003 C 
ATOM      7  C   UNL     1      33.439 -21.015 -19.913  0.00  0.00    +0.003 C 
ATOM      8  C   UNL     1      34.704 -20.529 -20.241  0.00  0.00    +0.000 C 
ENDBRANCH   2   3
ENDBRANCH   1   2
BRANCH   1   9
ATOM      9  O   UNL     1      33.795 -22.716 -15.140  0.00  0.00    -0.445 OA
BRANCH   9  10
ATOM     10  C   UNL     1      32.661 -23.467 -14.988  0.00  0.00    +0.142 C 
ATOM     11  C   UNL     1      31.617 -23.330 -15.896  0.00  0.00    +0.037 C 
ATOM     12  C   UNL     1      32.563 -24.361 -13.927  0.00  0.00    +0.037 C 
ATOM     13  C   UNL     1      30.460 -24.094 -15.741  0.00  0.00    +0.003 C 
ATOM     14  C   UNL     1      31.407 -25.126 -13.772  0.00  0.00    +0.003 C 
ATOM     15  C   UNL     1      30.355 -24.992 -14.678  0.00  0.00    +0.000 C 
ENDBRANCH   9  10
ENDBRANCH   1   9
BRANCH   1  16
ATOM     16  C   UNL     1      35.333 -24.541 -15.475  0.00  0.00    +0.016 C 
BRANCH  16  17
ATOM     17  N   UNL     1      36.632 -24.398 -14.819  0.00  0.00    +0.389 N 
ATOM     18  C   UNL     1      37.411 -23.337 -15.455  0.00  0.00    -0.100 C 
ATOM     19  C   UNL     1      37.364 -25.663 -14.854  0.00  0.00    -0.100 C 
ATOM     20  H   UNL     1      36.474 -24.143 -13.843  0.00  0.00    -0.080 HD
ENDBRANCH  16  17
ENDBRANCH   1  16
TORSDOF 6
ENDMDL
MODEL 8
REMARK VINA RESULT:      -7.7      0.777      5.349
REMARK  Name = 36109
REMARK  6 active torsions:
REMARK  status: ('A' for Active; 'I' for Inactive)
REMARK    1  A    between atoms: C_1  and  O_2
REMARK    2  A    between atoms: C_1  and  O_9
REMARK    3  A    between atoms: C_1  and  C_16
REMARK    4  A    between atoms: O_2  and  C_3
REMARK    5  A    between atoms: O_9  and  C_10
REMARK    6  A    between atoms: C_16  and  N_17
REMARK                            x       y       z     vdW  Elec       q    Type
REMARK                         _______ _______ _______ _____ _____    ______ ____
ROOT
ATOM      1  C   UNL     1      35.555 -17.726 -22.243  0.00  0.00    +0.319 C 
ENDROOT
BRANCH   1   2
ATOM      2  O   UNL     1      35.606 -16.291 -22.373  0.00  0.00    -0.445 OA
BRANCH   2   3
ATOM      3  C   UNL     1      34.509 -15.565 -21.995  0.00  0.00    +0.142 C 
ATOM      4  C   UNL     1      34.148 -15.509 -20.652  0.00  0.00    +0.037 C 
ATOM      5  C   UNL     1      33.764 -14.889 -22.955  0.00  0.00    +0.037 C 
ATOM      6  C   UNL     1      33.030 -14.769 -20.266  0.00  0.00    +0.003 C 
ATOM      7  C   UNL     1      32.646 -14.149 -22.569  0.00  0.00    +0.003 C 
ATOM      8  C   UNL     1      32.280 -14.089 -21.225  0.00  0.00    +0.000 C 
ENDBRANCH   2   3
ENDBRANCH   1   2
BRANCH   1   9
ATOM      9  O   UNL     1      34.264 -18.133 -21.764  0.00  0.00    -0.445 OA
BRANCH   9  10
ATOM     10  C   UNL     1      34.164 -19.269 -21.006  0.00  0.00    +0.142 C 
ATOM     11  C   UNL     1      32.910 -19.744 -20.638  0.00  0.00    +0.037 C 
ATOM     12  C   UNL     1      35.318 -19.939 -20.612  0.00  0.00    +0.037 C 
ATOM     13  C   UNL     1      32.808 -20.901 -19.865  0.00  0.00    +0.003 C 
ATOM     14  C   UNL     1      35.216 -21.095 -19.840  0.00  0.00    +0.003 C 
ATOM     15  C   UNL     1      33.961 -21.576 -19.465  0.00  0.00    +0.000 C 
ENDBRANCH   9  10
ENDBRANCH   1   9
BRANCH   1  16
ATOM     16  C   UNL     1      35.740 -18.288 -23.663  0.00  0.00    +0.016 C 
BRANCH  16  17
ATOM     17  N   UNL     1      34.494 -18.209 -24.424  0.00  0.00    +0.389 N 
ATOM     18  C   UNL     1      34.171 -19.507 -25.014  0.00  0.00    -0.100 C 
ATOM     19  C   UNL     1      34.594 -17.185 -25.463  0.00  0.00    -0.100 C 
ATOM     20  H   UNL     1      33.741 -17.948 -23.785  0.00  0.00    -0.080 HD
ENDBRANCH  16  17
ENDBRANCH   1  16
TORSDOF 6
ENDMDL
MODEL 9
REMARK VINA RESULT:      -7.7      5.899      8.921
REMARK  Name = 36109
REMARK  6 active torsions:
REMARK  status: ('A' for Active; 'I' for Inactive)
REMARK    1  A    between atoms: C_1  and  O_2
REMARK    2  A    between atoms: C_1  and  O_9
REMARK    3  A    between atoms: C_1  and  C_16
REMARK    4  A    between atoms: O_2  and  C_3
REMARK    5  A    between atoms: O_9  and  C_10
REMARK    6  A    between atoms: C_16  and  N_17
REMARK                            x       y       z     vdW  Elec       q    Type
REMARK                         _______ _______ _______ _____ _____    ______ ____
ROOT
ATOM      1  C   UNL     1      34.745 -23.819 -15.973  0.00  0.00    +0.319 C 
ENDROOT
BRANCH   1   2
ATOM      2  O   UNL     1      33.906 -23.120 -15.031  0.00  0.00    -0.445 OA
BRANCH   2   3
ATOM      3  C   UNL     1      32.611 -23.535 -14.881  0.00  0.00    +0.142 C 
ATOM      4  C   UNL     1      32.254 -24.289 -13.767  0.00  0.00    +0.037 C 
ATOM      5  C   UNL     1      31.663 -23.201 -15.842  0.00  0.00    +0.037 C 
ATOM      6  C   UNL     1      30.934 -24.713 -13.613  0.00  0.00    +0.003 C 
ATOM      7  C   UNL     1      30.343 -23.625 -15.687  0.00  0.00    +0.003 C 
ATOM      8  C   UNL     1      29.979 -24.380 -14.574  0.00  0.00    +0.000 C 
ENDBRANCH   2   3
ENDBRANCH   1   2
BRANCH   1   9
ATOM      9  O   UNL     1      35.757 -22.938 -16.483  0.00  0.00    -0.445 OA
BRANCH   9  10
ATOM     10  C   UNL     1      35.550 -22.308 -17.680  0.00  0.00    +0.142 C 
ATOM     11  C   UNL     1      36.584 -21.590 -18.269  0.00  0.00    +0.037 C 
ATOM     12  C   UNL     1      34.305 -22.392 -18.297  0.00  0.00    +0.037 C 
ATOM     13  C   UNL     1      36.372 -20.946 -19.489  0.00  0.00    +0.003 C 
ATOM     14  C   UNL     1      34.094 -21.750 -19.516  0.00  0.00    +0.003 C 
ATOM     15  C   UNL     1      35.127 -21.026 -20.113  0.00  0.00    +0.000 C 
ENDBRANCH   9  10
ENDBRANCH   1   9
BRANCH   1  16
ATOM     16  C   UNL     1      35.437 -24.938 -15.177  0.00  0.00    +0.016 C 
BRANCH  16  17
ATOM     17  N   UNL     1      36.462 -24.392 -14.289  0.00  0.00    +0.389 N 
ATOM     18  C   UNL     1      37.772 -24.954 -14.612  0.00  0.00    -0.100 C 
ATOM     19  C   UNL     1      36.121 -24.657 -12.891  0.00  0.00    -0.100 C 
ATOM     20  H   UNL     1      36.502 -23.381 -14.425  0.00  0.00    -0.080 HD
ENDBRANCH  16  17
ENDBRANCH   1  16
TORSDOF 6
ENDMDL
