MODEL 1
REMARK VINA RESULT:      -8.3      0.000      0.000
REMARK  Name = 1779
REMARK  2 active torsions:
REMARK  status: ('A' for Active; 'I' for Inactive)
REMARK    1  A    between atoms: CA_8  and  C_16
REMARK    2  A    between atoms: C_16  and  O_17
REMARK                            x       y       z     vdW  Elec       q    Type
REMARK                         _______ _______ _______ _____ _____    ______ ____
ROOT
ATOM      1 CL   UNL     1      34.971 -23.877 -11.276  0.00  0.00    -0.082 Cl
ATOM      2 CL   UNL     1      33.411 -23.416 -16.353  0.00  0.00    -0.082 Cl
ATOM      3  O   UNL     1      37.582 -24.885 -11.228  0.00  0.00    -0.286 OA
ATOM      4  N   UNL     1      38.096 -25.202 -15.229  0.00  0.00    -0.307 N 
ATOM      5  C   UNL     1      36.863 -24.711 -14.785  0.00  0.00    +0.053 C 
ATOM      6  C   UNL     1      36.618 -24.575 -13.406  0.00  0.00    +0.063 C 
ATOM      7  C   UNL     1      37.686 -24.963 -12.444  0.00  0.00    +0.199 C 
ATOM      8  CA  UNL     1      39.076 -25.559 -14.341  0.00  0.00    +0.128 C 
ATOM      9  C   UNL     1      35.861 -24.348 -15.691  0.00  0.00    +0.026 C 
ATOM     10  C   UNL     1      35.395 -24.086 -12.941  0.00  0.00    +0.063 C 
ATOM     11  C   UNL     1      38.965 -25.477 -13.007  0.00  0.00    +0.063 C 
ATOM     12  C   UNL     1      34.638 -23.859 -15.227  0.00  0.00    +0.060 C 
ATOM     13  C   UNL     1      34.406 -23.729 -13.858  0.00  0.00    +0.023 C 
ATOM     14  H   UNL     1      38.263 -25.294 -16.195  0.00  0.00    +0.152 HD
ENDROOT
BRANCH   8  16
ATOM     15  OXT UNL     1      41.206 -26.605 -14.208  0.00  0.00    -0.244 OA
ATOM     16  C   UNL     1      40.340 -26.071 -14.877  0.00  0.00    +0.352 C 
BRANCH  16  17
ATOM     17  O   UNL     1      40.387 -25.855 -16.208  0.00  0.00    -0.476 OA
ATOM     18  H   UNL     1      40.248 -26.564 -16.803  0.00  0.00    +0.295 HD
ENDBRANCH  16  17
ENDBRANCH   8  16
TORSDOF 2
ENDMDL
MODEL 2
REMARK VINA RESULT:      -8.2     11.563     13.300
REMARK  Name = 1779
REMARK  2 active torsions:
REMARK  status: ('A' for Active; 'I' for Inactive)
REMARK    1  A    between atoms: CA_8  and  C_16
REMARK    2  A    between atoms: C_16  and  O_17
REMARK                            x       y       z     vdW  Elec       q    Type
REMARK                         _______ _______ _______ _____ _____    ______ ____
ROOT
ATOM      1 CL   UNL     1      33.277 -14.710 -26.316  0.00  0.00    -0.082 Cl
ATOM      2 CL   UNL     1      31.832 -12.331 -21.770  0.00  0.00    -0.082 Cl
ATOM      3  O   UNL     1      34.789 -16.984 -25.698  0.00  0.00    -0.286 OA
ATOM      4  N   UNL     1      34.663 -16.618 -21.670  0.00  0.00    -0.307 N 
ATOM      5  C   UNL     1      33.997 -15.639 -22.416  0.00  0.00    +0.053 C 
ATOM      6  C   UNL     1      34.001 -15.707 -23.822  0.00  0.00    +0.063 C 
ATOM      7  C   UNL     1      34.722 -16.827 -24.487  0.00  0.00    +0.199 C 
ATOM      8  CA  UNL     1      35.327 -17.647 -22.285  0.00  0.00    +0.128 C 
ATOM      9  C   UNL     1      33.320 -14.588 -21.790  0.00  0.00    +0.026 C 
ATOM     10  C   UNL     1      33.342 -14.741 -24.587  0.00  0.00    +0.063 C 
ATOM     11  C   UNL     1      35.404 -17.820 -23.612  0.00  0.00    +0.063 C 
ATOM     12  C   UNL     1      32.661 -13.622 -22.553  0.00  0.00    +0.060 C 
ATOM     13  C   UNL     1      32.672 -13.699 -23.946  0.00  0.00    +0.023 C 
ATOM     14  H   UNL     1      34.656 -16.567 -20.687  0.00  0.00    +0.152 HD
ENDROOT
BRANCH   8  16
ATOM     15  OXT UNL     1      35.468 -19.269 -20.554  0.00  0.00    -0.244 OA
ATOM     16  C   UNL     1      36.007 -18.632 -21.440  0.00  0.00    +0.352 C 
BRANCH  16  17
ATOM     17  O   UNL     1      37.305 -18.715 -21.798  0.00  0.00    -0.476 OA
ATOM     18  H   UNL     1      37.590 -18.357 -22.616  0.00  0.00    +0.295 HD
ENDBRANCH  16  17
ENDBRANCH   8  16
TORSDOF 2
ENDMDL
MODEL 3
REMARK VINA RESULT:      -8.1      5.880      7.985
REMARK  Name = 1779
REMARK  2 active torsions:
REMARK  status: ('A' for Active; 'I' for Inactive)
REMARK    1  A    between atoms: CA_8  and  C_16
REMARK    2  A    between atoms: C_16  and  O_17
REMARK                            x       y       z     vdW  Elec       q    Type
REMARK                         _______ _______ _______ _____ _____    ______ ____
ROOT
ATOM      1 CL   UNL     1      33.963 -24.220 -13.431  0.00  0.00    -0.082 Cl
ATOM      2 CL   UNL     1      35.180 -22.434 -18.304  0.00  0.00    -0.082 Cl
ATOM      3  O   UNL     1      31.176 -24.331 -13.186  0.00  0.00    -0.286 OA
ATOM      4  N   UNL     1      30.269 -22.982 -16.891  0.00  0.00    -0.307 N 
ATOM      5  C   UNL     1      31.628 -23.090 -16.571  0.00  0.00    +0.053 C 
ATOM      6  C   UNL     1      32.012 -23.553 -15.299  0.00  0.00    +0.063 C 
ATOM      7  C   UNL     1      30.956 -23.917 -14.316  0.00  0.00    +0.199 C 
ATOM      8  CA  UNL     1      29.300 -23.318 -15.984  0.00  0.00    +0.128 C 
ATOM      9  C   UNL     1      32.619 -22.746 -17.496  0.00  0.00    +0.026 C 
ATOM     10  C   UNL     1      33.363 -23.669 -14.958  0.00  0.00    +0.063 C 
ATOM     11  C   UNL     1      29.538 -23.768 -14.744  0.00  0.00    +0.063 C 
ATOM     12  C   UNL     1      33.968 -22.862 -17.157  0.00  0.00    +0.060 C 
ATOM     13  C   UNL     1      34.338 -23.322 -15.893  0.00  0.00    +0.023 C 
ATOM     14  H   UNL     1      30.006 -22.659 -17.783  0.00  0.00    +0.152 HD
ENDROOT
BRANCH   8  16
ATOM     15  OXT UNL     1      27.049 -22.601 -15.730  0.00  0.00    -0.244 OA
ATOM     16  C   UNL     1      27.899 -23.174 -16.387  0.00  0.00    +0.352 C 
BRANCH  16  17
ATOM     17  O   UNL     1      27.708 -23.770 -17.582  0.00  0.00    -0.476 OA
ATOM     18  H   UNL     1      28.382 -24.305 -17.952  0.00  0.00    +0.295 HD
ENDBRANCH  16  17
ENDBRANCH   8  16
TORSDOF 2
ENDMDL
MODEL 4
REMARK VINA RESULT:      -8.0      3.308      4.687
REMARK  Name = 1779
REMARK  2 active torsions:
REMARK  status: ('A' for Active; 'I' for Inactive)
REMARK    1  A    between atoms: CA_8  and  C_16
REMARK    2  A    between atoms: C_16  and  O_17
REMARK                            x       y       z     vdW  Elec       q    Type
REMARK                         _______ _______ _______ _____ _____    ______ ____
ROOT
ATOM      1 CL   UNL     1      34.248 -22.951 -17.876  0.00  0.00    -0.082 Cl
ATOM      2 CL   UNL     1      29.651 -23.322 -15.203  0.00  0.00    -0.082 Cl
ATOM      3  O   UNL     1      36.359 -23.435 -16.102  0.00  0.00    -0.286 OA
ATOM      4  N   UNL     1      34.126 -24.050 -12.784  0.00  0.00    -0.307 N 
ATOM      5  C   UNL     1      33.436 -23.761 -13.968  0.00  0.00    +0.053 C 
ATOM      6  C   UNL     1      34.152 -23.537 -15.158  0.00  0.00    +0.063 C 
ATOM      7  C   UNL     1      35.639 -23.610 -15.129  0.00  0.00    +0.199 C 
ATOM      8  CA  UNL     1      35.494 -24.115 -12.761  0.00  0.00    +0.128 C 
ATOM      9  C   UNL     1      32.040 -23.693 -13.993  0.00  0.00    +0.026 C 
ATOM     10  C   UNL     1      33.484 -23.249 -16.351  0.00  0.00    +0.063 C 
ATOM     11  C   UNL     1      36.286 -23.921 -13.824  0.00  0.00    +0.063 C 
ATOM     12  C   UNL     1      31.371 -23.405 -15.184  0.00  0.00    +0.060 C 
ATOM     13  C   UNL     1      32.091 -23.185 -16.359  0.00  0.00    +0.023 C 
ATOM     14  H   UNL     1      33.620 -24.207 -11.954  0.00  0.00    +0.152 HD
ENDROOT
BRANCH   8  16
ATOM     15  OXT UNL     1      37.299 -24.125 -11.215  0.00  0.00    -0.244 OA
ATOM     16  C   UNL     1      36.148 -24.416 -11.484  0.00  0.00    +0.352 C 
BRANCH  16  17
ATOM     17  O   UNL     1      35.282 -25.057 -10.672  0.00  0.00    -0.476 OA
ATOM     18  H   UNL     1      35.109 -24.724  -9.814  0.00  0.00    +0.295 HD
ENDBRANCH  16  17
ENDBRANCH   8  16
TORSDOF 2
ENDMDL
MODEL 5
REMARK VINA RESULT:      -7.9     12.465     14.364
REMARK  Name = 1779
REMARK  2 active torsions:
REMARK  status: ('A' for Active; 'I' for Inactive)
REMARK    1  A    between atoms: CA_8  and  C_16
REMARK    2  A    between atoms: C_16  and  O_17
REMARK                            x       y       z     vdW  Elec       q    Type
REMARK                         _______ _______ _______ _____ _____    ______ ____
ROOT
ATOM      1 CL   UNL     1      34.936 -16.868 -25.505  0.00  0.00    -0.082 Cl
ATOM      2 CL   UNL     1      36.113 -18.784 -20.673  0.00  0.00    -0.082 Cl
ATOM      3  O   UNL     1      33.362 -14.572 -25.201  0.00  0.00    -0.286 OA
ATOM      4  N   UNL     1      33.235 -14.555 -21.157  0.00  0.00    -0.307 N 
ATOM      5  C   UNL     1      33.958 -15.589 -21.763  0.00  0.00    +0.053 C 
ATOM      6  C   UNL     1      34.043 -15.654 -23.167  0.00  0.00    +0.063 C 
ATOM      7  C   UNL     1      33.353 -14.614 -23.978  0.00  0.00    +0.199 C 
ATOM      8  CA  UNL     1      32.601 -13.601 -21.906  0.00  0.00    +0.128 C 
ATOM      9  C   UNL     1      34.605 -16.565 -20.999  0.00  0.00    +0.026 C 
ATOM     10  C   UNL     1      34.760 -16.676 -23.794  0.00  0.00    +0.063 C 
ATOM     11  C   UNL     1      32.606 -13.554 -23.246  0.00  0.00    +0.063 C 
ATOM     12  C   UNL     1      35.322 -17.587 -21.625  0.00  0.00    +0.060 C 
ATOM     13  C   UNL     1      35.399 -17.641 -23.017  0.00  0.00    +0.023 C 
ATOM     14  H   UNL     1      33.180 -14.514 -20.175  0.00  0.00    +0.152 HD
ENDROOT
BRANCH   8  16
ATOM     15  OXT UNL     1      31.944 -12.329 -20.009  0.00  0.00    -0.244 OA
ATOM     16  C   UNL     1      31.857 -12.552 -21.203  0.00  0.00    +0.352 C 
BRANCH  16  17
ATOM     17  O   UNL     1      31.074 -11.888 -22.078  0.00  0.00    -0.476 OA
ATOM     18  H   UNL     1      30.723 -11.050 -21.852  0.00  0.00    +0.295 HD
ENDBRANCH  16  17
ENDBRANCH   8  16
TORSDOF 2
ENDMDL
MODEL 6
REMARK VINA RESULT:      -7.9      3.059      4.141
REMARK  Name = 1779
REMARK  2 active torsions:
REMARK  status: ('A' for Active; 'I' for Inactive)
REMARK    1  A    between atoms: CA_8  and  C_16
REMARK    2  A    between atoms: C_16  and  O_17
REMARK                            x       y       z     vdW  Elec       q    Type
REMARK                         _______ _______ _______ _____ _____    ______ ____
ROOT
ATOM      1 CL   UNL     1      32.571 -23.560 -16.637  0.00  0.00    -0.082 Cl
ATOM      2 CL   UNL     1      36.728 -21.378 -19.161  0.00  0.00    -0.082 Cl
ATOM      3  O   UNL     1      33.353 -24.234 -14.035  0.00  0.00    -0.286 OA
ATOM      4  N   UNL     1      37.184 -22.958 -14.292  0.00  0.00    -0.307 N 
ATOM      5  C   UNL     1      36.387 -22.803 -15.432  0.00  0.00    +0.053 C 
ATOM      6  C   UNL     1      35.045 -23.225 -15.410  0.00  0.00    +0.063 C 
ATOM      7  C   UNL     1      34.502 -23.835 -14.165  0.00  0.00    +0.199 C 
ATOM      8  CA  UNL     1      36.682 -23.520 -13.149  0.00  0.00    +0.128 C 
ATOM      9  C   UNL     1      36.899 -22.230 -16.601  0.00  0.00    +0.026 C 
ATOM     10  C   UNL     1      34.230 -23.079 -16.536  0.00  0.00    +0.063 C 
ATOM     11  C   UNL     1      35.425 -23.962 -13.004  0.00  0.00    +0.063 C 
ATOM     12  C   UNL     1      36.086 -22.083 -17.726  0.00  0.00    +0.060 C 
ATOM     13  C   UNL     1      34.756 -22.505 -17.693  0.00  0.00    +0.023 C 
ATOM     14  H   UNL     1      38.122 -22.660 -14.313  0.00  0.00    +0.152 HD
ENDROOT
BRANCH   8  16
ATOM     15  OXT UNL     1      37.644 -24.646 -11.290  0.00  0.00    -0.244 OA
ATOM     16  C   UNL     1      37.577 -23.657 -11.997  0.00  0.00    +0.352 C 
BRANCH  16  17
ATOM     17  O   UNL     1      38.300 -22.527 -11.850  0.00  0.00    -0.476 OA
ATOM     18  H   UNL     1      37.891 -21.692 -11.953  0.00  0.00    +0.295 HD
ENDBRANCH  16  17
ENDBRANCH   8  16
TORSDOF 2
ENDMDL
MODEL 7
REMARK VINA RESULT:      -7.8     12.454     14.337
REMARK  Name = 1779
REMARK  2 active torsions:
REMARK  status: ('A' for Active; 'I' for Inactive)
REMARK    1  A    between atoms: CA_8  and  C_16
REMARK    2  A    between atoms: C_16  and  O_17
REMARK                            x       y       z     vdW  Elec       q    Type
REMARK                         _______ _______ _______ _____ _____    ______ ____
ROOT
ATOM      1 CL   UNL     1      34.445 -18.968 -25.527  0.00  0.00    -0.082 Cl
ATOM      2 CL   UNL     1      36.215 -18.932 -20.499  0.00  0.00    -0.082 Cl
ATOM      3  O   UNL     1      33.549 -16.397 -26.181  0.00  0.00    -0.286 OA
ATOM      4  N   UNL     1      34.347 -14.643 -22.623  0.00  0.00    -0.307 N 
ATOM      5  C   UNL     1      34.658 -16.002 -22.743  0.00  0.00    +0.053 C 
ATOM      6  C   UNL     1      34.406 -16.674 -23.954  0.00  0.00    +0.063 C 
ATOM      7  C   UNL     1      33.808 -15.916 -25.086  0.00  0.00    +0.199 C 
ATOM      8  CA  UNL     1      33.796 -13.949 -23.667  0.00  0.00    +0.128 C 
ATOM      9  C   UNL     1      35.221 -16.712 -21.678  0.00  0.00    +0.026 C 
ATOM     10  C   UNL     1      34.710 -18.030 -24.096  0.00  0.00    +0.063 C 
ATOM     11  C   UNL     1      33.508 -14.474 -24.866  0.00  0.00    +0.063 C 
ATOM     12  C   UNL     1      35.524 -18.068 -21.819  0.00  0.00    +0.060 C 
ATOM     13  C   UNL     1      35.270 -18.724 -23.024  0.00  0.00    +0.023 C 
ATOM     14  H   UNL     1      34.526 -14.177 -21.775  0.00  0.00    +0.152 HD
ENDROOT
BRANCH   8  16
ATOM     15  OXT UNL     1      32.562 -12.111 -22.800  0.00  0.00    -0.244 OA
ATOM     16  C   UNL     1      33.490 -12.529 -23.468  0.00  0.00    +0.352 C 
BRANCH  16  17
ATOM     17  O   UNL     1      34.390 -11.776 -24.134  0.00  0.00    -0.476 OA
ATOM     18  H   UNL     1      34.217 -10.869 -24.292  0.00  0.00    +0.295 HD
ENDBRANCH  16  17
ENDBRANCH   8  16
TORSDOF 2
ENDMDL
MODEL 8
REMARK VINA RESULT:      -7.6     11.711     13.115
REMARK  Name = 1779
REMARK  2 active torsions:
REMARK  status: ('A' for Active; 'I' for Inactive)
REMARK    1  A    between atoms: CA_8  and  C_16
REMARK    2  A    between atoms: C_16  and  O_17
REMARK                            x       y       z     vdW  Elec       q    Type
REMARK                         _______ _______ _______ _____ _____    ______ ____
ROOT
ATOM      1 CL   UNL     1      31.978 -12.879 -21.723  0.00  0.00    -0.082 Cl
ATOM      2 CL   UNL     1      32.906 -13.933 -26.865  0.00  0.00    -0.082 Cl
ATOM      3  O   UNL     1      33.345 -14.757 -20.160  0.00  0.00    -0.286 OA
ATOM      4  N   UNL     1      34.996 -16.862 -23.196  0.00  0.00    -0.307 N 
ATOM      5  C   UNL     1      34.190 -15.772 -23.546  0.00  0.00    +0.053 C 
ATOM      6  C   UNL     1      33.585 -14.997 -22.538  0.00  0.00    +0.063 C 
ATOM      7  C   UNL     1      33.818 -15.361 -21.114  0.00  0.00    +0.199 C 
ATOM      8  CA  UNL     1      35.206 -17.194 -21.884  0.00  0.00    +0.128 C 
ATOM      9  C   UNL     1      33.973 -15.432 -24.885  0.00  0.00    +0.026 C 
ATOM     10  C   UNL     1      32.778 -13.904 -22.864  0.00  0.00    +0.063 C 
ATOM     11  C   UNL     1      34.687 -16.537 -20.838  0.00  0.00    +0.063 C 
ATOM     12  C   UNL     1      33.167 -14.341 -25.211  0.00  0.00    +0.060 C 
ATOM     13  C   UNL     1      32.572 -13.579 -24.205  0.00  0.00    +0.023 C 
ATOM     14  H   UNL     1      35.417 -17.400 -23.904  0.00  0.00    +0.152 HD
ENDROOT
BRANCH   8  16
ATOM     15  OXT UNL     1      35.930 -19.073 -20.621  0.00  0.00    -0.244 OA
ATOM     16  C   UNL     1      36.057 -18.352 -21.593  0.00  0.00    +0.352 C 
BRANCH  16  17
ATOM     17  O   UNL     1      36.987 -18.484 -22.562  0.00  0.00    -0.476 OA
ATOM     18  H   UNL     1      36.726 -18.528 -23.460  0.00  0.00    +0.295 HD
ENDBRANCH  16  17
ENDBRANCH   8  16
TORSDOF 2
ENDMDL
MODEL 9
REMARK VINA RESULT:      -7.6     12.133     13.723
REMARK  Name = 1779
REMARK  2 active torsions:
REMARK  status: ('A' for Active; 'I' for Inactive)
REMARK    1  A    between atoms: CA_8  and  C_16
REMARK    2  A    between atoms: C_16  and  O_17
REMARK                            x       y       z     vdW  Elec       q    Type
REMARK                         _______ _______ _______ _____ _____    ______ ____
ROOT
ATOM      1 CL   UNL     1      35.618 -18.342 -20.617  0.00  0.00    -0.082 Cl
ATOM      2 CL   UNL     1      34.819 -20.404 -25.467  0.00  0.00    -0.082 Cl
ATOM      3  O   UNL     1      35.000 -15.613 -20.689  0.00  0.00    -0.286 OA
ATOM      4  N   UNL     1      33.954 -15.414 -24.592  0.00  0.00    -0.307 N 
ATOM      5  C   UNL     1      34.353 -16.665 -24.106  0.00  0.00    +0.053 C 
ATOM      6  C   UNL     1      34.729 -16.804 -22.757  0.00  0.00    +0.063 C 
ATOM      7  C   UNL     1      34.696 -15.606 -21.874  0.00  0.00    +0.199 C 
ATOM      8  CA  UNL     1      33.926 -14.315 -23.777  0.00  0.00    +0.128 C 
ATOM      9  C   UNL     1      34.383 -17.789 -24.938  0.00  0.00    +0.026 C 
ATOM     10  C   UNL     1      35.130 -18.043 -22.250  0.00  0.00    +0.063 C 
ATOM     11  C   UNL     1      34.260 -14.318 -22.479  0.00  0.00    +0.063 C 
ATOM     12  C   UNL     1      34.783 -19.027 -24.432  0.00  0.00    +0.060 C 
ATOM     13  C   UNL     1      35.154 -19.153 -23.093  0.00  0.00    +0.023 C 
ATOM     14  H   UNL     1      33.691 -15.323 -25.537  0.00  0.00    +0.152 HD
ENDROOT
BRANCH   8  16
ATOM     15  OXT UNL     1      33.494 -12.791 -25.549  0.00  0.00    -0.244 OA
ATOM     16  C   UNL     1      33.503 -13.037 -24.357  0.00  0.00    +0.352 C 
BRANCH  16  17
ATOM     17  O   UNL     1      33.135 -12.193 -23.370  0.00  0.00    -0.476 OA
ATOM     18  H   UNL     1      32.239 -11.938 -23.281  0.00  0.00    +0.295 HD
ENDBRANCH  16  17
ENDBRANCH   8  16
TORSDOF 2
ENDMDL
