MODEL 1
REMARK VINA RESULT:      -8.2      0.000      0.000
REMARK  Name = 158637
REMARK  8 active torsions:
REMARK  status: ('A' for Active; 'I' for Inactive)
REMARK    1  A    between atoms: C_2  and  O_7
REMARK    2  A    between atoms: C_3  and  O_9
REMARK    3  A    between atoms: C_4  and  O_11
REMARK    4  A    between atoms: C_5  and  C_22
REMARK    5  A    between atoms: C_6  and  O_13
REMARK    6  A    between atoms: O_13  and  C_14
REMARK    7  A    between atoms: C_19  and  O_20
REMARK    8  A    between atoms: C_22  and  O_23
REMARK                            x       y       z     vdW  Elec       q    Type
REMARK                         _______ _______ _______ _____ _____    ______ ____
ROOT
ATOM      1  O   UNL     1      36.307 -23.213 -13.851  0.00  0.00    -0.316 OA
ATOM      2  C   UNL     1      36.945 -26.029 -13.827  0.00  0.00    +0.173 C 
ATOM      3  C   UNL     1      37.551 -25.048 -12.821  0.00  0.00    +0.169 C 
ATOM      4  C   UNL     1      36.495 -25.297 -15.089  0.00  0.00    +0.210 C 
ATOM      5  C   UNL     1      36.632 -23.838 -12.603  0.00  0.00    +0.177 C 
ATOM      6  C   UNL     1      35.627 -24.082 -14.758  0.00  0.00    +0.318 C 
ENDROOT
BRANCH   2   7
ATOM      7  O   UNL     1      37.944 -26.990 -14.174  0.00  0.00    -0.379 OA
ATOM      8  H   UNL     1      38.081 -27.598 -13.431  0.00  0.00    +0.211 HD
ENDBRANCH   2   7
BRANCH   3   9
ATOM      9  O   UNL     1      37.755 -25.743 -11.594  0.00  0.00    -0.379 OA
ATOM     10  H   UNL     1      38.495 -26.361 -11.691  0.00  0.00    +0.211 HD
ENDBRANCH   3   9
BRANCH   4  11
ATOM     11  O   UNL     1      35.785 -26.198 -15.930  0.00  0.00    -0.377 OA
ATOM     12  H   UNL     1      36.391 -26.880 -16.259  0.00  0.00    +0.211 HD
ENDBRANCH   4  11
BRANCH   6  13
ATOM     13  O   UNL     1      34.331 -24.448 -14.287  0.00  0.00    -0.451 OA
BRANCH  13  14
ATOM     14  C   UNL     1      33.262 -23.938 -14.975  0.00  0.00    +0.142 C 
ATOM     15  C   UNL     1      32.023 -23.842 -14.351  0.00  0.00    +0.040 C 
ATOM     16  C   UNL     1      33.425 -23.521 -16.292  0.00  0.00    +0.040 C 
ATOM     17  C   UNL     1      30.934 -23.323 -15.052  0.00  0.00    +0.040 C 
ATOM     18  C   UNL     1      32.337 -23.002 -16.993  0.00  0.00    +0.040 C 
ATOM     19  C   UNL     1      31.091 -22.903 -16.372  0.00  0.00    +0.134 C 
BRANCH  19  20
ATOM     20  O   UNL     1      30.029 -22.396 -17.056  0.00  0.00    -0.506 OA
ATOM     21  H   UNL     1      29.332 -21.974 -16.594  0.00  0.00    +0.292 HD
ENDBRANCH  19  20
ENDBRANCH  13  14
ENDBRANCH   6  13
BRANCH   5  22
ATOM     22  C   UNL     1      37.286 -22.772 -11.728  0.00  0.00    +0.169 C 
BRANCH  22  23
ATOM     23  O   UNL     1      38.678 -23.023 -11.678  0.00  0.00    -0.379 OA
ATOM     24  H   UNL     1      38.991 -23.283 -12.559  0.00  0.00    +0.211 HD
ENDBRANCH  22  23
ENDBRANCH   5  22
TORSDOF 8
ENDMDL
MODEL 2
REMARK VINA RESULT:      -8.2      2.037      3.233
REMARK  Name = 158637
REMARK  8 active torsions:
REMARK  status: ('A' for Active; 'I' for Inactive)
REMARK    1  A    between atoms: C_2  and  O_7
REMARK    2  A    between atoms: C_3  and  O_9
REMARK    3  A    between atoms: C_4  and  O_11
REMARK    4  A    between atoms: C_5  and  C_22
REMARK    5  A    between atoms: C_6  and  O_13
REMARK    6  A    between atoms: O_13  and  C_14
REMARK    7  A    between atoms: C_19  and  O_20
REMARK    8  A    between atoms: C_22  and  O_23
REMARK                            x       y       z     vdW  Elec       q    Type
REMARK                         _______ _______ _______ _____ _____    ______ ____
ROOT
ATOM      1  O   UNL     1      36.947 -25.104 -14.455  0.00  0.00    -0.316 OA
ATOM      2  C   UNL     1      36.685 -23.750 -11.918  0.00  0.00    +0.173 C 
ATOM      3  C   UNL     1      37.965 -24.484 -12.321  0.00  0.00    +0.169 C 
ATOM      4  C   UNL     1      35.485 -24.299 -12.687  0.00  0.00    +0.210 C 
ATOM      5  C   UNL     1      38.116 -24.540 -13.847  0.00  0.00    +0.177 C 
ATOM      6  C   UNL     1      35.757 -24.358 -14.191  0.00  0.00    +0.318 C 
ENDROOT
BRANCH   2   7
ATOM      7  O   UNL     1      36.475 -23.950 -10.518  0.00  0.00    -0.379 OA
ATOM      8  H   UNL     1      35.955 -24.758 -10.381  0.00  0.00    +0.211 HD
ENDBRANCH   2   7
BRANCH   3   9
ATOM      9  O   UNL     1      39.070 -23.796 -11.739  0.00  0.00    -0.379 OA
ATOM     10  H   UNL     1      39.136 -24.027 -10.800  0.00  0.00    +0.211 HD
ENDBRANCH   3   9
BRANCH   4  11
ATOM     11  O   UNL     1      34.344 -23.491 -12.422  0.00  0.00    -0.377 OA
ATOM     12  H   UNL     1      34.606 -22.557 -12.412  0.00  0.00    +0.211 HD
ENDBRANCH   4  11
BRANCH   6  13
ATOM     13  O   UNL     1      35.785 -23.066 -14.793  0.00  0.00    -0.451 OA
BRANCH  13  14
ATOM     14  C   UNL     1      35.123 -22.930 -15.984  0.00  0.00    +0.142 C 
ATOM     15  C   UNL     1      35.773 -22.360 -17.073  0.00  0.00    +0.040 C 
ATOM     16  C   UNL     1      33.807 -23.365 -16.095  0.00  0.00    +0.040 C 
ATOM     17  C   UNL     1      35.100 -22.222 -18.287  0.00  0.00    +0.040 C 
ATOM     18  C   UNL     1      33.133 -23.226 -17.308  0.00  0.00    +0.040 C 
ATOM     19  C   UNL     1      33.779 -22.656 -18.405  0.00  0.00    +0.134 C 
BRANCH  19  20
ATOM     20  O   UNL     1      33.122 -22.521 -19.589  0.00  0.00    -0.506 OA
ATOM     21  H   UNL     1      33.046 -23.253 -20.168  0.00  0.00    +0.292 HD
ENDBRANCH  19  20
ENDBRANCH  13  14
ENDBRANCH   6  13
BRANCH   5  22
ATOM     22  C   UNL     1      39.301 -25.402 -14.275  0.00  0.00    +0.169 C 
BRANCH  22  23
ATOM     23  O   UNL     1      40.488 -24.647 -14.113  0.00  0.00    -0.379 OA
ATOM     24  H   UNL     1      40.669 -24.529 -13.167  0.00  0.00    +0.211 HD
ENDBRANCH  22  23
ENDBRANCH   5  22
TORSDOF 8
ENDMDL
MODEL 3
REMARK VINA RESULT:      -8.1      2.476      3.766
REMARK  Name = 158637
REMARK  8 active torsions:
REMARK  status: ('A' for Active; 'I' for Inactive)
REMARK    1  A    between atoms: C_2  and  O_7
REMARK    2  A    between atoms: C_3  and  O_9
REMARK    3  A    between atoms: C_4  and  O_11
REMARK    4  A    between atoms: C_5  and  C_22
REMARK    5  A    between atoms: C_6  and  O_13
REMARK    6  A    between atoms: O_13  and  C_14
REMARK    7  A    between atoms: C_19  and  O_20
REMARK    8  A    between atoms: C_22  and  O_23
REMARK                            x       y       z     vdW  Elec       q    Type
REMARK                         _______ _______ _______ _____ _____    ______ ____
ROOT
ATOM      1  O   UNL     1      35.906 -25.435 -14.832  0.00  0.00    -0.316 OA
ATOM      2  C   UNL     1      35.766 -24.599 -12.072  0.00  0.00    +0.173 C 
ATOM      3  C   UNL     1      36.768 -25.650 -12.555  0.00  0.00    +0.169 C 
ATOM      4  C   UNL     1      34.571 -24.520 -13.019  0.00  0.00    +0.210 C 
ATOM      5  C   UNL     1      37.101 -25.458 -14.041  0.00  0.00    +0.177 C 
ATOM      6  C   UNL     1      35.013 -24.379 -14.476  0.00  0.00    +0.318 C 
ENDROOT
BRANCH   2   7
ATOM      7  O   UNL     1      35.309 -24.979 -10.772  0.00  0.00    -0.379 OA
ATOM      8  H   UNL     1      34.644 -25.680 -10.855  0.00  0.00    +0.211 HD
ENDBRANCH   2   7
BRANCH   3   9
ATOM      9  O   UNL     1      37.947 -25.532 -11.764  0.00  0.00    -0.379 OA
ATOM     10  H   UNL     1      37.757 -24.999 -10.977  0.00  0.00    +0.211 HD
ENDBRANCH   3   9
BRANCH   4  11
ATOM     11  O   UNL     1      33.743 -23.424 -12.645  0.00  0.00    -0.377 OA
ATOM     12  H   UNL     1      32.900 -23.479 -13.120  0.00  0.00    +0.211 HD
ENDBRANCH   4  11
BRANCH   6  13
ATOM     13  O   UNL     1      35.557 -23.091 -14.761  0.00  0.00    -0.451 OA
BRANCH  13  14
ATOM     14  C   UNL     1      35.567 -22.706 -16.075  0.00  0.00    +0.142 C 
ATOM     15  C   UNL     1      34.454 -22.945 -16.872  0.00  0.00    +0.040 C 
ATOM     16  C   UNL     1      36.692 -22.079 -16.600  0.00  0.00    +0.040 C 
ATOM     17  C   UNL     1      34.464 -22.552 -18.210  0.00  0.00    +0.040 C 
ATOM     18  C   UNL     1      36.703 -21.688 -17.939  0.00  0.00    +0.040 C 
ATOM     19  C   UNL     1      35.589 -21.923 -18.744  0.00  0.00    +0.134 C 
BRANCH  19  20
ATOM     20  O   UNL     1      35.599 -21.541 -20.050  0.00  0.00    -0.506 OA
ATOM     21  H   UNL     1      34.932 -20.970 -20.376  0.00  0.00    +0.292 HD
ENDBRANCH  19  20
ENDBRANCH  13  14
ENDBRANCH   6  13
BRANCH   5  22
ATOM     22  C   UNL     1      37.973 -26.587 -14.583  0.00  0.00    +0.169 C 
BRANCH  22  23
ATOM     23  O   UNL     1      38.924 -26.032 -15.474  0.00  0.00    -0.379 OA
ATOM     24  H   UNL     1      39.478 -25.394 -14.998  0.00  0.00    +0.211 HD
ENDBRANCH  22  23
ENDBRANCH   5  22
TORSDOF 8
ENDMDL
MODEL 4
REMARK VINA RESULT:      -8.0      3.595      6.569
REMARK  Name = 158637
REMARK  8 active torsions:
REMARK  status: ('A' for Active; 'I' for Inactive)
REMARK    1  A    between atoms: C_2  and  O_7
REMARK    2  A    between atoms: C_3  and  O_9
REMARK    3  A    between atoms: C_4  and  O_11
REMARK    4  A    between atoms: C_5  and  C_22
REMARK    5  A    between atoms: C_6  and  O_13
REMARK    6  A    between atoms: O_13  and  C_14
REMARK    7  A    between atoms: C_19  and  O_20
REMARK    8  A    between atoms: C_22  and  O_23
REMARK                            x       y       z     vdW  Elec       q    Type
REMARK                         _______ _______ _______ _____ _____    ______ ____
ROOT
ATOM      1  O   UNL     1      30.612 -22.629 -15.961  0.00  0.00    -0.316 OA
ATOM      2  C   UNL     1      30.764 -24.539 -13.801  0.00  0.00    +0.173 C 
ATOM      3  C   UNL     1      29.479 -24.314 -14.601  0.00  0.00    +0.169 C 
ATOM      4  C   UNL     1      31.668 -23.311 -13.880  0.00  0.00    +0.210 C 
ATOM      5  C   UNL     1      29.788 -23.799 -16.014  0.00  0.00    +0.177 C 
ATOM      6  C   UNL     1      31.872 -22.852 -15.325  0.00  0.00    +0.318 C 
ENDROOT
BRANCH   2   7
ATOM      7  O   UNL     1      30.407 -24.769 -12.435  0.00  0.00    -0.379 OA
ATOM      8  H   UNL     1      31.189 -24.656 -11.873  0.00  0.00    +0.211 HD
ENDBRANCH   2   7
BRANCH   3   9
ATOM      9  O   UNL     1      28.779 -25.554 -14.668  0.00  0.00    -0.379 OA
ATOM     10  H   UNL     1      28.497 -25.717 -15.581  0.00  0.00    +0.211 HD
ENDBRANCH   3   9
BRANCH   4  11
ATOM     11  O   UNL     1      32.921 -23.608 -13.274  0.00  0.00    -0.377 OA
ATOM     12  H   UNL     1      32.937 -23.249 -12.373  0.00  0.00    +0.211 HD
ENDBRANCH   4  11
BRANCH   6  13
ATOM     13  O   UNL     1      32.703 -23.741 -16.069  0.00  0.00    -0.451 OA
BRANCH  13  14
ATOM     14  C   UNL     1      33.688 -23.168 -16.829  0.00  0.00    +0.142 C 
ATOM     15  C   UNL     1      34.946 -22.950 -16.278  0.00  0.00    +0.040 C 
ATOM     16  C   UNL     1      33.421 -22.808 -18.146  0.00  0.00    +0.040 C 
ATOM     17  C   UNL     1      35.949 -22.367 -17.052  0.00  0.00    +0.040 C 
ATOM     18  C   UNL     1      34.423 -22.224 -18.920  0.00  0.00    +0.040 C 
ATOM     19  C   UNL     1      35.688 -22.004 -18.373  0.00  0.00    +0.134 C 
BRANCH  19  20
ATOM     20  O   UNL     1      36.666 -21.435 -19.129  0.00  0.00    -0.506 OA
ATOM     21  H   UNL     1      36.442 -20.968 -19.909  0.00  0.00    +0.292 HD
ENDBRANCH  19  20
ENDBRANCH  13  14
ENDBRANCH   6  13
BRANCH   5  22
ATOM     22  C   UNL     1      28.521 -23.419 -16.775  0.00  0.00    +0.169 C 
BRANCH  22  23
ATOM     23  O   UNL     1      27.945 -24.599 -17.306  0.00  0.00    -0.379 OA
ATOM     24  H   UNL     1      28.036 -24.596 -18.271  0.00  0.00    +0.211 HD
ENDBRANCH  22  23
ENDBRANCH   5  22
TORSDOF 8
ENDMDL
MODEL 5
REMARK VINA RESULT:      -8.0      1.402      2.018
REMARK  Name = 158637
REMARK  8 active torsions:
REMARK  status: ('A' for Active; 'I' for Inactive)
REMARK    1  A    between atoms: C_2  and  O_7
REMARK    2  A    between atoms: C_3  and  O_9
REMARK    3  A    between atoms: C_4  and  O_11
REMARK    4  A    between atoms: C_5  and  C_22
REMARK    5  A    between atoms: C_6  and  O_13
REMARK    6  A    between atoms: O_13  and  C_14
REMARK    7  A    between atoms: C_19  and  O_20
REMARK    8  A    between atoms: C_22  and  O_23
REMARK                            x       y       z     vdW  Elec       q    Type
REMARK                         _______ _______ _______ _____ _____    ______ ____
ROOT
ATOM      1  O   UNL     1      35.631 -23.159 -12.997  0.00  0.00    -0.316 OA
ATOM      2  C   UNL     1      37.861 -24.690 -14.006  0.00  0.00    +0.173 C 
ATOM      3  C   UNL     1      37.518 -24.636 -12.516  0.00  0.00    +0.169 C 
ATOM      4  C   UNL     1      37.308 -23.464 -14.730  0.00  0.00    +0.210 C 
ATOM      5  C   UNL     1      36.026 -24.347 -12.300  0.00  0.00    +0.177 C 
ATOM      6  C   UNL     1      35.829 -23.239 -14.409  0.00  0.00    +0.318 C 
ENDROOT
BRANCH   2   7
ATOM      7  O   UNL     1      39.285 -24.708 -14.138  0.00  0.00    -0.379 OA
ATOM      8  H   UNL     1      39.685 -24.251 -13.382  0.00  0.00    +0.211 HD
ENDBRANCH   2   7
BRANCH   3   9
ATOM      9  O   UNL     1      37.868 -25.890 -11.937  0.00  0.00    -0.379 OA
ATOM     10  H   UNL     1      37.139 -26.205 -11.381  0.00  0.00    +0.211 HD
ENDBRANCH   3   9
BRANCH   4  11
ATOM     11  O   UNL     1      37.491 -23.622 -16.133  0.00  0.00    -0.377 OA
ATOM     12  H   UNL     1      36.976 -24.384 -16.442  0.00  0.00    +0.211 HD
ENDBRANCH   4  11
BRANCH   6  13
ATOM     13  O   UNL     1      34.982 -24.211 -15.020  0.00  0.00    -0.451 OA
BRANCH  13  14
ATOM     14  C   UNL     1      33.804 -23.753 -15.546  0.00  0.00    +0.142 C 
ATOM     15  C   UNL     1      33.751 -23.358 -16.878  0.00  0.00    +0.040 C 
ATOM     16  C   UNL     1      32.670 -23.687 -14.743  0.00  0.00    +0.040 C 
ATOM     17  C   UNL     1      32.551 -22.893 -17.415  0.00  0.00    +0.040 C 
ATOM     18  C   UNL     1      31.470 -23.220 -15.279  0.00  0.00    +0.040 C 
ATOM     19  C   UNL     1      31.410 -22.824 -16.616  0.00  0.00    +0.134 C 
BRANCH  19  20
ATOM     20  O   UNL     1      30.239 -22.369 -17.139  0.00  0.00    -0.506 OA
ATOM     21  H   UNL     1      30.249 -21.738 -17.831  0.00  0.00    +0.292 HD
ENDBRANCH  19  20
ENDBRANCH  13  14
ENDBRANCH   6  13
BRANCH   5  22
ATOM     22  C   UNL     1      35.692 -24.132 -10.827  0.00  0.00    +0.169 C 
BRANCH  22  23
ATOM     23  O   UNL     1      35.286 -25.371 -10.273  0.00  0.00    -0.379 OA
ATOM     24  H   UNL     1      35.820 -26.085 -10.653  0.00  0.00    +0.211 HD
ENDBRANCH  22  23
ENDBRANCH   5  22
TORSDOF 8
ENDMDL
MODEL 6
REMARK VINA RESULT:      -7.9      8.264     11.507
REMARK  Name = 158637
REMARK  8 active torsions:
REMARK  status: ('A' for Active; 'I' for Inactive)
REMARK    1  A    between atoms: C_2  and  O_7
REMARK    2  A    between atoms: C_3  and  O_9
REMARK    3  A    between atoms: C_4  and  O_11
REMARK    4  A    between atoms: C_5  and  C_22
REMARK    5  A    between atoms: C_6  and  O_13
REMARK    6  A    between atoms: O_13  and  C_14
REMARK    7  A    between atoms: C_19  and  O_20
REMARK    8  A    between atoms: C_22  and  O_23
REMARK                            x       y       z     vdW  Elec       q    Type
REMARK                         _______ _______ _______ _____ _____    ______ ____
ROOT
ATOM      1  O   UNL     1      35.350 -17.311 -23.333  0.00  0.00    -0.316 OA
ATOM      2  C   UNL     1      33.979 -15.120 -22.047  0.00  0.00    +0.173 C 
ATOM      3  C   UNL     1      34.187 -15.174 -23.562  0.00  0.00    +0.169 C 
ATOM      4  C   UNL     1      35.022 -15.973 -21.330  0.00  0.00    +0.210 C 
ATOM      5  C   UNL     1      34.320 -16.622 -24.053  0.00  0.00    +0.177 C 
ATOM      6  C   UNL     1      35.109 -17.379 -21.927  0.00  0.00    +0.318 C 
ENDROOT
BRANCH   2   7
ATOM      7  O   UNL     1      34.115 -13.761 -21.624  0.00  0.00    -0.379 OA
ATOM      8  H   UNL     1      35.050 -13.505 -21.655  0.00  0.00    +0.211 HD
ENDBRANCH   2   7
BRANCH   3   9
ATOM      9  O   UNL     1      33.071 -14.541 -24.184  0.00  0.00    -0.379 OA
ATOM     10  H   UNL     1      32.459 -14.222 -23.503  0.00  0.00    +0.211 HD
ENDBRANCH   3   9
BRANCH   4  11
ATOM     11  O   UNL     1      34.704 -16.042 -19.945  0.00  0.00    -0.377 OA
ATOM     12  H   UNL     1      35.259 -16.715 -19.519  0.00  0.00    +0.211 HD
ENDBRANCH   4  11
BRANCH   6  13
ATOM     13  O   UNL     1      33.970 -18.178 -21.611  0.00  0.00    -0.451 OA
BRANCH  13  14
ATOM     14  C   UNL     1      34.206 -19.336 -20.920  0.00  0.00    +0.142 C 
ATOM     15  C   UNL     1      35.512 -19.778 -20.740  0.00  0.00    +0.040 C 
ATOM     16  C   UNL     1      33.136 -20.060 -20.402  0.00  0.00    +0.040 C 
ATOM     17  C   UNL     1      35.752 -20.958 -20.035  0.00  0.00    +0.040 C 
ATOM     18  C   UNL     1      33.376 -21.240 -19.698  0.00  0.00    +0.040 C 
ATOM     19  C   UNL     1      34.685 -21.688 -19.514  0.00  0.00    +0.134 C 
BRANCH  19  20
ATOM     20  O   UNL     1      34.919 -22.839 -18.826  0.00  0.00    -0.506 OA
ATOM     21  H   UNL     1      34.631 -23.659 -19.175  0.00  0.00    +0.292 HD
ENDBRANCH  19  20
ENDBRANCH  13  14
ENDBRANCH   6  13
BRANCH   5  22
ATOM     22  C   UNL     1      34.685 -16.695 -25.533  0.00  0.00    +0.169 C 
BRANCH  22  23
ATOM     23  O   UNL     1      33.615 -16.155 -26.287  0.00  0.00    -0.379 OA
ATOM     24  H   UNL     1      33.936 -15.407 -26.813  0.00  0.00    +0.211 HD
ENDBRANCH  22  23
ENDBRANCH   5  22
TORSDOF 8
ENDMDL
MODEL 7
REMARK VINA RESULT:      -7.9      3.195      4.318
REMARK  Name = 158637
REMARK  8 active torsions:
REMARK  status: ('A' for Active; 'I' for Inactive)
REMARK    1  A    between atoms: C_2  and  O_7
REMARK    2  A    between atoms: C_3  and  O_9
REMARK    3  A    between atoms: C_4  and  O_11
REMARK    4  A    between atoms: C_5  and  C_22
REMARK    5  A    between atoms: C_6  and  O_13
REMARK    6  A    between atoms: O_13  and  C_14
REMARK    7  A    between atoms: C_19  and  O_20
REMARK    8  A    between atoms: C_22  and  O_23
REMARK                            x       y       z     vdW  Elec       q    Type
REMARK                         _______ _______ _______ _____ _____    ______ ____
ROOT
ATOM      1  O   UNL     1      34.589 -22.773 -15.260  0.00  0.00    -0.316 OA
ATOM      2  C   UNL     1      37.087 -24.219 -15.184  0.00  0.00    +0.173 C 
ATOM      3  C   UNL     1      35.899 -24.598 -14.297  0.00  0.00    +0.169 C 
ATOM      4  C   UNL     1      36.994 -22.755 -15.611  0.00  0.00    +0.210 C 
ATOM      5  C   UNL     1      34.571 -24.168 -14.935  0.00  0.00    +0.177 C 
ATOM      6  C   UNL     1      35.617 -22.421 -16.187  0.00  0.00    +0.318 C 
ENDROOT
BRANCH   2   7
ATOM      7  O   UNL     1      38.288 -24.412 -14.433  0.00  0.00    -0.379 OA
ATOM      8  H   UNL     1      38.469 -25.361 -14.351  0.00  0.00    +0.211 HD
ENDBRANCH   2   7
BRANCH   3   9
ATOM      9  O   UNL     1      35.924 -26.010 -14.107  0.00  0.00    -0.379 OA
ATOM     10  H   UNL     1      35.853 -26.454 -14.966  0.00  0.00    +0.211 HD
ENDBRANCH   3   9
BRANCH   4  11
ATOM     11  O   UNL     1      38.011 -22.477 -16.567  0.00  0.00    -0.377 OA
ATOM     12  H   UNL     1      37.970 -21.542 -16.819  0.00  0.00    +0.211 HD
ENDBRANCH   4  11
BRANCH   6  13
ATOM     13  O   UNL     1      35.407 -23.001 -17.473  0.00  0.00    -0.451 OA
BRANCH  13  14
ATOM     14  C   UNL     1      35.046 -22.146 -18.479  0.00  0.00    +0.142 C 
ATOM     15  C   UNL     1      36.023 -21.426 -19.157  0.00  0.00    +0.040 C 
ATOM     16  C   UNL     1      33.703 -22.005 -18.816  0.00  0.00    +0.040 C 
ATOM     17  C   UNL     1      35.656 -20.555 -20.182  0.00  0.00    +0.040 C 
ATOM     18  C   UNL     1      33.335 -21.133 -19.840  0.00  0.00    +0.040 C 
ATOM     19  C   UNL     1      34.311 -20.409 -20.525  0.00  0.00    +0.134 C 
BRANCH  19  20
ATOM     20  O   UNL     1      33.952 -19.559 -21.525  0.00  0.00    -0.506 OA
ATOM     21  H   UNL     1      34.257 -18.673 -21.519  0.00  0.00    +0.292 HD
ENDBRANCH  19  20
ENDBRANCH  13  14
ENDBRANCH   6  13
BRANCH   5  22
ATOM     22  C   UNL     1      33.387 -24.393 -13.999  0.00  0.00    +0.169 C 
BRANCH  22  23
ATOM     23  O   UNL     1      33.884 -24.661 -12.701  0.00  0.00    -0.379 OA
ATOM     24  H   UNL     1      33.183 -25.063 -12.163  0.00  0.00    +0.211 HD
ENDBRANCH  22  23
ENDBRANCH   5  22
TORSDOF 8
ENDMDL
MODEL 8
REMARK VINA RESULT:      -7.9      2.477      2.974
REMARK  Name = 158637
REMARK  8 active torsions:
REMARK  status: ('A' for Active; 'I' for Inactive)
REMARK    1  A    between atoms: C_2  and  O_7
REMARK    2  A    between atoms: C_3  and  O_9
REMARK    3  A    between atoms: C_4  and  O_11
REMARK    4  A    between atoms: C_5  and  C_22
REMARK    5  A    between atoms: C_6  and  O_13
REMARK    6  A    between atoms: O_13  and  C_14
REMARK    7  A    between atoms: C_19  and  O_20
REMARK    8  A    between atoms: C_22  and  O_23
REMARK                            x       y       z     vdW  Elec       q    Type
REMARK                         _______ _______ _______ _____ _____    ______ ____
ROOT
ATOM      1  O   UNL     1      37.743 -23.268 -13.948  0.00  0.00    -0.316 OA
ATOM      2  C   UNL     1      36.616 -25.892 -13.522  0.00  0.00    +0.173 C 
ATOM      3  C   UNL     1      37.141 -25.034 -12.369  0.00  0.00    +0.169 C 
ATOM      4  C   UNL     1      37.268 -25.479 -14.840  0.00  0.00    +0.210 C 
ATOM      5  C   UNL     1      37.070 -23.539 -12.712  0.00  0.00    +0.177 C 
ATOM      6  C   UNL     1      37.185 -23.967 -15.061  0.00  0.00    +0.318 C 
ENDROOT
BRANCH   2   7
ATOM      7  O   UNL     1      36.940 -27.257 -13.248  0.00  0.00    -0.379 OA
ATOM      8  H   UNL     1      37.654 -27.295 -12.593  0.00  0.00    +0.211 HD
ENDBRANCH   2   7
BRANCH   3   9
ATOM      9  O   UNL     1      36.353 -25.315 -11.215  0.00  0.00    -0.379 OA
ATOM     10  H   UNL     1      36.594 -24.704 -10.502  0.00  0.00    +0.211 HD
ENDBRANCH   3   9
BRANCH   4  11
ATOM     11  O   UNL     1      36.641 -26.171 -15.913  0.00  0.00    -0.377 OA
ATOM     12  H   UNL     1      35.749 -25.816 -16.049  0.00  0.00    +0.211 HD
ENDBRANCH   4  11
BRANCH   6  13
ATOM     13  O   UNL     1      35.862 -23.531 -15.366  0.00  0.00    -0.451 OA
BRANCH  13  14
ATOM     14  C   UNL     1      35.686 -22.901 -16.569  0.00  0.00    +0.142 C 
ATOM     15  C   UNL     1      34.458 -22.981 -17.216  0.00  0.00    +0.040 C 
ATOM     16  C   UNL     1      36.737 -22.186 -17.133  0.00  0.00    +0.040 C 
ATOM     17  C   UNL     1      34.278 -22.338 -18.441  0.00  0.00    +0.040 C 
ATOM     18  C   UNL     1      36.558 -21.544 -18.358  0.00  0.00    +0.040 C 
ATOM     19  C   UNL     1      35.328 -21.619 -19.012  0.00  0.00    +0.134 C 
BRANCH  19  20
ATOM     20  O   UNL     1      35.154 -20.993 -20.208  0.00  0.00    -0.506 OA
ATOM     21  H   UNL     1      34.464 -20.367 -20.312  0.00  0.00    +0.292 HD
ENDBRANCH  19  20
ENDBRANCH  13  14
ENDBRANCH   6  13
BRANCH   5  22
ATOM     22  C   UNL     1      37.733 -22.674 -11.644  0.00  0.00    +0.169 C 
BRANCH  22  23
ATOM     23  O   UNL     1      37.009 -22.818 -10.436  0.00  0.00    -0.379 OA
ATOM     24  H   UNL     1      36.212 -23.348 -10.598  0.00  0.00    +0.211 HD
ENDBRANCH  22  23
ENDBRANCH   5  22
TORSDOF 8
ENDMDL
MODEL 9
REMARK VINA RESULT:      -7.8      1.517      1.800
REMARK  Name = 158637
REMARK  8 active torsions:
REMARK  status: ('A' for Active; 'I' for Inactive)
REMARK    1  A    between atoms: C_2  and  O_7
REMARK    2  A    between atoms: C_3  and  O_9
REMARK    3  A    between atoms: C_4  and  O_11
REMARK    4  A    between atoms: C_5  and  C_22
REMARK    5  A    between atoms: C_6  and  O_13
REMARK    6  A    between atoms: O_13  and  C_14
REMARK    7  A    between atoms: C_19  and  O_20
REMARK    8  A    between atoms: C_22  and  O_23
REMARK                            x       y       z     vdW  Elec       q    Type
REMARK                         _______ _______ _______ _____ _____    ______ ____
ROOT
ATOM      1  O   UNL     1      35.859 -23.232 -13.184  0.00  0.00    -0.316 OA
ATOM      2  C   UNL     1      37.932 -24.331 -14.867  0.00  0.00    +0.173 C 
ATOM      3  C   UNL     1      37.940 -24.503 -13.346  0.00  0.00    +0.169 C 
ATOM      4  C   UNL     1      37.109 -23.108 -15.265  0.00  0.00    +0.210 C 
ATOM      5  C   UNL     1      36.519 -24.435 -12.772  0.00  0.00    +0.177 C 
ATOM      6  C   UNL     1      35.730 -23.114 -14.602  0.00  0.00    +0.318 C 
ENDROOT
BRANCH   2   7
ATOM      7  O   UNL     1      39.280 -24.150 -15.306  0.00  0.00    -0.379 OA
ATOM      8  H   UNL     1      39.300 -23.508 -16.033  0.00  0.00    +0.211 HD
ENDBRANCH   2   7
BRANCH   3   9
ATOM      9  O   UNL     1      38.536 -25.763 -13.048  0.00  0.00    -0.379 OA
ATOM     10  H   UNL     1      38.506 -25.916 -12.091  0.00  0.00    +0.211 HD
ENDBRANCH   3   9
BRANCH   4  11
ATOM     11  O   UNL     1      36.975 -23.069 -16.681  0.00  0.00    -0.377 OA
ATOM     12  H   UNL     1      36.822 -23.967 -17.016  0.00  0.00    +0.211 HD
ENDBRANCH   4  11
BRANCH   6  13
ATOM     13  O   UNL     1      34.863 -24.105 -15.150  0.00  0.00    -0.451 OA
BRANCH  13  14
ATOM     14  C   UNL     1      33.647 -23.672 -15.606  0.00  0.00    +0.142 C 
ATOM     15  C   UNL     1      32.570 -23.597 -14.730  0.00  0.00    +0.040 C 
ATOM     16  C   UNL     1      33.500 -23.309 -16.941  0.00  0.00    +0.040 C 
ATOM     17  C   UNL     1      31.331 -23.155 -15.194  0.00  0.00    +0.040 C 
ATOM     18  C   UNL     1      32.261 -22.868 -17.405  0.00  0.00    +0.040 C 
ATOM     19  C   UNL     1      31.176 -22.790 -16.531  0.00  0.00    +0.134 C 
BRANCH  19  20
ATOM     20  O   UNL     1      29.967 -22.359 -16.984  0.00  0.00    -0.506 OA
ATOM     21  H   UNL     1      29.867 -21.477 -17.282  0.00  0.00    +0.292 HD
ENDBRANCH  19  20
ENDBRANCH  13  14
ENDBRANCH   6  13
BRANCH   5  22
ATOM     22  C   UNL     1      36.516 -24.446 -11.246  0.00  0.00    +0.169 C 
BRANCH  22  23
ATOM     23  O   UNL     1      35.342 -25.102 -10.803  0.00  0.00    -0.379 OA
ATOM     24  H   UNL     1      34.682 -25.099 -11.515  0.00  0.00    +0.211 HD
ENDBRANCH  22  23
ENDBRANCH   5  22
TORSDOF 8
ENDMDL
