MODEL 1
REMARK VINA RESULT:      -8.2      0.000      0.000
REMARK  Name = 61361
REMARK  3 active torsions:
REMARK  status: ('A' for Active; 'I' for Inactive)
REMARK    1  A    between atoms: C_3  and  C_11
REMARK    2  A    between atoms: C_11  and  C_12
REMARK    3  A    between atoms: C_12  and  C_13
REMARK                            x       y       z     vdW  Elec       q    Type
REMARK                         _______ _______ _______ _____ _____    ______ ____
ROOT
ATOM      1  O   UNL     1      35.302 -18.095 -24.289  0.00  0.00    -0.445 OA
ATOM      2  O   UNL     1      34.598 -16.501 -25.810  0.00  0.00    -0.245 OA
ATOM      3  C   UNL     1      35.444 -18.214 -22.847  0.00  0.00    +0.192 C 
ATOM      4  C   UNL     1      34.972 -16.896 -22.372  0.00  0.00    +0.024 C 
ATOM      5  C   UNL     1      34.612 -16.114 -23.452  0.00  0.00    +0.075 C 
ATOM      6  C   UNL     1      34.815 -16.874 -24.674  0.00  0.00    +0.341 C 
ATOM      7  C   UNL     1      34.870 -16.396 -21.085  0.00  0.00    -0.001 C 
ATOM      8  C   UNL     1      34.136 -14.823 -23.316  0.00  0.00    +0.006 C 
ATOM      9  C   UNL     1      34.393 -15.094 -20.914  0.00  0.00    -0.000 C 
ATOM     10  C   UNL     1      34.028 -14.312 -22.023  0.00  0.00    +0.000 C 
ENDROOT
BRANCH   3  11
ATOM     11  C   UNL     1      34.606 -19.385 -22.363  0.00  0.00    +0.048 C 
BRANCH  11  12
ATOM     12  C   UNL     1      35.181 -19.996 -21.084  0.00  0.00    +0.004 C 
BRANCH  12  13
ATOM     13  C   UNL     1      34.075 -20.537 -20.179  0.00  0.00    +0.000 C 
ATOM     14  C   UNL     1      32.726 -19.925 -20.522  0.00  0.00    +0.000 C 
ENDBRANCH  12  13
ENDBRANCH  11  12
ENDBRANCH   3  11
TORSDOF 3
ENDMDL
MODEL 2
REMARK VINA RESULT:      -7.9      4.343      6.360
REMARK  Name = 61361
REMARK  3 active torsions:
REMARK  status: ('A' for Active; 'I' for Inactive)
REMARK    1  A    between atoms: C_3  and  C_11
REMARK    2  A    between atoms: C_11  and  C_12
REMARK    3  A    between atoms: C_12  and  C_13
REMARK                            x       y       z     vdW  Elec       q    Type
REMARK                         _______ _______ _______ _____ _____    ______ ____
ROOT
ATOM      1  O   UNL     1      34.793 -22.706 -18.397  0.00  0.00    -0.445 OA
ATOM      2  O   UNL     1      32.481 -22.621 -18.403  0.00  0.00    -0.245 OA
ATOM      3  C   UNL     1      35.895 -21.989 -19.016  0.00  0.00    +0.192 C 
ATOM      4  C   UNL     1      35.194 -20.968 -19.825  0.00  0.00    +0.024 C 
ATOM      5  C   UNL     1      33.829 -21.115 -19.678  0.00  0.00    +0.075 C 
ATOM      6  C   UNL     1      33.568 -22.216 -18.765  0.00  0.00    +0.341 C 
ATOM      7  C   UNL     1      35.704 -19.980 -20.650  0.00  0.00    -0.001 C 
ATOM      8  C   UNL     1      32.915 -20.302 -20.322  0.00  0.00    +0.006 C 
ATOM      9  C   UNL     1      34.805 -19.142 -21.316  0.00  0.00    -0.000 C 
ATOM     10  C   UNL     1      33.419 -19.302 -21.153  0.00  0.00    +0.000 C 
ENDROOT
BRANCH   3  11
ATOM     11  C   UNL     1      36.784 -21.413 -17.927  0.00  0.00    +0.048 C 
BRANCH  11  12
ATOM     12  C   UNL     1      36.550 -22.107 -16.585  0.00  0.00    +0.004 C 
BRANCH  12  13
ATOM     13  C   UNL     1      37.820 -22.795 -16.084  0.00  0.00    +0.000 C 
ATOM     14  C   UNL     1      37.501 -23.892 -15.081  0.00  0.00    +0.000 C 
ENDBRANCH  12  13
ENDBRANCH  11  12
ENDBRANCH   3  11
TORSDOF 3
ENDMDL
MODEL 3
REMARK VINA RESULT:      -7.9      2.041      3.071
REMARK  Name = 61361
REMARK  3 active torsions:
REMARK  status: ('A' for Active; 'I' for Inactive)
REMARK    1  A    between atoms: C_3  and  C_11
REMARK    2  A    between atoms: C_11  and  C_12
REMARK    3  A    between atoms: C_12  and  C_13
REMARK                            x       y       z     vdW  Elec       q    Type
REMARK                         _______ _______ _______ _____ _____    ______ ____
ROOT
ATOM      1  O   UNL     1      35.033 -17.344 -20.479  0.00  0.00    -0.445 OA
ATOM      2  O   UNL     1      34.939 -15.089 -20.990  0.00  0.00    -0.245 OA
ATOM      3  C   UNL     1      34.984 -18.609 -21.193  0.00  0.00    +0.192 C 
ATOM      4  C   UNL     1      34.840 -18.173 -22.600  0.00  0.00    +0.024 C 
ATOM      5  C   UNL     1      34.800 -16.794 -22.658  0.00  0.00    +0.075 C 
ATOM      6  C   UNL     1      34.929 -16.261 -21.311  0.00  0.00    +0.341 C 
ATOM      7  C   UNL     1      34.736 -18.923 -23.758  0.00  0.00    -0.001 C 
ATOM      8  C   UNL     1      34.665 -16.098 -23.845  0.00  0.00    +0.006 C 
ATOM      9  C   UNL     1      34.597 -18.249 -24.975  0.00  0.00    -0.000 C 
ATOM     10  C   UNL     1      34.562 -16.846 -25.018  0.00  0.00    +0.000 C 
ENDROOT
BRANCH   3  11
ATOM     11  C   UNL     1      36.259 -19.385 -20.913  0.00  0.00    +0.048 C 
BRANCH  11  12
ATOM     12  C   UNL     1      35.968 -20.705 -20.198  0.00  0.00    +0.004 C 
BRANCH  12  13
ATOM     13  C   UNL     1      34.469 -20.894 -19.965  0.00  0.00    +0.000 C 
ATOM     14  C   UNL     1      34.180 -22.186 -19.216  0.00  0.00    +0.000 C 
ENDBRANCH  12  13
ENDBRANCH  11  12
ENDBRANCH   3  11
TORSDOF 3
ENDMDL
MODEL 4
REMARK VINA RESULT:      -7.8      2.022      5.188
REMARK  Name = 61361
REMARK  3 active torsions:
REMARK  status: ('A' for Active; 'I' for Inactive)
REMARK    1  A    between atoms: C_3  and  C_11
REMARK    2  A    between atoms: C_11  and  C_12
REMARK    3  A    between atoms: C_12  and  C_13
REMARK                            x       y       z     vdW  Elec       q    Type
REMARK                         _______ _______ _______ _____ _____    ______ ____
ROOT
ATOM      1  O   UNL     1      35.949 -18.321 -21.790  0.00  0.00    -0.445 OA
ATOM      2  O   UNL     1      37.824 -19.341 -20.896  0.00  0.00    -0.245 OA
ATOM      3  C   UNL     1      34.508 -18.501 -21.751  0.00  0.00    +0.192 C 
ATOM      4  C   UNL     1      34.359 -19.678 -20.867  0.00  0.00    +0.024 C 
ATOM      5  C   UNL     1      35.605 -20.117 -20.463  0.00  0.00    +0.075 C 
ATOM      6  C   UNL     1      36.621 -19.253 -21.043  0.00  0.00    +0.341 C 
ATOM      7  C   UNL     1      33.218 -20.338 -20.447  0.00  0.00    -0.001 C 
ATOM      8  C   UNL     1      35.782 -21.207 -19.632  0.00  0.00    +0.006 C 
ATOM      9  C   UNL     1      33.363 -21.446 -19.607  0.00  0.00    -0.000 C 
ATOM     10  C   UNL     1      34.636 -21.878 -19.202  0.00  0.00    +0.000 C 
ENDROOT
BRANCH   3  11
ATOM     11  C   UNL     1      33.865 -17.235 -21.211  0.00  0.00    +0.048 C 
BRANCH  11  12
ATOM     12  C   UNL     1      34.720 -16.002 -21.506  0.00  0.00    +0.004 C 
BRANCH  12  13
ATOM     13  C   UNL     1      34.311 -14.818 -20.630  0.00  0.00    +0.000 C 
ATOM     14  C   UNL     1      32.803 -14.762 -20.437  0.00  0.00    +0.000 C 
ENDBRANCH  12  13
ENDBRANCH  11  12
ENDBRANCH   3  11
TORSDOF 3
ENDMDL
MODEL 5
REMARK VINA RESULT:      -7.6      2.336      5.470
REMARK  Name = 61361
REMARK  3 active torsions:
REMARK  status: ('A' for Active; 'I' for Inactive)
REMARK    1  A    between atoms: C_3  and  C_11
REMARK    2  A    between atoms: C_11  and  C_12
REMARK    3  A    between atoms: C_12  and  C_13
REMARK                            x       y       z     vdW  Elec       q    Type
REMARK                         _______ _______ _______ _____ _____    ______ ____
ROOT
ATOM      1  O   UNL     1      34.720 -15.008 -21.954  0.00  0.00    -0.445 OA
ATOM      2  O   UNL     1      35.116 -16.513 -20.242  0.00  0.00    -0.245 OA
ATOM      3  C   UNL     1      34.505 -15.049 -23.391  0.00  0.00    +0.192 C 
ATOM      4  C   UNL     1      34.585 -16.498 -23.681  0.00  0.00    +0.024 C 
ATOM      5  C   UNL     1      34.833 -17.193 -22.515  0.00  0.00    +0.075 C 
ATOM      6  C   UNL     1      34.914 -16.250 -21.411  0.00  0.00    +0.341 C 
ATOM      7  C   UNL     1      34.463 -17.173 -24.883  0.00  0.00    -0.001 C 
ATOM      8  C   UNL     1      34.964 -18.569 -22.477  0.00  0.00    +0.006 C 
ATOM      9  C   UNL     1      34.591 -18.565 -24.879  0.00  0.00    -0.000 C 
ATOM     10  C   UNL     1      34.840 -19.259 -23.683  0.00  0.00    +0.000 C 
ENDROOT
BRANCH   3  11
ATOM     11  C   UNL     1      33.157 -14.427 -23.707  0.00  0.00    +0.048 C 
BRANCH  11  12
ATOM     12  C   UNL     1      33.252 -13.444 -24.875  0.00  0.00    +0.004 C 
BRANCH  12  13
ATOM     13  C   UNL     1      32.923 -14.123 -26.204  0.00  0.00    +0.000 C 
ATOM     14  C   UNL     1      33.436 -13.314 -27.385  0.00  0.00    +0.000 C 
ENDBRANCH  12  13
ENDBRANCH  11  12
ENDBRANCH   3  11
TORSDOF 3
ENDMDL
MODEL 6
REMARK VINA RESULT:      -7.6      2.201      4.676
REMARK  Name = 61361
REMARK  3 active torsions:
REMARK  status: ('A' for Active; 'I' for Inactive)
REMARK    1  A    between atoms: C_3  and  C_11
REMARK    2  A    between atoms: C_11  and  C_12
REMARK    3  A    between atoms: C_12  and  C_13
REMARK                            x       y       z     vdW  Elec       q    Type
REMARK                         _______ _______ _______ _____ _____    ______ ____
ROOT
ATOM      1  O   UNL     1      35.303 -17.554 -20.610  0.00  0.00    -0.445 OA
ATOM      2  O   UNL     1      35.677 -19.810 -20.960  0.00  0.00    -0.245 OA
ATOM      3  C   UNL     1      34.912 -16.396 -21.397  0.00  0.00    +0.192 C 
ATOM      4  C   UNL     1      34.741 -16.974 -22.748  0.00  0.00    +0.024 C 
ATOM      5  C   UNL     1      35.023 -18.325 -22.715  0.00  0.00    +0.075 C 
ATOM      6  C   UNL     1      35.376 -18.701 -21.355  0.00  0.00    +0.341 C 
ATOM      7  C   UNL     1      34.375 -16.367 -23.937  0.00  0.00    -0.001 C 
ATOM      8  C   UNL     1      34.953 -19.133 -23.835  0.00  0.00    +0.006 C 
ATOM      9  C   UNL     1      34.296 -17.156 -25.088  0.00  0.00    -0.000 C 
ATOM     10  C   UNL     1      34.583 -18.530 -25.038  0.00  0.00    +0.000 C 
ENDROOT
BRANCH   3  11
ATOM     11  C   UNL     1      33.642 -15.805 -20.810  0.00  0.00    +0.048 C 
BRANCH  11  12
ATOM     12  C   UNL     1      33.561 -14.297 -21.050  0.00  0.00    +0.004 C 
BRANCH  12  13
ATOM     13  C   UNL     1      32.337 -13.931 -21.890  0.00  0.00    +0.000 C 
ATOM     14  C   UNL     1      32.728 -13.143 -23.130  0.00  0.00    +0.000 C 
ENDBRANCH  12  13
ENDBRANCH  11  12
ENDBRANCH   3  11
TORSDOF 3
ENDMDL
MODEL 7
REMARK VINA RESULT:      -7.5      2.274      5.228
REMARK  Name = 61361
REMARK  3 active torsions:
REMARK  status: ('A' for Active; 'I' for Inactive)
REMARK    1  A    between atoms: C_3  and  C_11
REMARK    2  A    between atoms: C_11  and  C_12
REMARK    3  A    between atoms: C_12  and  C_13
REMARK                            x       y       z     vdW  Elec       q    Type
REMARK                         _______ _______ _______ _____ _____    ______ ____
ROOT
ATOM      1  O   UNL     1      33.726 -18.653 -21.676  0.00  0.00    -0.445 OA
ATOM      2  O   UNL     1      32.114 -20.097 -20.858  0.00  0.00    -0.245 OA
ATOM      3  C   UNL     1      35.168 -18.495 -21.592  0.00  0.00    +0.192 C 
ATOM      4  C   UNL     1      35.561 -19.630 -20.729  0.00  0.00    +0.024 C 
ATOM      5  C   UNL     1      34.438 -20.344 -20.359  0.00  0.00    +0.075 C 
ATOM      6  C   UNL     1      33.267 -19.729 -20.964  0.00  0.00    +0.341 C 
ATOM      7  C   UNL     1      36.811 -20.017 -20.279  0.00  0.00    -0.001 C 
ATOM      8  C   UNL     1      34.494 -21.461 -19.546  0.00  0.00    +0.006 C 
ATOM      9  C   UNL     1      36.902 -21.141 -19.454  0.00  0.00    -0.000 C 
ATOM     10  C   UNL     1      35.751 -21.859 -19.090  0.00  0.00    +0.000 C 
ENDROOT
BRANCH   3  11
ATOM     11  C   UNL     1      35.754 -18.549 -22.992  0.00  0.00    +0.048 C 
BRANCH  11  12
ATOM     12  C   UNL     1      34.691 -18.903 -24.033  0.00  0.00    +0.004 C 
BRANCH  12  13
ATOM     13  C   UNL     1      34.591 -17.827 -25.115  0.00  0.00    +0.000 C 
ATOM     14  C   UNL     1      34.547 -16.432 -24.511  0.00  0.00    +0.000 C 
ENDBRANCH  12  13
ENDBRANCH  11  12
ENDBRANCH   3  11
TORSDOF 3
ENDMDL
MODEL 8
REMARK VINA RESULT:      -7.4      3.690      5.511
REMARK  Name = 61361
REMARK  3 active torsions:
REMARK  status: ('A' for Active; 'I' for Inactive)
REMARK    1  A    between atoms: C_3  and  C_11
REMARK    2  A    between atoms: C_11  and  C_12
REMARK    3  A    between atoms: C_12  and  C_13
REMARK                            x       y       z     vdW  Elec       q    Type
REMARK                         _______ _______ _______ _____ _____    ______ ____
ROOT
ATOM      1  O   UNL     1      32.944 -21.842 -19.783  0.00  0.00    -0.445 OA
ATOM      2  O   UNL     1      32.051 -20.002 -20.863  0.00  0.00    -0.245 OA
ATOM      3  C   UNL     1      34.258 -22.323 -19.389  0.00  0.00    +0.192 C 
ATOM      4  C   UNL     1      35.147 -21.242 -19.869  0.00  0.00    +0.024 C 
ATOM      5  C   UNL     1      34.396 -20.260 -20.484  0.00  0.00    +0.075 C 
ATOM      6  C   UNL     1      32.992 -20.634 -20.426  0.00  0.00    +0.341 C 
ATOM      7  C   UNL     1      36.524 -21.121 -19.792  0.00  0.00    -0.001 C 
ATOM      8  C   UNL     1      34.957 -19.124 -21.037  0.00  0.00    +0.006 C 
ATOM      9  C   UNL     1      37.122 -19.984 -20.344  0.00  0.00    -0.000 C 
ATOM     10  C   UNL     1      36.344 -18.992 -20.962  0.00  0.00    +0.000 C 
ENDROOT
BRANCH   3  11
ATOM     11  C   UNL     1      34.282 -22.521 -17.883  0.00  0.00    +0.048 C 
BRANCH  11  12
ATOM     12  C   UNL     1      33.318 -23.625 -17.447  0.00  0.00    +0.004 C 
BRANCH  12  13
ATOM     13  C   UNL     1      32.582 -23.247 -16.161  0.00  0.00    +0.000 C 
ATOM     14  C   UNL     1      31.120 -22.926 -16.430  0.00  0.00    +0.000 C 
ENDBRANCH  12  13
ENDBRANCH  11  12
ENDBRANCH   3  11
TORSDOF 3
ENDMDL
MODEL 9
REMARK VINA RESULT:      -7.3      2.472      5.758
REMARK  Name = 61361
REMARK  3 active torsions:
REMARK  status: ('A' for Active; 'I' for Inactive)
REMARK    1  A    between atoms: C_3  and  C_11
REMARK    2  A    between atoms: C_11  and  C_12
REMARK    3  A    between atoms: C_12  and  C_13
REMARK                            x       y       z     vdW  Elec       q    Type
REMARK                         _______ _______ _______ _____ _____    ______ ____
ROOT
ATOM      1  O   UNL     1      33.239 -14.315 -25.163  0.00  0.00    -0.445 OA
ATOM      2  O   UNL     1      34.139 -16.288 -25.969  0.00  0.00    -0.245 OA
ATOM      3  C   UNL     1      33.090 -13.648 -23.880  0.00  0.00    +0.192 C 
ATOM      4  C   UNL     1      33.735 -14.601 -22.951  0.00  0.00    +0.024 C 
ATOM      5  C   UNL     1      34.189 -15.700 -23.653  0.00  0.00    +0.075 C 
ATOM      6  C   UNL     1      33.881 -15.521 -25.062  0.00  0.00    +0.341 C 
ATOM      7  C   UNL     1      33.909 -14.529 -21.580  0.00  0.00    -0.001 C 
ATOM      8  C   UNL     1      34.832 -16.763 -23.046  0.00  0.00    +0.006 C 
ATOM      9  C   UNL     1      34.555 -15.588 -20.936  0.00  0.00    -0.000 C 
ATOM     10  C   UNL     1      35.014 -16.698 -21.664  0.00  0.00    +0.000 C 
ENDROOT
BRANCH   3  11
ATOM     11  C   UNL     1      33.769 -12.291 -23.947  0.00  0.00    +0.048 C 
BRANCH  11  12
ATOM     12  C   UNL     1      33.915 -11.806 -25.390  0.00  0.00    +0.004 C 
BRANCH  12  13
ATOM     13  C   UNL     1      34.970 -10.705 -25.504  0.00  0.00    +0.000 C 
ATOM     14  C   UNL     1      34.839  -9.691 -24.378  0.00  0.00    +0.000 C 
ENDBRANCH  12  13
ENDBRANCH  11  12
ENDBRANCH   3  11
TORSDOF 3
ENDMDL
