MODEL 1
REMARK VINA RESULT:      -7.2      0.000      0.000
REMARK  Name = 3346
REMARK  5 active torsions:
REMARK  status: ('A' for Active; 'I' for Inactive)
REMARK    1  A    between atoms: C_2  and  O_10
REMARK    2  A    between atoms: C_3  and  S_8
REMARK    3  A    between atoms: O_10  and  P_12
REMARK    4  A    between atoms: P_12  and  O_13
REMARK    5  A    between atoms: P_12  and  O_15
REMARK                            x       y       z     vdW  Elec       q    Type
REMARK                         _______ _______ _______ _____ _____    ______ ____
ROOT
ATOM      1  C   UNL     1      34.846 -18.114 -23.149  0.00  0.00    -0.013 C 
ATOM      2  C   UNL     1      34.754 -15.723 -22.861  0.00  0.00    +0.146 C 
ATOM      3  C   UNL     1      34.847 -18.279 -21.764  0.00  0.00    +0.021 C 
ATOM      4  C   UNL     1      34.800 -16.832 -23.699  0.00  0.00    +0.034 C 
ATOM      5  C   UNL     1      34.755 -15.881 -21.479  0.00  0.00    +0.038 C 
ATOM      6  C   UNL     1      34.802 -17.162 -20.929  0.00  0.00    +0.009 C 
ATOM      7  C   UNL     1      34.895 -19.279 -24.086  0.00  0.00    +0.032 C 
ENDROOT
BRANCH   3   8
ATOM      8  S   UNL     1      34.906 -19.899 -21.010  0.00  0.00    -0.113 S 
ATOM      9  C   UNL     1      33.173 -20.141 -20.533  0.00  0.00    +0.074 C 
ENDBRANCH   3   8
BRANCH   2  10
ATOM     10  O   UNL     1      34.708 -14.466 -23.400  0.00  0.00    -0.425 OA
BRANCH  10  12
ATOM     11  S   UNL     1      32.990 -14.346 -25.917  0.00  0.00    +0.036 S 
ATOM     12  P   UNL     1      33.426 -13.767 -24.106  0.00  0.00    +0.363 P 
BRANCH  12  13
ATOM     13  O   UNL     1      33.796 -12.191 -23.933  0.00  0.00    -0.286 OA
ATOM     14  C   UNL     1      34.044 -11.394 -25.080  0.00  0.00    +0.185 C 
ENDBRANCH  12  13
BRANCH  12  15
ATOM     15  O   UNL     1      32.275 -13.941 -22.969  0.00  0.00    -0.286 OA
ATOM     16  C   UNL     1      32.250 -13.066 -21.854  0.00  0.00    +0.185 C 
ENDBRANCH  12  15
ENDBRANCH  10  12
ENDBRANCH   2  10
TORSDOF 5
ENDMDL
MODEL 2
REMARK VINA RESULT:      -7.1      1.455      1.821
REMARK  Name = 3346
REMARK  5 active torsions:
REMARK  status: ('A' for Active; 'I' for Inactive)
REMARK    1  A    between atoms: C_2  and  O_10
REMARK    2  A    between atoms: C_3  and  S_8
REMARK    3  A    between atoms: O_10  and  P_12
REMARK    4  A    between atoms: P_12  and  O_13
REMARK    5  A    between atoms: P_12  and  O_15
REMARK                            x       y       z     vdW  Elec       q    Type
REMARK                         _______ _______ _______ _____ _____    ______ ____
ROOT
ATOM      1  C   UNL     1      34.819 -18.090 -23.143  0.00  0.00    -0.013 C 
ATOM      2  C   UNL     1      34.745 -15.692 -22.907  0.00  0.00    +0.146 C 
ATOM      3  C   UNL     1      34.786 -18.225 -21.755  0.00  0.00    +0.021 C 
ATOM      4  C   UNL     1      34.800 -16.820 -23.721  0.00  0.00    +0.034 C 
ATOM      5  C   UNL     1      34.710 -15.821 -21.523  0.00  0.00    +0.038 C 
ATOM      6  C   UNL     1      34.731 -17.090 -20.946  0.00  0.00    +0.009 C 
ATOM      7  C   UNL     1      34.879 -19.275 -24.053  0.00  0.00    +0.032 C 
ENDROOT
BRANCH   3   8
ATOM      8  S   UNL     1      34.810 -19.829 -20.966  0.00  0.00    -0.113 S 
ATOM      9  C   UNL     1      33.054 -20.071 -20.581  0.00  0.00    +0.074 C 
ENDBRANCH   3   8
BRANCH   2  10
ATOM     10  O   UNL     1      34.725 -14.447 -23.474  0.00  0.00    -0.425 OA
BRANCH  10  12
ATOM     11  S   UNL     1      32.278 -13.140 -22.207  0.00  0.00    +0.036 S 
ATOM     12  P   UNL     1      33.413 -13.532 -23.743  0.00  0.00    +0.363 P 
BRANCH  12  13
ATOM     13  O   UNL     1      32.705 -14.352 -24.959  0.00  0.00    -0.286 OA
ATOM     14  C   UNL     1      33.129 -14.139 -26.295  0.00  0.00    +0.185 C 
ENDBRANCH  12  13
BRANCH  12  15
ATOM     15  O   UNL     1      34.042 -12.266 -24.549  0.00  0.00    -0.286 OA
ATOM     16  C   UNL     1      33.788 -10.946 -24.096  0.00  0.00    +0.185 C 
ENDBRANCH  12  15
ENDBRANCH  10  12
ENDBRANCH   2  10
TORSDOF 5
ENDMDL
MODEL 3
REMARK VINA RESULT:      -7.1      1.296      1.975
REMARK  Name = 3346
REMARK  5 active torsions:
REMARK  status: ('A' for Active; 'I' for Inactive)
REMARK    1  A    between atoms: C_2  and  O_10
REMARK    2  A    between atoms: C_3  and  S_8
REMARK    3  A    between atoms: O_10  and  P_12
REMARK    4  A    between atoms: P_12  and  O_13
REMARK    5  A    between atoms: P_12  and  O_15
REMARK                            x       y       z     vdW  Elec       q    Type
REMARK                         _______ _______ _______ _____ _____    ______ ____
ROOT
ATOM      1  C   UNL     1      34.806 -18.060 -23.130  0.00  0.00    -0.013 C 
ATOM      2  C   UNL     1      34.747 -15.671 -22.817  0.00  0.00    +0.146 C 
ATOM      3  C   UNL     1      34.743 -18.240 -21.749  0.00  0.00    +0.021 C 
ATOM      4  C   UNL     1      34.809 -16.771 -23.666  0.00  0.00    +0.034 C 
ATOM      5  C   UNL     1      34.683 -15.844 -21.438  0.00  0.00    +0.038 C 
ATOM      6  C   UNL     1      34.681 -17.132 -20.903  0.00  0.00    +0.009 C 
ATOM      7  C   UNL     1      34.875 -19.214 -24.078  0.00  0.00    +0.032 C 
ENDROOT
BRANCH   3   8
ATOM      8  S   UNL     1      34.737 -19.870 -21.013  0.00  0.00    -0.113 S 
ATOM      9  C   UNL     1      32.985 -20.068 -20.583  0.00  0.00    +0.074 C 
ENDBRANCH   3   8
BRANCH   2  10
ATOM     10  O   UNL     1      34.749 -14.407 -23.342  0.00  0.00    -0.425 OA
BRANCH  10  12
ATOM     11  S   UNL     1      33.730 -11.723 -24.369  0.00  0.00    +0.036 S 
ATOM     12  P   UNL     1      33.466 -13.602 -23.922  0.00  0.00    +0.363 P 
BRANCH  12  13
ATOM     13  O   UNL     1      32.359 -13.910 -22.768  0.00  0.00    -0.286 OA
ATOM     14  C   UNL     1      32.158 -12.981 -21.716  0.00  0.00    +0.185 C 
ENDBRANCH  12  13
BRANCH  12  15
ATOM     15  O   UNL     1      32.955 -14.589 -25.111  0.00  0.00    -0.286 OA
ATOM     16  C   UNL     1      33.063 -14.176 -26.463  0.00  0.00    +0.185 C 
ENDBRANCH  12  15
ENDBRANCH  10  12
ENDBRANCH   2  10
TORSDOF 5
ENDMDL
MODEL 4
REMARK VINA RESULT:      -6.7      9.226     12.102
REMARK  Name = 3346
REMARK  5 active torsions:
REMARK  status: ('A' for Active; 'I' for Inactive)
REMARK    1  A    between atoms: C_2  and  O_10
REMARK    2  A    between atoms: C_3  and  S_8
REMARK    3  A    between atoms: O_10  and  P_12
REMARK    4  A    between atoms: P_12  and  O_13
REMARK    5  A    between atoms: P_12  and  O_15
REMARK                            x       y       z     vdW  Elec       q    Type
REMARK                         _______ _______ _______ _____ _____    ______ ____
ROOT
ATOM      1  C   UNL     1      34.793 -22.916 -16.846  0.00  0.00    -0.013 C 
ATOM      2  C   UNL     1      36.844 -22.837 -15.581  0.00  0.00    +0.146 C 
ATOM      3  C   UNL     1      35.405 -22.203 -17.877  0.00  0.00    +0.021 C 
ATOM      4  C   UNL     1      35.515 -23.234 -15.694  0.00  0.00    +0.034 C 
ATOM      5  C   UNL     1      37.459 -22.127 -16.607  0.00  0.00    +0.038 C 
ATOM      6  C   UNL     1      36.737 -21.809 -17.757  0.00  0.00    +0.009 C 
ATOM      7  C   UNL     1      33.368 -23.360 -16.926  0.00  0.00    +0.032 C 
ENDROOT
BRANCH   3   8
ATOM      8  S   UNL     1      34.523 -21.772 -19.372  0.00  0.00    -0.113 S 
ATOM      9  C   UNL     1      35.737 -20.722 -20.219  0.00  0.00    +0.074 C 
ENDBRANCH   3   8
BRANCH   2  10
ATOM     10  O   UNL     1      37.552 -23.149 -14.453  0.00  0.00    -0.425 OA
BRANCH  10  12
ATOM     11  S   UNL     1      36.468 -25.038 -12.318  0.00  0.00    +0.036 S 
ATOM     12  P   UNL     1      37.691 -24.617 -13.777  0.00  0.00    +0.363 P 
BRANCH  12  13
ATOM     13  O   UNL     1      39.276 -24.640 -13.405  0.00  0.00    -0.286 OA
ATOM     14  C   UNL     1      40.173 -25.412 -14.186  0.00  0.00    +0.185 C 
ENDBRANCH  12  13
BRANCH  12  15
ATOM     15  O   UNL     1      37.665 -25.594 -15.079  0.00  0.00    -0.286 OA
ATOM     16  C   UNL     1      36.835 -26.743 -15.081  0.00  0.00    +0.185 C 
ENDBRANCH  12  15
ENDBRANCH  10  12
ENDBRANCH   2  10
TORSDOF 5
ENDMDL
MODEL 5
REMARK VINA RESULT:      -6.6      3.220      6.095
REMARK  Name = 3346
REMARK  5 active torsions:
REMARK  status: ('A' for Active; 'I' for Inactive)
REMARK    1  A    between atoms: C_2  and  O_10
REMARK    2  A    between atoms: C_3  and  S_8
REMARK    3  A    between atoms: O_10  and  P_12
REMARK    4  A    between atoms: P_12  and  O_13
REMARK    5  A    between atoms: P_12  and  O_15
REMARK                            x       y       z     vdW  Elec       q    Type
REMARK                         _______ _______ _______ _____ _____    ______ ____
ROOT
ATOM      1  C   UNL     1      33.840 -14.636 -22.803  0.00  0.00    -0.013 C 
ATOM      2  C   UNL     1      34.569 -16.192 -21.114  0.00  0.00    +0.146 C 
ATOM      3  C   UNL     1      33.014 -14.012 -21.868  0.00  0.00    +0.021 C 
ATOM      4  C   UNL     1      34.619 -15.730 -22.425  0.00  0.00    +0.034 C 
ATOM      5  C   UNL     1      33.748 -15.574 -20.177  0.00  0.00    +0.038 C 
ATOM      6  C   UNL     1      32.968 -14.481 -20.556  0.00  0.00    +0.009 C 
ATOM      7  C   UNL     1      33.923 -14.172 -24.222  0.00  0.00    +0.032 C 
ENDROOT
BRANCH   3   8
ATOM      8  S   UNL     1      31.995 -12.608 -22.303  0.00  0.00    -0.113 S 
ATOM      9  C   UNL     1      31.595 -11.929 -20.669  0.00  0.00    +0.074 C 
ENDBRANCH   3   8
BRANCH   2  10
ATOM     10  O   UNL     1      35.334 -17.264 -20.743  0.00  0.00    -0.425 OA
BRANCH  10  12
ATOM     11  S   UNL     1      33.412 -19.622 -20.967  0.00  0.00    +0.036 S 
ATOM     12  P   UNL     1      35.156 -18.796 -21.246  0.00  0.00    +0.363 P 
BRANCH  12  13
ATOM     13  O   UNL     1      36.412 -19.517 -20.501  0.00  0.00    -0.286 OA
ATOM     14  C   UNL     1      36.250 -20.806 -19.934  0.00  0.00    +0.185 C 
ENDBRANCH  12  13
BRANCH  12  15
ATOM     15  O   UNL     1      35.709 -18.717 -22.775  0.00  0.00    -0.286 OA
ATOM     16  C   UNL     1      34.901 -19.185 -23.841  0.00  0.00    +0.185 C 
ENDBRANCH  12  15
ENDBRANCH  10  12
ENDBRANCH   2  10
TORSDOF 5
ENDMDL
MODEL 6
REMARK VINA RESULT:      -6.6      9.549     12.408
REMARK  Name = 3346
REMARK  5 active torsions:
REMARK  status: ('A' for Active; 'I' for Inactive)
REMARK    1  A    between atoms: C_2  and  O_10
REMARK    2  A    between atoms: C_3  and  S_8
REMARK    3  A    between atoms: O_10  and  P_12
REMARK    4  A    between atoms: P_12  and  O_13
REMARK    5  A    between atoms: P_12  and  O_15
REMARK                            x       y       z     vdW  Elec       q    Type
REMARK                         _______ _______ _______ _____ _____    ______ ____
ROOT
ATOM      1  C   UNL     1      34.652 -22.983 -16.783  0.00  0.00    -0.013 C 
ATOM      2  C   UNL     1      36.412 -23.164 -15.147  0.00  0.00    +0.146 C 
ATOM      3  C   UNL     1      35.518 -22.298 -17.635  0.00  0.00    +0.021 C 
ATOM      4  C   UNL     1      35.100 -23.417 -15.535  0.00  0.00    +0.034 C 
ATOM      5  C   UNL     1      37.280 -22.481 -15.992  0.00  0.00    +0.038 C 
ATOM      6  C   UNL     1      36.831 -22.047 -17.239  0.00  0.00    +0.009 C 
ATOM      7  C   UNL     1      33.235 -23.275 -17.160  0.00  0.00    +0.032 C 
ENDROOT
BRANCH   3   8
ATOM      8  S   UNL     1      34.991 -21.721 -19.244  0.00  0.00    -0.113 S 
ATOM      9  C   UNL     1      36.497 -20.909 -19.849  0.00  0.00    +0.074 C 
ENDBRANCH   3   8
BRANCH   2  10
ATOM     10  O   UNL     1      36.852 -23.590 -13.923  0.00  0.00    -0.425 OA
BRANCH  10  12
ATOM     11  S   UNL     1      37.090 -26.509 -14.774  0.00  0.00    +0.036 S 
ATOM     12  P   UNL     1      37.531 -25.024 -13.589  0.00  0.00    +0.363 P 
BRANCH  12  13
ATOM     13  O   UNL     1      37.110 -25.212 -12.028  0.00  0.00    -0.286 OA
ATOM     14  C   UNL     1      35.924 -24.608 -11.539  0.00  0.00    +0.185 C 
ENDBRANCH  12  13
BRANCH  12  15
ATOM     15  O   UNL     1      39.103 -24.629 -13.440  0.00  0.00    -0.286 OA
ATOM     16  C   UNL     1      40.091 -25.419 -14.079  0.00  0.00    +0.185 C 
ENDBRANCH  12  15
ENDBRANCH  10  12
ENDBRANCH   2  10
TORSDOF 5
ENDMDL
MODEL 7
REMARK VINA RESULT:      -6.5      3.158      6.368
REMARK  Name = 3346
REMARK  5 active torsions:
REMARK  status: ('A' for Active; 'I' for Inactive)
REMARK    1  A    between atoms: C_2  and  O_10
REMARK    2  A    between atoms: C_3  and  S_8
REMARK    3  A    between atoms: O_10  and  P_12
REMARK    4  A    between atoms: P_12  and  O_13
REMARK    5  A    between atoms: P_12  and  O_15
REMARK                            x       y       z     vdW  Elec       q    Type
REMARK                         _______ _______ _______ _____ _____    ______ ____
ROOT
ATOM      1  C   UNL     1      33.369 -14.451 -21.333  0.00  0.00    -0.013 C 
ATOM      2  C   UNL     1      34.759 -16.420 -21.364  0.00  0.00    +0.146 C 
ATOM      3  C   UNL     1      33.716 -14.188 -22.658  0.00  0.00    +0.021 C 
ATOM      4  C   UNL     1      33.892 -15.570 -20.684  0.00  0.00    +0.034 C 
ATOM      5  C   UNL     1      35.108 -16.163 -22.686  0.00  0.00    +0.038 C 
ATOM      6  C   UNL     1      34.585 -15.044 -23.334  0.00  0.00    +0.009 C 
ATOM      7  C   UNL     1      32.443 -13.563 -20.565  0.00  0.00    +0.032 C 
ENDROOT
BRANCH   3   8
ATOM      8  S   UNL     1      33.073 -12.767 -23.534  0.00  0.00    -0.113 S 
ATOM      9  C   UNL     1      33.404 -13.223 -25.258  0.00  0.00    +0.074 C 
ENDBRANCH   3   8
BRANCH   2  10
ATOM     10  O   UNL     1      35.271 -17.518 -20.728  0.00  0.00    -0.425 OA
BRANCH  10  12
ATOM     11  S   UNL     1      33.167 -19.722 -20.858  0.00  0.00    +0.036 S 
ATOM     12  P   UNL     1      34.988 -19.070 -21.106  0.00  0.00    +0.363 P 
BRANCH  12  13
ATOM     13  O   UNL     1      36.136 -19.818 -20.227  0.00  0.00    -0.286 OA
ATOM     14  C   UNL     1      36.082 -21.224 -20.045  0.00  0.00    +0.185 C 
ENDBRANCH  12  13
BRANCH  12  15
ATOM     15  O   UNL     1      35.623 -19.177 -22.600  0.00  0.00    -0.286 OA
ATOM     16  C   UNL     1      34.773 -19.401 -23.712  0.00  0.00    +0.185 C 
ENDBRANCH  12  15
ENDBRANCH  10  12
ENDBRANCH   2  10
TORSDOF 5
ENDMDL
MODEL 8
REMARK VINA RESULT:      -6.5     10.711     12.790
REMARK  Name = 3346
REMARK  5 active torsions:
REMARK  status: ('A' for Active; 'I' for Inactive)
REMARK    1  A    between atoms: C_2  and  O_10
REMARK    2  A    between atoms: C_3  and  S_8
REMARK    3  A    between atoms: O_10  and  P_12
REMARK    4  A    between atoms: P_12  and  O_13
REMARK    5  A    between atoms: P_12  and  O_15
REMARK                            x       y       z     vdW  Elec       q    Type
REMARK                         _______ _______ _______ _____ _____    ______ ____
ROOT
ATOM      1  C   UNL     1      33.586 -23.331 -16.283  0.00  0.00    -0.013 C 
ATOM      2  C   UNL     1      35.393 -23.661 -14.722  0.00  0.00    +0.146 C 
ATOM      3  C   UNL     1      32.668 -23.661 -15.286  0.00  0.00    +0.021 C 
ATOM      4  C   UNL     1      34.953 -23.332 -16.000  0.00  0.00    +0.034 C 
ATOM      5  C   UNL     1      34.482 -23.990 -13.724  0.00  0.00    +0.038 C 
ATOM      6  C   UNL     1      33.116 -23.991 -14.007  0.00  0.00    +0.009 C 
ATOM      7  C   UNL     1      33.156 -22.973 -17.669  0.00  0.00    +0.032 C 
ENDROOT
BRANCH   3   8
ATOM      8  S   UNL     1      30.907 -23.676 -15.597  0.00  0.00    -0.113 S 
ATOM      9  C   UNL     1      30.388 -25.153 -14.681  0.00  0.00    +0.074 C 
ENDBRANCH   3   8
BRANCH   2  10
ATOM     10  O   UNL     1      36.733 -23.661 -14.445  0.00  0.00    -0.425 OA
BRANCH  10  12
ATOM     11  S   UNL     1      37.021 -26.647 -14.995  0.00  0.00    +0.036 S 
ATOM     12  P   UNL     1      37.679 -24.965 -14.259  0.00  0.00    +0.363 P 
BRANCH  12  13
ATOM     13  O   UNL     1      37.929 -24.942 -12.651  0.00  0.00    -0.286 OA
ATOM     14  C   UNL     1      37.913 -23.709 -11.951  0.00  0.00    +0.185 C 
ENDBRANCH  12  13
BRANCH  12  15
ATOM     15  O   UNL     1      39.114 -24.423 -14.802  0.00  0.00    -0.286 OA
ATOM     16  C   UNL     1      40.198 -25.325 -14.948  0.00  0.00    +0.185 C 
ENDBRANCH  12  15
ENDBRANCH  10  12
ENDBRANCH   2  10
TORSDOF 5
ENDMDL
MODEL 9
REMARK VINA RESULT:      -6.4      3.034      6.053
REMARK  Name = 3346
REMARK  5 active torsions:
REMARK  status: ('A' for Active; 'I' for Inactive)
REMARK    1  A    between atoms: C_2  and  O_10
REMARK    2  A    between atoms: C_3  and  S_8
REMARK    3  A    between atoms: O_10  and  P_12
REMARK    4  A    between atoms: P_12  and  O_13
REMARK    5  A    between atoms: P_12  and  O_15
REMARK                            x       y       z     vdW  Elec       q    Type
REMARK                         _______ _______ _______ _____ _____    ______ ____
ROOT
ATOM      1  C   UNL     1      33.347 -14.528 -21.120  0.00  0.00    -0.013 C 
ATOM      2  C   UNL     1      34.836 -16.398 -21.427  0.00  0.00    +0.146 C 
ATOM      3  C   UNL     1      33.482 -14.203 -22.470  0.00  0.00    +0.021 C 
ATOM      4  C   UNL     1      34.027 -15.629 -20.597  0.00  0.00    +0.034 C 
ATOM      5  C   UNL     1      34.974 -16.079 -22.773  0.00  0.00    +0.038 C 
ATOM      6  C   UNL     1      34.295 -14.978 -23.296  0.00  0.00    +0.009 C 
ATOM      7  C   UNL     1      32.489 -13.728 -20.194  0.00  0.00    +0.032 C 
ENDROOT
BRANCH   3   8
ATOM      8  S   UNL     1      32.633 -12.802 -23.188  0.00  0.00    -0.113 S 
ATOM      9  C   UNL     1      33.875 -12.184 -24.356  0.00  0.00    +0.074 C 
ENDBRANCH   3   8
BRANCH   2  10
ATOM     10  O   UNL     1      35.502 -17.478 -20.914  0.00  0.00    -0.425 OA
BRANCH  10  12
ATOM     11  S   UNL     1      36.146 -20.373 -20.203  0.00  0.00    +0.036 S 
ATOM     12  P   UNL     1      35.272 -19.033 -21.317  0.00  0.00    +0.363 P 
BRANCH  12  13
ATOM     13  O   UNL     1      35.710 -19.016 -22.885  0.00  0.00    -0.286 OA
ATOM     14  C   UNL     1      34.763 -19.347 -23.887  0.00  0.00    +0.185 C 
ENDBRANCH  12  13
BRANCH  12  15
ATOM     15  O   UNL     1      33.652 -19.112 -21.450  0.00  0.00    -0.286 OA
ATOM     16  C   UNL     1      32.917 -19.976 -20.599  0.00  0.00    +0.185 C 
ENDBRANCH  12  15
ENDBRANCH  10  12
ENDBRANCH   2  10
TORSDOF 5
ENDMDL
