MODEL 1
REMARK VINA RESULT:      -7.9      0.000      0.000
REMARK  Name = 11987823
REMARK  8 active torsions:
REMARK  status: ('A' for Active; 'I' for Inactive)
REMARK    1  A    between atoms: C_1  and  C_7
REMARK    2  A    between atoms: C_1  and  C_13
REMARK    3  A    between atoms: C_13  and  C_14
REMARK    4  A    between atoms: C_14  and  C_15
REMARK    5  A    between atoms: C_15  and  O_16
REMARK    6  A    between atoms: O_16  and  P_17
REMARK    7  A    between atoms: P_17  and  O_19
REMARK    8  A    between atoms: P_17  and  O_21
REMARK                            x       y       z     vdW  Elec       q    Type
REMARK                         _______ _______ _______ _____ _____    ______ ____
ROOT
ATOM      1  C   UNL     1      35.945 -24.050 -13.508  0.00  0.00    +0.034 C 
ENDROOT
BRANCH   1   7
ATOM      2 CL   UNL     1      37.628 -22.832 -15.960  0.00  0.00    -0.063 Cl
ATOM      3  O   UNL     1      37.130 -26.246 -12.214  0.00  0.00    -0.267 OA
ATOM      4  O   UNL     1      40.859 -26.300 -14.923  0.00  0.00    -0.247 OA
ATOM      5  N   UNL     1      39.228 -24.718 -15.279  0.00  0.00    -0.298 N 
ATOM      6  N   UNL     1      38.997 -26.281 -13.562  0.00  0.00    -0.275 N 
ATOM      7  C   UNL     1      37.262 -24.605 -13.936  0.00  0.00    +0.060 A 
ATOM      8  C   UNL     1      38.026 -24.158 -14.944  0.00  0.00    +0.119 A 
ATOM      9  C   UNL     1      37.770 -25.777 -13.153  0.00  0.00    +0.259 A 
ATOM     10  C   UNL     1      39.775 -25.801 -14.615  0.00  0.00    +0.328 A 
ATOM     11  H   UNL     1      39.729 -24.331 -16.033  0.00  0.00    +0.171 HD
ATOM     12  H   UNL     1      39.350 -27.052 -13.062  0.00  0.00    +0.173 HD
ENDBRANCH   1   7
BRANCH   1  13
ATOM     13  C   UNL     1      34.824 -24.433 -14.474  0.00  0.00    +0.008 C 
BRANCH  13  14
ATOM     14  C   UNL     1      34.178 -23.195 -15.095  0.00  0.00    +0.033 C 
BRANCH  14  15
ATOM     15  C   UNL     1      33.681 -23.469 -16.507  0.00  0.00    +0.154 C 
BRANCH  15  16
ATOM     16  O   UNL     1      34.597 -22.902 -17.434  0.00  0.00    -0.273 OA
BRANCH  16  17
ATOM     17  P   UNL     1      34.045 -22.465 -18.890  0.00  0.00    +0.473 P 
ATOM     18  O   UNL     1      34.822 -21.371 -19.563  0.00  0.00    -0.227 OA
BRANCH  17  19
ATOM     19  O   UNL     1      32.482 -22.141 -18.626  0.00  0.00    -0.303 OA
ATOM     20  H   UNL     1      32.395 -21.595 -17.829  0.00  0.00    +0.222 HD
ENDBRANCH  17  19
BRANCH  17  21
ATOM     21  O   UNL     1      34.004 -23.868 -19.693  0.00  0.00    -0.303 OA
ATOM     22  H   UNL     1      34.728 -24.436 -19.388  0.00  0.00    +0.222 HD
ENDBRANCH  17  21
ENDBRANCH  16  17
ENDBRANCH  15  16
ENDBRANCH  14  15
ENDBRANCH  13  14
ENDBRANCH   1  13
TORSDOF 8
ENDMDL
MODEL 2
REMARK VINA RESULT:      -7.9      6.856      9.051
REMARK  Name = 11987823
REMARK  8 active torsions:
REMARK  status: ('A' for Active; 'I' for Inactive)
REMARK    1  A    between atoms: C_1  and  C_7
REMARK    2  A    between atoms: C_1  and  C_13
REMARK    3  A    between atoms: C_13  and  C_14
REMARK    4  A    between atoms: C_14  and  C_15
REMARK    5  A    between atoms: C_15  and  O_16
REMARK    6  A    between atoms: O_16  and  P_17
REMARK    7  A    between atoms: P_17  and  O_19
REMARK    8  A    between atoms: P_17  and  O_21
REMARK                            x       y       z     vdW  Elec       q    Type
REMARK                         _______ _______ _______ _____ _____    ______ ____
ROOT
ATOM      1  C   UNL     1      34.704 -18.837 -21.185  0.00  0.00    +0.034 C 
ENDROOT
BRANCH   1   7
ATOM      2 CL   UNL     1      37.136 -20.578 -20.009  0.00  0.00    -0.063 Cl
ATOM      3  O   UNL     1      32.144 -19.924 -20.778  0.00  0.00    -0.267 OA
ATOM      4  O   UNL     1      33.682 -23.656 -18.551  0.00  0.00    -0.247 OA
ATOM      5  N   UNL     1      35.189 -22.094 -19.310  0.00  0.00    -0.298 N 
ATOM      6  N   UNL     1      32.903 -21.792 -19.664  0.00  0.00    -0.275 N 
ATOM      7  C   UNL     1      34.498 -20.131 -20.473  0.00  0.00    +0.060 A 
ATOM      8  C   UNL     1      35.453 -20.917 -19.953  0.00  0.00    +0.119 A 
ATOM      9  C   UNL     1      33.078 -20.587 -20.330  0.00  0.00    +0.259 A 
ATOM     10  C   UNL     1      33.911 -22.594 -19.131  0.00  0.00    +0.328 A 
ATOM     11  H   UNL     1      35.947 -22.613 -18.956  0.00  0.00    +0.171 HD
ATOM     12  H   UNL     1      31.977 -22.111 -19.558  0.00  0.00    +0.173 HD
ENDBRANCH   1   7
BRANCH   1  13
ATOM     13  C   UNL     1      34.966 -19.043 -22.677  0.00  0.00    +0.008 C 
BRANCH  13  14
ATOM     14  C   UNL     1      35.284 -17.720 -23.372  0.00  0.00    +0.033 C 
BRANCH  14  15
ATOM     15  C   UNL     1      34.983 -16.527 -22.475  0.00  0.00    +0.154 C 
BRANCH  15  16
ATOM     16  O   UNL     1      35.056 -15.340 -23.253  0.00  0.00    -0.273 OA
BRANCH  16  17
ATOM     17  P   UNL     1      33.702 -14.481 -23.469  0.00  0.00    +0.473 P 
ATOM     18  O   UNL     1      32.672 -14.635 -22.389  0.00  0.00    -0.227 OA
BRANCH  17  19
ATOM     19  O   UNL     1      33.216 -14.899 -24.953  0.00  0.00    -0.303 OA
ATOM     20  H   UNL     1      32.248 -14.969 -24.969  0.00  0.00    +0.222 HD
ENDBRANCH  17  19
BRANCH  17  21
ATOM     21  O   UNL     1      34.261 -12.977 -23.670  0.00  0.00    -0.303 OA
ATOM     22  H   UNL     1      35.033 -12.839 -23.099  0.00  0.00    +0.222 HD
ENDBRANCH  17  21
ENDBRANCH  16  17
ENDBRANCH  15  16
ENDBRANCH  14  15
ENDBRANCH  13  14
ENDBRANCH   1  13
TORSDOF 8
ENDMDL
MODEL 3
REMARK VINA RESULT:      -7.8      8.303     11.095
REMARK  Name = 11987823
REMARK  8 active torsions:
REMARK  status: ('A' for Active; 'I' for Inactive)
REMARK    1  A    between atoms: C_1  and  C_7
REMARK    2  A    between atoms: C_1  and  C_13
REMARK    3  A    between atoms: C_13  and  C_14
REMARK    4  A    between atoms: C_14  and  C_15
REMARK    5  A    between atoms: C_15  and  O_16
REMARK    6  A    between atoms: O_16  and  P_17
REMARK    7  A    between atoms: P_17  and  O_19
REMARK    8  A    between atoms: P_17  and  O_21
REMARK                            x       y       z     vdW  Elec       q    Type
REMARK                         _______ _______ _______ _____ _____    ______ ____
ROOT
ATOM      1  C   UNL     1      35.449 -18.319 -23.162  0.00  0.00    +0.034 C 
ENDROOT
BRANCH   1   7
ATOM      2 CL   UNL     1      34.841 -16.096 -20.922  0.00  0.00    -0.063 Cl
ATOM      3  O   UNL     1      34.616 -17.658 -25.765  0.00  0.00    -0.267 OA
ATOM      4  O   UNL     1      32.904 -13.549 -24.569  0.00  0.00    -0.247 OA
ATOM      5  N   UNL     1      33.859 -14.885 -22.959  0.00  0.00    -0.298 N 
ATOM      6  N   UNL     1      33.758 -15.603 -25.177  0.00  0.00    -0.275 N 
ATOM      7  C   UNL     1      34.773 -17.026 -23.472  0.00  0.00    +0.060 A 
ATOM      8  C   UNL     1      34.482 -16.048 -22.601  0.00  0.00    +0.119 A 
ATOM      9  C   UNL     1      34.386 -16.811 -24.904  0.00  0.00    +0.259 A 
ATOM     10  C   UNL     1      33.465 -14.599 -24.255  0.00  0.00    +0.328 A 
ATOM     11  H   UNL     1      33.682 -14.216 -22.260  0.00  0.00    +0.171 HD
ATOM     12  H   UNL     1      33.494 -15.441 -26.112  0.00  0.00    +0.173 HD
ENDBRANCH   1   7
BRANCH   1  13
ATOM     13  C   UNL     1      34.524 -19.282 -22.418  0.00  0.00    +0.008 C 
BRANCH  13  14
ATOM     14  C   UNL     1      35.150 -19.749 -21.105  0.00  0.00    +0.033 C 
BRANCH  14  15
ATOM     15  C   UNL     1      34.159 -20.536 -20.259  0.00  0.00    +0.154 C 
BRANCH  15  16
ATOM     16  O   UNL     1      34.876 -21.468 -19.461  0.00  0.00    -0.273 OA
BRANCH  16  17
ATOM     17  P   UNL     1      34.042 -22.614 -18.682  0.00  0.00    +0.473 P 
ATOM     18  O   UNL     1      34.554 -22.953 -17.312  0.00  0.00    -0.227 OA
BRANCH  17  19
ATOM     19  O   UNL     1      34.009 -23.845 -19.731  0.00  0.00    -0.303 OA
ATOM     20  H   UNL     1      33.594 -24.616 -19.312  0.00  0.00    +0.222 HD
ENDBRANCH  17  19
BRANCH  17  21
ATOM     21  O   UNL     1      32.528 -22.047 -18.725  0.00  0.00    -0.303 OA
ATOM     22  H   UNL     1      32.059 -22.316 -17.919  0.00  0.00    +0.222 HD
ENDBRANCH  17  21
ENDBRANCH  16  17
ENDBRANCH  15  16
ENDBRANCH  14  15
ENDBRANCH  13  14
ENDBRANCH   1  13
TORSDOF 8
ENDMDL
MODEL 4
REMARK VINA RESULT:      -7.7      7.914     10.431
REMARK  Name = 11987823
REMARK  8 active torsions:
REMARK  status: ('A' for Active; 'I' for Inactive)
REMARK    1  A    between atoms: C_1  and  C_7
REMARK    2  A    between atoms: C_1  and  C_13
REMARK    3  A    between atoms: C_13  and  C_14
REMARK    4  A    between atoms: C_14  and  C_15
REMARK    5  A    between atoms: C_15  and  O_16
REMARK    6  A    between atoms: O_16  and  P_17
REMARK    7  A    between atoms: P_17  and  O_19
REMARK    8  A    between atoms: P_17  and  O_21
REMARK                            x       y       z     vdW  Elec       q    Type
REMARK                         _______ _______ _______ _____ _____    ______ ____
ROOT
ATOM      1  C   UNL     1      35.644 -18.224 -21.699  0.00  0.00    +0.034 C 
ENDROOT
BRANCH   1   7
ATOM      2 CL   UNL     1      34.833 -18.242 -24.809  0.00  0.00    -0.063 Cl
ATOM      3  O   UNL     1      34.975 -15.880 -20.299  0.00  0.00    -0.267 OA
ATOM      4  O   UNL     1      33.089 -13.797 -23.953  0.00  0.00    -0.247 OA
ATOM      5  N   UNL     1      33.964 -15.911 -24.186  0.00  0.00    -0.298 N 
ATOM      6  N   UNL     1      34.031 -14.831 -22.119  0.00  0.00    -0.275 N 
ATOM      7  C   UNL     1      34.962 -17.075 -22.361  0.00  0.00    +0.060 A 
ATOM      8  C   UNL     1      34.589 -17.000 -23.647  0.00  0.00    +0.119 A 
ATOM      9  C   UNL     1      34.667 -15.892 -21.489  0.00  0.00    +0.259 A 
ATOM     10  C   UNL     1      33.653 -14.775 -23.460  0.00  0.00    +0.328 A 
ATOM     11  H   UNL     1      33.723 -15.935 -25.140  0.00  0.00    +0.171 HD
ATOM     12  H   UNL     1      33.828 -14.042 -21.565  0.00  0.00    +0.173 HD
ENDBRANCH   1   7
BRANCH   1  13
ATOM     13  C   UNL     1      34.767 -19.476 -21.683  0.00  0.00    +0.008 C 
BRANCH  13  14
ATOM     14  C   UNL     1      33.476 -19.238 -20.901  0.00  0.00    +0.033 C 
BRANCH  14  15
ATOM     15  C   UNL     1      33.045 -20.481 -20.136  0.00  0.00    +0.154 C 
BRANCH  15  16
ATOM     16  O   UNL     1      34.187 -21.293 -19.900  0.00  0.00    -0.273 OA
BRANCH  16  17
ATOM     17  P   UNL     1      34.055 -22.518 -18.853  0.00  0.00    +0.473 P 
ATOM     18  O   UNL     1      35.092 -22.541 -17.768  0.00  0.00    -0.227 OA
BRANCH  17  19
ATOM     19  O   UNL     1      34.016 -23.829 -19.798  0.00  0.00    -0.303 OA
ATOM     20  H   UNL     1      33.243 -24.370 -19.571  0.00  0.00    +0.222 HD
ENDBRANCH  17  19
BRANCH  17  21
ATOM     21  O   UNL     1      32.529 -22.385 -18.336  0.00  0.00    -0.303 OA
ATOM     22  H   UNL     1      32.384 -22.994 -17.594  0.00  0.00    +0.222 HD
ENDBRANCH  17  21
ENDBRANCH  16  17
ENDBRANCH  15  16
ENDBRANCH  14  15
ENDBRANCH  13  14
ENDBRANCH   1  13
TORSDOF 8
ENDMDL
MODEL 5
REMARK VINA RESULT:      -7.7      4.515      7.078
REMARK  Name = 11987823
REMARK  8 active torsions:
REMARK  status: ('A' for Active; 'I' for Inactive)
REMARK    1  A    between atoms: C_1  and  C_7
REMARK    2  A    between atoms: C_1  and  C_13
REMARK    3  A    between atoms: C_13  and  C_14
REMARK    4  A    between atoms: C_14  and  C_15
REMARK    5  A    between atoms: C_15  and  O_16
REMARK    6  A    between atoms: O_16  and  P_17
REMARK    7  A    between atoms: P_17  and  O_19
REMARK    8  A    between atoms: P_17  and  O_21
REMARK                            x       y       z     vdW  Elec       q    Type
REMARK                         _______ _______ _______ _____ _____    ______ ____
ROOT
ATOM      1  C   UNL     1      34.420 -23.852 -15.285  0.00  0.00    +0.034 C 
ENDROOT
BRANCH   1   7
ATOM      2 CL   UNL     1      33.826 -23.123 -18.358  0.00  0.00    -0.063 Cl
ATOM      3  O   UNL     1      32.210 -23.658 -13.558  0.00  0.00    -0.267 OA
ATOM      4  O   UNL     1      29.280 -22.332 -16.861  0.00  0.00    -0.247 OA
ATOM      5  N   UNL     1      31.476 -22.749 -17.401  0.00  0.00    -0.298 N 
ATOM      6  N   UNL     1      30.738 -22.996 -15.201  0.00  0.00    -0.275 N 
ATOM      7  C   UNL     1      33.071 -23.439 -15.769  0.00  0.00    +0.060 A 
ATOM      8  C   UNL     1      32.738 -23.119 -17.029  0.00  0.00    +0.119 A 
ATOM      9  C   UNL     1      31.988 -23.381 -14.735  0.00  0.00    +0.259 A 
ATOM     10  C   UNL     1      30.414 -22.667 -16.517  0.00  0.00    +0.328 A 
ATOM     11  H   UNL     1      31.313 -22.530 -18.347  0.00  0.00    +0.171 HD
ATOM     12  H   UNL     1      30.011 -22.950 -14.539  0.00  0.00    +0.173 HD
ENDBRANCH   1   7
BRANCH   1  13
ATOM     13  C   UNL     1      35.406 -22.683 -15.280  0.00  0.00    +0.008 C 
BRANCH  13  14
ATOM     14  C   UNL     1      36.761 -23.098 -15.852  0.00  0.00    +0.033 C 
BRANCH  14  15
ATOM     15  C   UNL     1      37.369 -24.255 -15.071  0.00  0.00    +0.154 C 
BRANCH  15  16
ATOM     16  O   UNL     1      38.781 -24.095 -15.041  0.00  0.00    -0.273 OA
BRANCH  16  17
ATOM     17  P   UNL     1      39.694 -25.390 -14.715  0.00  0.00    +0.473 P 
ATOM     18  O   UNL     1      39.003 -26.476 -13.943  0.00  0.00    -0.227 OA
BRANCH  17  19
ATOM     19  O   UNL     1      41.005 -24.765 -14.004  0.00  0.00    -0.303 OA
ATOM     20  H   UNL     1      40.935 -24.873 -13.043  0.00  0.00    +0.222 HD
ENDBRANCH  17  19
BRANCH  17  21
ATOM     21  O   UNL     1      40.233 -25.826 -16.175  0.00  0.00    -0.303 OA
ATOM     22  H   UNL     1      39.510 -25.761 -16.819  0.00  0.00    +0.222 HD
ENDBRANCH  17  21
ENDBRANCH  16  17
ENDBRANCH  15  16
ENDBRANCH  14  15
ENDBRANCH  13  14
ENDBRANCH   1  13
TORSDOF 8
ENDMDL
MODEL 6
REMARK VINA RESULT:      -7.7      3.534      6.449
REMARK  Name = 11987823
REMARK  8 active torsions:
REMARK  status: ('A' for Active; 'I' for Inactive)
REMARK    1  A    between atoms: C_1  and  C_7
REMARK    2  A    between atoms: C_1  and  C_13
REMARK    3  A    between atoms: C_13  and  C_14
REMARK    4  A    between atoms: C_14  and  C_15
REMARK    5  A    between atoms: C_15  and  O_16
REMARK    6  A    between atoms: O_16  and  P_17
REMARK    7  A    between atoms: P_17  and  O_19
REMARK    8  A    between atoms: P_17  and  O_21
REMARK                            x       y       z     vdW  Elec       q    Type
REMARK                         _______ _______ _______ _____ _____    ______ ____
ROOT
ATOM      1  C   UNL     1      34.808 -23.583 -14.888  0.00  0.00    +0.034 C 
ENDROOT
BRANCH   1   7
ATOM      2 CL   UNL     1      31.689 -23.770 -15.639  0.00  0.00    -0.063 Cl
ATOM      3  O   UNL     1      36.473 -22.581 -16.920  0.00  0.00    -0.267 OA
ATOM      4  O   UNL     1      33.041 -21.971 -19.937  0.00  0.00    -0.247 OA
ATOM      5  N   UNL     1      32.572 -22.817 -17.850  0.00  0.00    -0.298 N 
ATOM      6  N   UNL     1      34.765 -22.272 -18.434  0.00  0.00    -0.275 N 
ATOM      7  C   UNL     1      34.273 -23.170 -16.218  0.00  0.00    +0.060 A 
ATOM      8  C   UNL     1      32.991 -23.215 -16.611  0.00  0.00    +0.119 A 
ATOM      9  C   UNL     1      35.278 -22.654 -17.202  0.00  0.00    +0.259 A 
ATOM     10  C   UNL     1      33.427 -22.328 -18.823  0.00  0.00    +0.328 A 
ATOM     11  H   UNL     1      31.613 -22.880 -18.061  0.00  0.00    +0.171 HD
ATOM     12  H   UNL     1      35.408 -21.931 -19.097  0.00  0.00    +0.173 HD
ENDBRANCH   1   7
BRANCH   1  13
ATOM     13  C   UNL     1      35.400 -24.992 -14.925  0.00  0.00    +0.008 C 
BRANCH  13  14
ATOM     14  C   UNL     1      36.411 -25.199 -13.798  0.00  0.00    +0.033 C 
BRANCH  14  15
ATOM     15  C   UNL     1      37.264 -26.439 -14.029  0.00  0.00    +0.154 C 
BRANCH  15  16
ATOM     16  O   UNL     1      38.106 -26.213 -15.151  0.00  0.00    -0.273 OA
BRANCH  16  17
ATOM     17  P   UNL     1      39.389 -25.245 -14.965  0.00  0.00    +0.473 P 
ATOM     18  O   UNL     1      39.847 -25.061 -13.547  0.00  0.00    -0.227 OA
BRANCH  17  19
ATOM     19  O   UNL     1      38.962 -23.889 -15.734  0.00  0.00    -0.303 OA
ATOM     20  H   UNL     1      38.290 -23.420 -15.215  0.00  0.00    +0.222 HD
ENDBRANCH  17  19
BRANCH  17  21
ATOM     21  O   UNL     1      40.483 -25.906 -15.955  0.00  0.00    -0.303 OA
ATOM     22  H   UNL     1      40.032 -26.459 -16.613  0.00  0.00    +0.222 HD
ENDBRANCH  17  21
ENDBRANCH  16  17
ENDBRANCH  15  16
ENDBRANCH  14  15
ENDBRANCH  13  14
ENDBRANCH   1  13
TORSDOF 8
ENDMDL
MODEL 7
REMARK VINA RESULT:      -7.7      8.236     10.909
REMARK  Name = 11987823
REMARK  8 active torsions:
REMARK  status: ('A' for Active; 'I' for Inactive)
REMARK    1  A    between atoms: C_1  and  C_7
REMARK    2  A    between atoms: C_1  and  C_13
REMARK    3  A    between atoms: C_13  and  C_14
REMARK    4  A    between atoms: C_14  and  C_15
REMARK    5  A    between atoms: C_15  and  O_16
REMARK    6  A    between atoms: O_16  and  P_17
REMARK    7  A    between atoms: P_17  and  O_19
REMARK    8  A    between atoms: P_17  and  O_21
REMARK                            x       y       z     vdW  Elec       q    Type
REMARK                         _______ _______ _______ _____ _____    ______ ____
ROOT
ATOM      1  C   UNL     1      35.276 -17.665 -21.904  0.00  0.00    +0.034 C 
ENDROOT
BRANCH   1   7
ATOM      2 CL   UNL     1      34.932 -19.441 -24.560  0.00  0.00    -0.063 Cl
ATOM      3  O   UNL     1      34.572 -14.956 -22.174  0.00  0.00    -0.267 OA
ATOM      4  O   UNL     1      33.394 -15.325 -26.615  0.00  0.00    -0.247 OA
ATOM      5  N   UNL     1      34.145 -17.184 -25.489  0.00  0.00    -0.298 N 
ATOM      6  N   UNL     1      33.981 -15.130 -24.393  0.00  0.00    -0.275 N 
ATOM      7  C   UNL     1      34.779 -17.100 -23.193  0.00  0.00    +0.060 A 
ATOM      8  C   UNL     1      34.607 -17.769 -24.343  0.00  0.00    +0.119 A 
ATOM      9  C   UNL     1      34.442 -15.640 -23.187  0.00  0.00    +0.259 A 
ATOM     10  C   UNL     1      33.809 -15.844 -25.578  0.00  0.00    +0.328 A 
ATOM     11  H   UNL     1      34.045 -17.744 -26.292  0.00  0.00    +0.171 HD
ATOM     12  H   UNL     1      33.754 -14.172 -24.413  0.00  0.00    +0.173 HD
ENDBRANCH   1   7
BRANCH   1  13
ATOM     13  C   UNL     1      34.144 -18.267 -21.072  0.00  0.00    +0.008 C 
BRANCH  13  14
ATOM     14  C   UNL     1      33.994 -19.763 -21.340  0.00  0.00    +0.033 C 
BRANCH  14  15
ATOM     15  C   UNL     1      33.291 -20.473 -20.191  0.00  0.00    +0.154 C 
BRANCH  15  16
ATOM     16  O   UNL     1      34.252 -21.217 -19.455  0.00  0.00    -0.273 OA
BRANCH  16  17
ATOM     17  P   UNL     1      33.757 -22.535 -18.659  0.00  0.00    +0.473 P 
ATOM     18  O   UNL     1      32.358 -22.465 -18.121  0.00  0.00    -0.227 OA
BRANCH  17  19
ATOM     19  O   UNL     1      34.912 -22.771 -17.551  0.00  0.00    -0.303 OA
ATOM     20  H   UNL     1      35.531 -23.447 -17.867  0.00  0.00    +0.222 HD
ENDBRANCH  17  19
BRANCH  17  21
ATOM     21  O   UNL     1      34.020 -23.719 -19.728  0.00  0.00    -0.303 OA
ATOM     22  H   UNL     1      33.650 -23.466 -20.589  0.00  0.00    +0.222 HD
ENDBRANCH  17  21
ENDBRANCH  16  17
ENDBRANCH  15  16
ENDBRANCH  14  15
ENDBRANCH  13  14
ENDBRANCH   1  13
TORSDOF 8
ENDMDL
MODEL 8
REMARK VINA RESULT:      -7.7      2.828      3.308
REMARK  Name = 11987823
REMARK  8 active torsions:
REMARK  status: ('A' for Active; 'I' for Inactive)
REMARK    1  A    between atoms: C_1  and  C_7
REMARK    2  A    between atoms: C_1  and  C_13
REMARK    3  A    between atoms: C_13  and  C_14
REMARK    4  A    between atoms: C_14  and  C_15
REMARK    5  A    between atoms: C_15  and  O_16
REMARK    6  A    between atoms: O_16  and  P_17
REMARK    7  A    between atoms: P_17  and  O_19
REMARK    8  A    between atoms: P_17  and  O_21
REMARK                            x       y       z     vdW  Elec       q    Type
REMARK                         _______ _______ _______ _____ _____    ______ ____
ROOT
ATOM      1  C   UNL     1      35.875 -24.113 -13.908  0.00  0.00    +0.034 C 
ENDROOT
BRANCH   1   7
ATOM      2 CL   UNL     1      37.749 -22.742 -16.130  0.00  0.00    -0.063 Cl
ATOM      3  O   UNL     1      37.001 -26.328 -12.592  0.00  0.00    -0.267 OA
ATOM      4  O   UNL     1      40.977 -26.154 -14.918  0.00  0.00    -0.247 OA
ATOM      5  N   UNL     1      39.336 -24.608 -15.371  0.00  0.00    -0.298 N 
ATOM      6  N   UNL     1      38.991 -26.249 -13.749  0.00  0.00    -0.275 N 
ATOM      7  C   UNL     1      37.246 -24.610 -14.225  0.00  0.00    +0.060 A 
ATOM      8  C   UNL     1      38.090 -24.098 -15.134  0.00  0.00    +0.119 A 
ATOM      9  C   UNL     1      37.714 -25.800 -13.443  0.00  0.00    +0.259 A 
ATOM     10  C   UNL     1      39.853 -25.702 -14.699  0.00  0.00    +0.328 A 
ATOM     11  H   UNL     1      39.896 -24.174 -16.054  0.00  0.00    +0.171 HD
ATOM     12  H   UNL     1      39.319 -27.031 -13.247  0.00  0.00    +0.173 HD
ENDBRANCH   1   7
BRANCH   1  13
ATOM     13  C   UNL     1      34.855 -24.542 -14.963  0.00  0.00    +0.008 C 
BRANCH  13  14
ATOM     14  C   UNL     1      34.267 -23.334 -15.689  0.00  0.00    +0.033 C 
BRANCH  14  15
ATOM     15  C   UNL     1      32.761 -23.465 -15.868  0.00  0.00    +0.154 C 
BRANCH  15  16
ATOM     16  O   UNL     1      32.248 -24.301 -14.841  0.00  0.00    -0.273 OA
BRANCH  16  17
ATOM     17  P   UNL     1      31.225 -23.658 -13.766  0.00  0.00    +0.473 P 
ATOM     18  O   UNL     1      30.105 -22.853 -14.357  0.00  0.00    -0.227 OA
BRANCH  17  19
ATOM     19  O   UNL     1      32.193 -22.853 -12.750  0.00  0.00    -0.303 OA
ATOM     20  H   UNL     1      31.659 -22.436 -12.056  0.00  0.00    +0.222 HD
ENDBRANCH  17  19
BRANCH  17  21
ATOM     21  O   UNL     1      30.761 -24.942 -12.900  0.00  0.00    -0.303 OA
ATOM     22  H   UNL     1      30.410 -25.624 -13.494  0.00  0.00    +0.222 HD
ENDBRANCH  17  21
ENDBRANCH  16  17
ENDBRANCH  15  16
ENDBRANCH  14  15
ENDBRANCH  13  14
ENDBRANCH   1  13
TORSDOF 8
ENDMDL
MODEL 9
REMARK VINA RESULT:      -7.6      4.027      5.004
REMARK  Name = 11987823
REMARK  8 active torsions:
REMARK  status: ('A' for Active; 'I' for Inactive)
REMARK    1  A    between atoms: C_1  and  C_7
REMARK    2  A    between atoms: C_1  and  C_13
REMARK    3  A    between atoms: C_13  and  C_14
REMARK    4  A    between atoms: C_14  and  C_15
REMARK    5  A    between atoms: C_15  and  O_16
REMARK    6  A    between atoms: O_16  and  P_17
REMARK    7  A    between atoms: P_17  and  O_19
REMARK    8  A    between atoms: P_17  and  O_21
REMARK                            x       y       z     vdW  Elec       q    Type
REMARK                         _______ _______ _______ _____ _____    ______ ____
ROOT
ATOM      1  C   UNL     1      32.403 -24.019 -14.329  0.00  0.00    +0.034 C 
ENDROOT
BRANCH   1   7
ATOM      2 CL   UNL     1      33.487 -23.256 -17.257  0.00  0.00    -0.063 Cl
ATOM      3  O   UNL     1      34.369 -24.172 -12.325  0.00  0.00    -0.267 OA
ATOM      4  O   UNL     1      37.853 -23.102 -15.147  0.00  0.00    -0.247 OA
ATOM      5  N   UNL     1      35.715 -23.218 -15.987  0.00  0.00    -0.298 N 
ATOM      6  N   UNL     1      36.116 -23.638 -13.727  0.00  0.00    -0.275 N 
ATOM      7  C   UNL     1      33.845 -23.763 -14.613  0.00  0.00    +0.060 A 
ATOM      8  C   UNL     1      34.379 -23.440 -15.801  0.00  0.00    +0.119 A 
ATOM      9  C   UNL     1      34.778 -23.880 -13.447  0.00  0.00    +0.259 A 
ATOM     10  C   UNL     1      36.651 -23.304 -14.971  0.00  0.00    +0.328 A 
ATOM     11  H   UNL     1      36.028 -22.985 -16.890  0.00  0.00    +0.171 HD
ATOM     12  H   UNL     1      36.748 -23.710 -12.975  0.00  0.00    +0.173 HD
ENDBRANCH   1   7
BRANCH   1  13
ATOM     13  C   UNL     1      31.549 -22.770 -14.543  0.00  0.00    +0.008 C 
BRANCH  13  14
ATOM     14  C   UNL     1      30.127 -23.135 -14.967  0.00  0.00    +0.033 C 
BRANCH  14  15
ATOM     15  C   UNL     1      29.930 -22.974 -16.468  0.00  0.00    +0.154 C 
BRANCH  15  16
ATOM     16  O   UNL     1      28.964 -21.958 -16.697  0.00  0.00    -0.273 OA
BRANCH  16  17
ATOM     17  P   UNL     1      27.409 -22.388 -16.813  0.00  0.00    +0.473 P 
ATOM     18  O   UNL     1      26.696 -22.554 -15.503  0.00  0.00    -0.227 OA
BRANCH  17  19
ATOM     19  O   UNL     1      27.445 -23.705 -17.752  0.00  0.00    -0.303 OA
ATOM     20  H   UNL     1      28.311 -24.135 -17.673  0.00  0.00    +0.222 HD
ENDBRANCH  17  19
BRANCH  17  21
ATOM     21  O   UNL     1      26.795 -21.253 -17.787  0.00  0.00    -0.303 OA
ATOM     22  H   UNL     1      27.442 -21.035 -18.477  0.00  0.00    +0.222 HD
ENDBRANCH  17  21
ENDBRANCH  16  17
ENDBRANCH  15  16
ENDBRANCH  14  15
ENDBRANCH  13  14
ENDBRANCH   1  13
TORSDOF 8
ENDMDL
