MODEL 1
REMARK VINA RESULT:      -5.3      0.000      0.000
REMARK  Name = 90263
REMARK  12 active torsions:
REMARK  status: ('A' for Active; 'I' for Inactive)
REMARK    1  A    between atoms: O_1  and  C_2
REMARK    2  A    between atoms: O_1  and  C_9
REMARK    3  A    between atoms: C_2  and  C_3
REMARK    4  A    between atoms: C_3  and  O_4
REMARK    5  A    between atoms: O_4  and  C_5
REMARK    6  A    between atoms: C_5  and  C_6
REMARK    7  A    between atoms: C_6  and  O_7
REMARK    8  A    between atoms: C_9  and  C_10
REMARK    9  A    between atoms: C_10  and  O_11
REMARK   10  A    between atoms: O_11  and  C_12
REMARK   11  A    between atoms: C_12  and  C_13
REMARK   12  A    between atoms: C_13  and  O_14
REMARK                            x       y       z     vdW  Elec       q    Type
REMARK                         _______ _______ _______ _____ _____    ______ ____
ROOT
ATOM      1  O   UNL     1      35.453 -25.126 -15.464  0.00  0.00    -0.348 OA
ENDROOT
BRANCH   1   2
ATOM      2  C   UNL     1      34.716 -24.176 -14.707  0.00  0.00    +0.174 C 
BRANCH   2   3
ATOM      3  C   UNL     1      33.770 -23.434 -15.632  0.00  0.00    +0.174 C 
BRANCH   3   4
ATOM      4  O   UNL     1      34.156 -23.671 -16.979  0.00  0.00    -0.348 OA
BRANCH   4   5
ATOM      5  C   UNL     1      33.318 -22.976 -17.891  0.00  0.00    +0.174 C 
BRANCH   5   6
ATOM      6  C   UNL     1      34.137 -22.562 -19.099  0.00  0.00    +0.174 C 
BRANCH   6   7
ATOM      7  O   UNL     1      35.486 -22.354 -18.696  0.00  0.00    -0.348 OA
ATOM      8  C   UNL     1      36.068 -21.251 -19.376  0.00  0.00    +0.174 C 
ENDBRANCH   6   7
ENDBRANCH   5   6
ENDBRANCH   4   5
ENDBRANCH   3   4
ENDBRANCH   2   3
ENDBRANCH   1   2
BRANCH   1   9
ATOM      9  C   UNL     1      36.808 -25.193 -15.038  0.00  0.00    +0.174 C 
BRANCH   9  10
ATOM     10  C   UNL     1      37.124 -26.615 -14.613  0.00  0.00    +0.174 C 
BRANCH  10  11
ATOM     11  O   UNL     1      38.526 -26.826 -14.706  0.00  0.00    -0.348 OA
BRANCH  11  12
ATOM     12  C   UNL     1      39.248 -25.883 -13.924  0.00  0.00    +0.174 C 
BRANCH  12  13
ATOM     13  C   UNL     1      40.374 -25.306 -14.759  0.00  0.00    +0.169 C 
BRANCH  13  14
ATOM     14  O   UNL     1      40.410 -25.974 -16.014  0.00  0.00    -0.379 OA
ATOM     15  H   UNL     1      41.138 -26.615 -16.019  0.00  0.00    +0.211 HD
ENDBRANCH  13  14
ENDBRANCH  12  13
ENDBRANCH  11  12
ENDBRANCH  10  11
ENDBRANCH   9  10
ENDBRANCH   1   9
TORSDOF 12
ENDMDL
MODEL 2
REMARK VINA RESULT:      -5.2      1.602      2.565
REMARK  Name = 90263
REMARK  12 active torsions:
REMARK  status: ('A' for Active; 'I' for Inactive)
REMARK    1  A    between atoms: O_1  and  C_2
REMARK    2  A    between atoms: O_1  and  C_9
REMARK    3  A    between atoms: C_2  and  C_3
REMARK    4  A    between atoms: C_3  and  O_4
REMARK    5  A    between atoms: O_4  and  C_5
REMARK    6  A    between atoms: C_5  and  C_6
REMARK    7  A    between atoms: C_6  and  O_7
REMARK    8  A    between atoms: C_9  and  C_10
REMARK    9  A    between atoms: C_10  and  O_11
REMARK   10  A    between atoms: O_11  and  C_12
REMARK   11  A    between atoms: C_12  and  C_13
REMARK   12  A    between atoms: C_13  and  O_14
REMARK                            x       y       z     vdW  Elec       q    Type
REMARK                         _______ _______ _______ _____ _____    ______ ____
ROOT
ATOM      1  O   UNL     1      36.164 -24.890 -15.565  0.00  0.00    -0.348 OA
ENDROOT
BRANCH   1   2
ATOM      2  C   UNL     1      36.100 -23.472 -15.515  0.00  0.00    +0.174 C 
BRANCH   2   3
ATOM      3  C   UNL     1      34.703 -23.026 -15.903  0.00  0.00    +0.174 C 
BRANCH   3   4
ATOM      4  O   UNL     1      34.416 -23.489 -17.217  0.00  0.00    -0.348 OA
BRANCH   4   5
ATOM      5  C   UNL     1      33.175 -22.981 -17.688  0.00  0.00    +0.174 C 
BRANCH   5   6
ATOM      6  C   UNL     1      32.098 -23.278 -16.662  0.00  0.00    +0.174 C 
BRANCH   6   7
ATOM      7  O   UNL     1      30.883 -22.663 -17.074  0.00  0.00    -0.348 OA
ATOM      8  C   UNL     1      29.866 -22.811 -16.093  0.00  0.00    +0.174 C 
ENDBRANCH   6   7
ENDBRANCH   5   6
ENDBRANCH   4   5
ENDBRANCH   3   4
ENDBRANCH   2   3
ENDBRANCH   1   2
BRANCH   1   9
ATOM      9  C   UNL     1      36.653 -25.432 -14.344  0.00  0.00    +0.174 C 
BRANCH   9  10
ATOM     10  C   UNL     1      37.033 -26.884 -14.564  0.00  0.00    +0.174 C 
BRANCH  10  11
ATOM     11  O   UNL     1      38.449 -26.988 -14.626  0.00  0.00    -0.348 OA
BRANCH  11  12
ATOM     12  C   UNL     1      39.080 -25.816 -14.127  0.00  0.00    +0.174 C 
BRANCH  12  13
ATOM     13  C   UNL     1      40.478 -25.722 -14.705  0.00  0.00    +0.169 C 
BRANCH  13  14
ATOM     14  O   UNL     1      40.413 -25.933 -16.111  0.00  0.00    -0.379 OA
ATOM     15  H   UNL     1      40.112 -26.838 -16.289  0.00  0.00    +0.211 HD
ENDBRANCH  13  14
ENDBRANCH  12  13
ENDBRANCH  11  12
ENDBRANCH  10  11
ENDBRANCH   9  10
ENDBRANCH   1   9
TORSDOF 12
ENDMDL
MODEL 3
REMARK VINA RESULT:      -5.2      2.055      3.495
REMARK  Name = 90263
REMARK  12 active torsions:
REMARK  status: ('A' for Active; 'I' for Inactive)
REMARK    1  A    between atoms: O_1  and  C_2
REMARK    2  A    between atoms: O_1  and  C_9
REMARK    3  A    between atoms: C_2  and  C_3
REMARK    4  A    between atoms: C_3  and  O_4
REMARK    5  A    between atoms: O_4  and  C_5
REMARK    6  A    between atoms: C_5  and  C_6
REMARK    7  A    between atoms: C_6  and  O_7
REMARK    8  A    between atoms: C_9  and  C_10
REMARK    9  A    between atoms: C_10  and  O_11
REMARK   10  A    between atoms: O_11  and  C_12
REMARK   11  A    between atoms: C_12  and  C_13
REMARK   12  A    between atoms: C_13  and  O_14
REMARK                            x       y       z     vdW  Elec       q    Type
REMARK                         _______ _______ _______ _____ _____    ______ ____
ROOT
ATOM      1  O   UNL     1      34.441 -23.383 -17.116  0.00  0.00    -0.348 OA
ENDROOT
BRANCH   1   2
ATOM      2  C   UNL     1      33.390 -23.054 -18.013  0.00  0.00    +0.174 C 
BRANCH   2   3
ATOM      3  C   UNL     1      33.905 -22.057 -19.034  0.00  0.00    +0.174 C 
BRANCH   3   4
ATOM      4  O   UNL     1      32.820 -21.262 -19.495  0.00  0.00    -0.348 OA
BRANCH   4   5
ATOM      5  C   UNL     1      33.264 -20.226 -20.360  0.00  0.00    +0.174 C 
BRANCH   5   6
ATOM      6  C   UNL     1      34.769 -20.330 -20.523  0.00  0.00    +0.174 C 
BRANCH   6   7
ATOM      7  O   UNL     1      35.314 -19.021 -20.636  0.00  0.00    -0.348 OA
ATOM      8  C   UNL     1      34.522 -18.198 -21.482  0.00  0.00    +0.174 C 
ENDBRANCH   6   7
ENDBRANCH   5   6
ENDBRANCH   4   5
ENDBRANCH   3   4
ENDBRANCH   2   3
ENDBRANCH   1   2
BRANCH   1   9
ATOM      9  C   UNL     1      34.011 -23.313 -15.762  0.00  0.00    +0.174 C 
BRANCH   9  10
ATOM     10  C   UNL     1      35.032 -24.008 -14.881  0.00  0.00    +0.174 C 
BRANCH  10  11
ATOM     11  O   UNL     1      35.848 -24.845 -15.690  0.00  0.00    -0.348 OA
BRANCH  11  12
ATOM     12  C   UNL     1      36.983 -25.314 -14.973  0.00  0.00    +0.174 C 
BRANCH  12  13
ATOM     13  C   UNL     1      37.011 -26.829 -15.027  0.00  0.00    +0.169 C 
BRANCH  13  14
ATOM     14  O   UNL     1      36.728 -27.250 -16.356  0.00  0.00    -0.379 OA
ATOM     15  H   UNL     1      35.942 -26.785 -16.683  0.00  0.00    +0.211 HD
ENDBRANCH  13  14
ENDBRANCH  12  13
ENDBRANCH  11  12
ENDBRANCH  10  11
ENDBRANCH   9  10
ENDBRANCH   1   9
TORSDOF 12
ENDMDL
MODEL 4
REMARK VINA RESULT:      -5.2      1.020      5.710
REMARK  Name = 90263
REMARK  12 active torsions:
REMARK  status: ('A' for Active; 'I' for Inactive)
REMARK    1  A    between atoms: O_1  and  C_2
REMARK    2  A    between atoms: O_1  and  C_9
REMARK    3  A    between atoms: C_2  and  C_3
REMARK    4  A    between atoms: C_3  and  O_4
REMARK    5  A    between atoms: O_4  and  C_5
REMARK    6  A    between atoms: C_5  and  C_6
REMARK    7  A    between atoms: C_6  and  O_7
REMARK    8  A    between atoms: C_9  and  C_10
REMARK    9  A    between atoms: C_10  and  O_11
REMARK   10  A    between atoms: O_11  and  C_12
REMARK   11  A    between atoms: C_12  and  C_13
REMARK   12  A    between atoms: C_13  and  O_14
REMARK                            x       y       z     vdW  Elec       q    Type
REMARK                         _______ _______ _______ _____ _____    ______ ____
ROOT
ATOM      1  O   UNL     1      34.477 -23.858 -16.853  0.00  0.00    -0.348 OA
ENDROOT
BRANCH   1   2
ATOM      2  C   UNL     1      34.482 -23.958 -15.436  0.00  0.00    +0.174 C 
BRANCH   2   3
ATOM      3  C   UNL     1      35.459 -25.041 -15.021  0.00  0.00    +0.174 C 
BRANCH   3   4
ATOM      4  O   UNL     1      36.755 -24.707 -15.501  0.00  0.00    -0.348 OA
BRANCH   4   5
ATOM      5  C   UNL     1      37.704 -24.658 -14.445  0.00  0.00    +0.174 C 
BRANCH   5   6
ATOM      6  C   UNL     1      37.973 -26.068 -13.956  0.00  0.00    +0.174 C 
BRANCH   6   7
ATOM      7  O   UNL     1      39.057 -26.617 -14.696  0.00  0.00    -0.348 OA
ATOM      8  C   UNL     1      40.191 -25.761 -14.672  0.00  0.00    +0.174 C 
ENDBRANCH   6   7
ENDBRANCH   5   6
ENDBRANCH   4   5
ENDBRANCH   3   4
ENDBRANCH   2   3
ENDBRANCH   1   2
BRANCH   1   9
ATOM      9  C   UNL     1      33.305 -23.202 -17.325  0.00  0.00    +0.174 C 
BRANCH   9  10
ATOM     10  C   UNL     1      33.641 -22.440 -18.593  0.00  0.00    +0.174 C 
BRANCH  10  11
ATOM     11  O   UNL     1      34.931 -22.833 -19.042  0.00  0.00    -0.348 OA
BRANCH  11  12
ATOM     12  C   UNL     1      35.722 -21.707 -19.400  0.00  0.00    +0.174 C 
BRANCH  12  13
ATOM     13  C   UNL     1      36.656 -21.374 -18.253  0.00  0.00    +0.169 C 
BRANCH  13  14
ATOM     14  O   UNL     1      36.952 -22.566 -17.535  0.00  0.00    -0.379 OA
ATOM     15  H   UNL     1      37.904 -22.607 -17.354  0.00  0.00    +0.211 HD
ENDBRANCH  13  14
ENDBRANCH  12  13
ENDBRANCH  11  12
ENDBRANCH  10  11
ENDBRANCH   9  10
ENDBRANCH   1   9
TORSDOF 12
ENDMDL
MODEL 5
REMARK VINA RESULT:      -5.1      2.732      7.468
REMARK  Name = 90263
REMARK  12 active torsions:
REMARK  status: ('A' for Active; 'I' for Inactive)
REMARK    1  A    between atoms: O_1  and  C_2
REMARK    2  A    between atoms: O_1  and  C_9
REMARK    3  A    between atoms: C_2  and  C_3
REMARK    4  A    between atoms: C_3  and  O_4
REMARK    5  A    between atoms: O_4  and  C_5
REMARK    6  A    between atoms: C_5  and  C_6
REMARK    7  A    between atoms: C_6  and  O_7
REMARK    8  A    between atoms: C_9  and  C_10
REMARK    9  A    between atoms: C_10  and  O_11
REMARK   10  A    between atoms: O_11  and  C_12
REMARK   11  A    between atoms: C_12  and  C_13
REMARK   12  A    between atoms: C_13  and  O_14
REMARK                            x       y       z     vdW  Elec       q    Type
REMARK                         _______ _______ _______ _____ _____    ______ ____
ROOT
ATOM      1  O   UNL     1      34.233 -23.750 -16.974  0.00  0.00    -0.348 OA
ENDROOT
BRANCH   1   2
ATOM      2  C   UNL     1      34.460 -23.467 -15.601  0.00  0.00    +0.174 C 
BRANCH   2   3
ATOM      3  C   UNL     1      35.014 -24.707 -14.926  0.00  0.00    +0.174 C 
BRANCH   3   4
ATOM      4  O   UNL     1      36.050 -25.252 -15.734  0.00  0.00    -0.348 OA
BRANCH   4   5
ATOM      5  C   UNL     1      36.688 -26.348 -15.094  0.00  0.00    +0.174 C 
BRANCH   5   6
ATOM      6  C   UNL     1      37.900 -25.841 -14.337  0.00  0.00    +0.174 C 
BRANCH   6   7
ATOM      7  O   UNL     1      39.031 -26.629 -14.691  0.00  0.00    -0.348 OA
ATOM      8  C   UNL     1      40.233 -25.873 -14.628  0.00  0.00    +0.174 C 
ENDBRANCH   6   7
ENDBRANCH   5   6
ENDBRANCH   4   5
ENDBRANCH   3   4
ENDBRANCH   2   3
ENDBRANCH   1   2
BRANCH   1   9
ATOM      9  C   UNL     1      33.050 -23.119 -17.448  0.00  0.00    +0.174 C 
BRANCH   9  10
ATOM     10  C   UNL     1      31.965 -23.249 -16.395  0.00  0.00    +0.174 C 
BRANCH  10  11
ATOM     11  O   UNL     1      30.744 -22.749 -16.924  0.00  0.00    -0.348 OA
BRANCH  11  12
ATOM     12  C   UNL     1      29.622 -23.255 -16.210  0.00  0.00    +0.174 C 
BRANCH  12  13
ATOM     13  C   UNL     1      28.353 -22.695 -16.823  0.00  0.00    +0.169 C 
BRANCH  13  14
ATOM     14  O   UNL     1      27.735 -23.704 -17.612  0.00  0.00    -0.379 OA
ATOM     15  H   UNL     1      26.921 -24.002 -17.176  0.00  0.00    +0.211 HD
ENDBRANCH  13  14
ENDBRANCH  12  13
ENDBRANCH  11  12
ENDBRANCH  10  11
ENDBRANCH   9  10
ENDBRANCH   1   9
TORSDOF 12
ENDMDL
MODEL 6
REMARK VINA RESULT:      -5.0      6.387     10.696
REMARK  Name = 90263
REMARK  12 active torsions:
REMARK  status: ('A' for Active; 'I' for Inactive)
REMARK    1  A    between atoms: O_1  and  C_2
REMARK    2  A    between atoms: O_1  and  C_9
REMARK    3  A    between atoms: C_2  and  C_3
REMARK    4  A    between atoms: C_3  and  O_4
REMARK    5  A    between atoms: O_4  and  C_5
REMARK    6  A    between atoms: C_5  and  C_6
REMARK    7  A    between atoms: C_6  and  O_7
REMARK    8  A    between atoms: C_9  and  C_10
REMARK    9  A    between atoms: C_10  and  O_11
REMARK   10  A    between atoms: O_11  and  C_12
REMARK   11  A    between atoms: C_12  and  C_13
REMARK   12  A    between atoms: C_13  and  O_14
REMARK                            x       y       z     vdW  Elec       q    Type
REMARK                         _______ _______ _______ _____ _____    ______ ____
ROOT
ATOM      1  O   UNL     1      35.310 -16.716 -23.346  0.00  0.00    -0.348 OA
ENDROOT
BRANCH   1   2
ATOM      2  C   UNL     1      35.081 -18.088 -23.057  0.00  0.00    +0.174 C 
BRANCH   2   3
ATOM      3  C   UNL     1      35.896 -18.479 -21.839  0.00  0.00    +0.174 C 
BRANCH   3   4
ATOM      4  O   UNL     1      35.023 -18.637 -20.727  0.00  0.00    -0.348 OA
BRANCH   4   5
ATOM      5  C   UNL     1      34.566 -19.978 -20.612  0.00  0.00    +0.174 C 
BRANCH   5   6
ATOM      6  C   UNL     1      33.049 -19.983 -20.596  0.00  0.00    +0.174 C 
BRANCH   6   7
ATOM      7  O   UNL     1      32.599 -20.846 -19.559  0.00  0.00    -0.348 OA
ATOM      8  C   UNL     1      33.559 -21.852 -19.265  0.00  0.00    +0.174 C 
ENDBRANCH   6   7
ENDBRANCH   5   6
ENDBRANCH   4   5
ENDBRANCH   3   4
ENDBRANCH   2   3
ENDBRANCH   1   2
BRANCH   1   9
ATOM      9  C   UNL     1      34.512 -16.274 -24.437  0.00  0.00    +0.174 C 
BRANCH   9  10
ATOM     10  C   UNL     1      33.705 -15.065 -24.002  0.00  0.00    +0.174 C 
BRANCH  10  11
ATOM     11  O   UNL     1      34.133 -14.663 -22.708  0.00  0.00    -0.348 OA
BRANCH  11  12
ATOM     12  C   UNL     1      33.046 -14.611 -21.792  0.00  0.00    +0.174 C 
BRANCH  12  13
ATOM     13  C   UNL     1      33.499 -15.164 -20.455  0.00  0.00    +0.169 C 
BRANCH  13  14
ATOM     14  O   UNL     1      34.872 -15.525 -20.543  0.00  0.00    -0.379 OA
ATOM     15  H   UNL     1      35.384 -14.771 -20.875  0.00  0.00    +0.211 HD
ENDBRANCH  13  14
ENDBRANCH  12  13
ENDBRANCH  11  12
ENDBRANCH  10  11
ENDBRANCH   9  10
ENDBRANCH   1   9
TORSDOF 12
ENDMDL
MODEL 7
REMARK VINA RESULT:      -5.0      2.305      3.824
REMARK  Name = 90263
REMARK  12 active torsions:
REMARK  status: ('A' for Active; 'I' for Inactive)
REMARK    1  A    between atoms: O_1  and  C_2
REMARK    2  A    between atoms: O_1  and  C_9
REMARK    3  A    between atoms: C_2  and  C_3
REMARK    4  A    between atoms: C_3  and  O_4
REMARK    5  A    between atoms: O_4  and  C_5
REMARK    6  A    between atoms: C_5  and  C_6
REMARK    7  A    between atoms: C_6  and  O_7
REMARK    8  A    between atoms: C_9  and  C_10
REMARK    9  A    between atoms: C_10  and  O_11
REMARK   10  A    between atoms: O_11  and  C_12
REMARK   11  A    between atoms: C_12  and  C_13
REMARK   12  A    between atoms: C_13  and  O_14
REMARK                            x       y       z     vdW  Elec       q    Type
REMARK                         _______ _______ _______ _____ _____    ______ ____
ROOT
ATOM      1  O   UNL     1      36.004 -24.626 -15.768  0.00  0.00    -0.348 OA
ENDROOT
BRANCH   1   2
ATOM      2  C   UNL     1      35.058 -23.668 -15.313  0.00  0.00    +0.174 C 
BRANCH   2   3
ATOM      3  C   UNL     1      34.077 -24.348 -14.377  0.00  0.00    +0.174 C 
BRANCH   3   4
ATOM      4  O   UNL     1      32.752 -24.048 -14.797  0.00  0.00    -0.348 OA
BRANCH   4   5
ATOM      5  C   UNL     1      31.982 -23.499 -13.736  0.00  0.00    +0.174 C 
BRANCH   5   6
ATOM      6  C   UNL     1      30.846 -24.449 -13.407  0.00  0.00    +0.174 C 
BRANCH   6   7
ATOM      7  O   UNL     1      30.592 -25.277 -14.536  0.00  0.00    -0.348 OA
ATOM      8  C   UNL     1      29.332 -24.983 -15.125  0.00  0.00    +0.174 C 
ENDBRANCH   6   7
ENDBRANCH   5   6
ENDBRANCH   4   5
ENDBRANCH   3   4
ENDBRANCH   2   3
ENDBRANCH   1   2
BRANCH   1   9
ATOM      9  C   UNL     1      36.628 -25.298 -14.680  0.00  0.00    +0.174 C 
BRANCH   9  10
ATOM     10  C   UNL     1      37.087 -26.668 -15.143  0.00  0.00    +0.174 C 
BRANCH  10  11
ATOM     11  O   UNL     1      38.427 -26.876 -14.718  0.00  0.00    -0.348 OA
BRANCH  11  12
ATOM     12  C   UNL     1      38.972 -25.705 -14.123  0.00  0.00    +0.174 C 
BRANCH  12  13
ATOM     13  C   UNL     1      40.356 -25.460 -14.692  0.00  0.00    +0.169 C 
BRANCH  13  14
ATOM     14  O   UNL     1      40.411 -25.975 -16.017  0.00  0.00    -0.379 OA
ATOM     15  H   UNL     1      41.234 -25.689 -16.442  0.00  0.00    +0.211 HD
ENDBRANCH  13  14
ENDBRANCH  12  13
ENDBRANCH  11  12
ENDBRANCH  10  11
ENDBRANCH   9  10
ENDBRANCH   1   9
TORSDOF 12
ENDMDL
MODEL 8
REMARK VINA RESULT:      -5.0      5.409     10.257
REMARK  Name = 90263
REMARK  12 active torsions:
REMARK  status: ('A' for Active; 'I' for Inactive)
REMARK    1  A    between atoms: O_1  and  C_2
REMARK    2  A    between atoms: O_1  and  C_9
REMARK    3  A    between atoms: C_2  and  C_3
REMARK    4  A    between atoms: C_3  and  O_4
REMARK    5  A    between atoms: O_4  and  C_5
REMARK    6  A    between atoms: C_5  and  C_6
REMARK    7  A    between atoms: C_6  and  O_7
REMARK    8  A    between atoms: C_9  and  C_10
REMARK    9  A    between atoms: C_10  and  O_11
REMARK   10  A    between atoms: O_11  and  C_12
REMARK   11  A    between atoms: C_12  and  C_13
REMARK   12  A    between atoms: C_13  and  O_14
REMARK                            x       y       z     vdW  Elec       q    Type
REMARK                         _______ _______ _______ _____ _____    ______ ____
ROOT
ATOM      1  O   UNL     1      35.471 -17.543 -20.616  0.00  0.00    -0.348 OA
ENDROOT
BRANCH   1   2
ATOM      2  C   UNL     1      36.104 -18.665 -21.215  0.00  0.00    +0.174 C 
BRANCH   2   3
ATOM      3  C   UNL     1      35.308 -19.914 -20.889  0.00  0.00    +0.174 C 
BRANCH   3   4
ATOM      4  O   UNL     1      35.880 -20.545 -19.750  0.00  0.00    -0.348 OA
BRANCH   4   5
ATOM      5  C   UNL     1      35.060 -21.603 -19.274  0.00  0.00    +0.174 C 
BRANCH   5   6
ATOM      6  C   UNL     1      33.617 -21.311 -19.637  0.00  0.00    +0.174 C 
BRANCH   6   7
ATOM      7  O   UNL     1      32.769 -22.200 -18.919  0.00  0.00    -0.348 OA
ATOM      8  C   UNL     1      33.510 -23.015 -18.021  0.00  0.00    +0.174 C 
ENDBRANCH   6   7
ENDBRANCH   5   6
ENDBRANCH   4   5
ENDBRANCH   3   4
ENDBRANCH   2   3
ENDBRANCH   1   2
BRANCH   1   9
ATOM      9  C   UNL     1      34.300 -17.164 -21.328  0.00  0.00    +0.174 C 
BRANCH   9  10
ATOM     10  C   UNL     1      34.573 -15.874 -22.079  0.00  0.00    +0.174 C 
BRANCH  10  11
ATOM     11  O   UNL     1      34.514 -16.129 -23.475  0.00  0.00    -0.348 OA
BRANCH  11  12
ATOM     12  C   UNL     1      33.626 -15.233 -24.131  0.00  0.00    +0.174 C 
BRANCH  12  13
ATOM     13  C   UNL     1      33.638 -15.524 -25.619  0.00  0.00    +0.169 C 
BRANCH  13  14
ATOM     14  O   UNL     1      34.547 -16.588 -25.876  0.00  0.00    -0.379 OA
ATOM     15  H   UNL     1      35.441 -16.229 -25.994  0.00  0.00    +0.211 HD
ENDBRANCH  13  14
ENDBRANCH  12  13
ENDBRANCH  11  12
ENDBRANCH  10  11
ENDBRANCH   9  10
ENDBRANCH   1   9
TORSDOF 12
ENDMDL
MODEL 9
REMARK VINA RESULT:      -5.0      4.756      9.449
REMARK  Name = 90263
REMARK  12 active torsions:
REMARK  status: ('A' for Active; 'I' for Inactive)
REMARK    1  A    between atoms: O_1  and  C_2
REMARK    2  A    between atoms: O_1  and  C_9
REMARK    3  A    between atoms: C_2  and  C_3
REMARK    4  A    between atoms: C_3  and  O_4
REMARK    5  A    between atoms: O_4  and  C_5
REMARK    6  A    between atoms: C_5  and  C_6
REMARK    7  A    between atoms: C_6  and  O_7
REMARK    8  A    between atoms: C_9  and  C_10
REMARK    9  A    between atoms: C_10  and  O_11
REMARK   10  A    between atoms: O_11  and  C_12
REMARK   11  A    between atoms: C_12  and  C_13
REMARK   12  A    between atoms: C_13  and  O_14
REMARK                            x       y       z     vdW  Elec       q    Type
REMARK                         _______ _______ _______ _____ _____    ______ ____
ROOT
ATOM      1  O   UNL     1      35.386 -18.734 -22.042  0.00  0.00    -0.348 OA
ENDROOT
BRANCH   1   2
ATOM      2  C   UNL     1      34.096 -19.321 -21.947  0.00  0.00    +0.174 C 
BRANCH   2   3
ATOM      3  C   UNL     1      33.943 -19.962 -20.581  0.00  0.00    +0.174 C 
BRANCH   3   4
ATOM      4  O   UNL     1      35.231 -20.294 -20.078  0.00  0.00    -0.348 OA
BRANCH   4   5
ATOM      5  C   UNL     1      35.225 -21.555 -19.424  0.00  0.00    +0.174 C 
BRANCH   5   6
ATOM      6  C   UNL     1      33.802 -22.078 -19.371  0.00  0.00    +0.174 C 
BRANCH   6   7
ATOM      7  O   UNL     1      33.808 -23.383 -18.806  0.00  0.00    -0.348 OA
ATOM      8  C   UNL     1      33.349 -23.371 -17.461  0.00  0.00    +0.174 C 
ENDBRANCH   6   7
ENDBRANCH   5   6
ENDBRANCH   4   5
ENDBRANCH   3   4
ENDBRANCH   2   3
ENDBRANCH   1   2
BRANCH   1   9
ATOM      9  C   UNL     1      35.692 -18.363 -23.381  0.00  0.00    +0.174 C 
BRANCH   9  10
ATOM     10  C   UNL     1      34.924 -17.103 -23.733  0.00  0.00    +0.174 C 
BRANCH  10  11
ATOM     11  O   UNL     1      35.346 -16.049 -22.879  0.00  0.00    -0.348 OA
BRANCH  11  12
ATOM     12  C   UNL     1      34.239 -15.404 -22.262  0.00  0.00    +0.174 C 
BRANCH  12  13
ATOM     13  C   UNL     1      34.530 -15.228 -20.784  0.00  0.00    +0.169 C 
BRANCH  13  14
ATOM     14  O   UNL     1      35.133 -16.416 -20.286  0.00  0.00    -0.379 OA
ATOM     15  H   UNL     1      35.131 -17.095 -20.978  0.00  0.00    +0.211 HD
ENDBRANCH  13  14
ENDBRANCH  12  13
ENDBRANCH  11  12
ENDBRANCH  10  11
ENDBRANCH   9  10
ENDBRANCH   1   9
TORSDOF 12
ENDMDL
