MODEL 1
REMARK VINA RESULT:     -12.2      0.000      0.000
REMARK  Name = 446752
REMARK  3 active torsions:
REMARK  status: ('A' for Active; 'I' for Inactive)
REMARK    1  A    between atoms: C_6  and  C_18
REMARK    2  A    between atoms: C_18  and  N_19
REMARK    3  A    between atoms: N_19  and  C_22
REMARK                            x       y       z     vdW  Elec       q    Type
REMARK                         _______ _______ _______ _____ _____    ______ ____
ROOT
ATOM      1  N   UNL     1      32.751 -20.562 -20.560  0.00  0.00    -0.182 NA
ATOM      2  N   UNL     1      32.730 -22.082 -18.815  0.00  0.00    -0.273 NA
ATOM      3  N   UNL     1      34.757 -22.739 -17.693  0.00  0.00    -0.312 NA
ATOM      4  N   UNL     1      36.816 -21.868 -18.326  0.00  0.00    -0.332 N 
ATOM      5  N   UNL     1      32.689 -23.626 -17.047  0.00  0.00    -0.283 N 
ATOM      6  C   UNL     1      34.811 -19.582 -21.317  0.00  0.00    +0.010 C 
ATOM      7  C   UNL     1      35.504 -20.298 -20.369  0.00  0.00    -0.009 C 
ATOM      8  C   UNL     1      34.799 -21.153 -19.511  0.00  0.00    +0.115 C 
ATOM      9  C   UNL     1      33.409 -21.267 -19.630  0.00  0.00    +0.104 C 
ATOM     10  C   UNL     1      33.450 -19.741 -21.381  0.00  0.00    +0.107 C 
ATOM     11  C   UNL     1      36.990 -20.105 -20.324  0.00  0.00    +0.032 C 
ATOM     12  C   UNL     1      35.419 -21.915 -18.523  0.00  0.00    +0.201 C 
ATOM     13  C   UNL     1      33.432 -22.774 -17.892  0.00  0.00    +0.206 C 
ATOM     14  H   UNL     1      37.232 -22.416 -17.621  0.00  0.00    +0.145 HD
ATOM     15  H   UNL     1      37.374 -21.289 -18.894  0.00  0.00    +0.145 HD
ATOM     16  H   UNL     1      31.712 -23.690 -17.148  0.00  0.00    +0.156 HD
ATOM     17  H   UNL     1      33.148 -24.155 -16.355  0.00  0.00    +0.156 HD
ENDROOT
BRANCH   6  18
ATOM     18  C   UNL     1      35.492 -18.644 -22.276  0.00  0.00    +0.097 C 
BRANCH  18  19
ATOM     19  N   UNL     1      35.166 -17.290 -21.967  0.00  0.00    -0.288 NA
ATOM     20  H   UNL     1      35.401 -16.938 -21.078  0.00  0.00    +0.124 HD
BRANCH  19  22
ATOM     21  N   UNL     1      32.346 -13.458 -23.018  0.00  0.00    -0.248 NA
ATOM     22  C   UNL     1      34.517 -16.429 -22.886  0.00  0.00    +0.101 C 
ATOM     23  C   UNL     1      33.736 -15.344 -22.456  0.00  0.00    +0.010 C 
ATOM     24  C   UNL     1      33.102 -14.505 -23.396  0.00  0.00    +0.061 C 
ATOM     25  C   UNL     1      34.677 -16.688 -24.245  0.00  0.00    -0.010 C 
ATOM     26  C   UNL     1      33.559 -15.061 -21.095  0.00  0.00    +0.000 C 
ATOM     27  C   UNL     1      33.277 -14.788 -24.748  0.00  0.00    +0.071 C 
ATOM     28  C   UNL     1      34.055 -15.866 -25.176  0.00  0.00    -0.023 C 
ATOM     29  C   UNL     1      32.781 -13.983 -20.702  0.00  0.00    +0.020 C 
ATOM     30  C   UNL     1      32.201 -13.218 -21.694  0.00  0.00    +0.098 C 
ENDBRANCH  19  22
ENDBRANCH  18  19
ENDBRANCH   6  18
TORSDOF 3
ENDMDL
MODEL 2
REMARK VINA RESULT:     -12.0      0.883      2.074
REMARK  Name = 446752
REMARK  3 active torsions:
REMARK  status: ('A' for Active; 'I' for Inactive)
REMARK    1  A    between atoms: C_6  and  C_18
REMARK    2  A    between atoms: C_18  and  N_19
REMARK    3  A    between atoms: N_19  and  C_22
REMARK                            x       y       z     vdW  Elec       q    Type
REMARK                         _______ _______ _______ _____ _____    ______ ____
ROOT
ATOM      1  N   UNL     1      32.820 -20.554 -20.611  0.00  0.00    -0.182 NA
ATOM      2  N   UNL     1      32.749 -22.072 -18.865  0.00  0.00    -0.273 NA
ATOM      3  N   UNL     1      34.744 -22.739 -17.694  0.00  0.00    -0.312 NA
ATOM      4  N   UNL     1      36.823 -21.880 -18.278  0.00  0.00    -0.332 N 
ATOM      5  N   UNL     1      32.656 -23.614 -17.097  0.00  0.00    -0.283 N 
ATOM      6  C   UNL     1      34.903 -19.586 -21.319  0.00  0.00    +0.010 C 
ATOM      7  C   UNL     1      35.570 -20.305 -20.354  0.00  0.00    -0.009 C 
ATOM      8  C   UNL     1      34.839 -21.155 -19.512  0.00  0.00    +0.115 C 
ATOM      9  C   UNL     1      33.452 -21.262 -19.664  0.00  0.00    +0.104 C 
ATOM     10  C   UNL     1      33.543 -19.737 -21.415  0.00  0.00    +0.107 C 
ATOM     11  C   UNL     1      37.055 -20.120 -20.273  0.00  0.00    +0.032 C 
ATOM     12  C   UNL     1      35.431 -21.919 -18.508  0.00  0.00    +0.201 C 
ATOM     13  C   UNL     1      33.425 -22.767 -17.925  0.00  0.00    +0.206 C 
ATOM     14  H   UNL     1      37.219 -22.429 -17.562  0.00  0.00    +0.145 HD
ATOM     15  H   UNL     1      37.397 -21.305 -18.832  0.00  0.00    +0.145 HD
ATOM     16  H   UNL     1      31.682 -23.673 -17.222  0.00  0.00    +0.156 HD
ATOM     17  H   UNL     1      33.096 -24.145 -16.394  0.00  0.00    +0.156 HD
ENDROOT
BRANCH   6  18
ATOM     18  C   UNL     1      35.613 -18.653 -22.262  0.00  0.00    +0.097 C 
BRANCH  18  19
ATOM     19  N   UNL     1      34.670 -17.907 -23.031  0.00  0.00    -0.288 NA
ATOM     20  H   UNL     1      34.169 -18.370 -23.742  0.00  0.00    +0.124 HD
BRANCH  19  22
ATOM     21  N   UNL     1      33.330 -13.483 -24.572  0.00  0.00    -0.248 NA
ATOM     22  C   UNL     1      34.424 -16.530 -22.814  0.00  0.00    +0.101 C 
ATOM     23  C   UNL     1      33.986 -15.687 -23.849  0.00  0.00    +0.010 C 
ATOM     24  C   UNL     1      33.749 -14.319 -23.603  0.00  0.00    +0.061 C 
ATOM     25  C   UNL     1      34.627 -16.025 -21.533  0.00  0.00    -0.010 C 
ATOM     26  C   UNL     1      33.772 -16.169 -25.148  0.00  0.00    +0.000 C 
ATOM     27  C   UNL     1      33.963 -13.840 -22.313  0.00  0.00    +0.071 C 
ATOM     28  C   UNL     1      34.397 -14.678 -21.283  0.00  0.00    -0.023 C 
ATOM     29  C   UNL     1      33.340 -15.312 -26.149  0.00  0.00    +0.020 C 
ATOM     30  C   UNL     1      33.136 -13.989 -25.812  0.00  0.00    +0.098 C 
ENDBRANCH  19  22
ENDBRANCH  18  19
ENDBRANCH   6  18
TORSDOF 3
ENDMDL
MODEL 3
REMARK VINA RESULT:     -11.5      1.662      2.552
REMARK  Name = 446752
REMARK  3 active torsions:
REMARK  status: ('A' for Active; 'I' for Inactive)
REMARK    1  A    between atoms: C_6  and  C_18
REMARK    2  A    between atoms: C_18  and  N_19
REMARK    3  A    between atoms: N_19  and  C_22
REMARK                            x       y       z     vdW  Elec       q    Type
REMARK                         _______ _______ _______ _____ _____    ______ ____
ROOT
ATOM      1  N   UNL     1      32.654 -22.243 -18.710  0.00  0.00    -0.182 NA
ATOM      2  N   UNL     1      32.520 -23.339 -16.675  0.00  0.00    -0.273 NA
ATOM      3  N   UNL     1      34.463 -23.668 -15.292  0.00  0.00    -0.312 NA
ATOM      4  N   UNL     1      36.552 -22.896 -15.952  0.00  0.00    -0.332 N 
ATOM      5  N   UNL     1      32.363 -24.453 -14.614  0.00  0.00    -0.283 N 
ATOM      6  C   UNL     1      34.752 -21.392 -19.516  0.00  0.00    +0.010 C 
ATOM      7  C   UNL     1      35.380 -21.859 -18.384  0.00  0.00    -0.009 C 
ATOM      8  C   UNL     1      34.623 -22.524 -17.410  0.00  0.00    +0.115 C 
ATOM      9  C   UNL     1      33.248 -22.704 -17.600  0.00  0.00    +0.104 C 
ATOM     10  C   UNL     1      33.403 -21.603 -19.640  0.00  0.00    +0.107 C 
ATOM     11  C   UNL     1      36.855 -21.615 -18.276  0.00  0.00    +0.032 C 
ATOM     12  C   UNL     1      35.175 -23.028 -16.234  0.00  0.00    +0.201 C 
ATOM     13  C   UNL     1      33.158 -23.787 -15.573  0.00  0.00    +0.206 C 
ATOM     14  H   UNL     1      36.920 -23.260 -15.115  0.00  0.00    +0.145 HD
ATOM     15  H   UNL     1      37.144 -22.440 -16.594  0.00  0.00    +0.145 HD
ATOM     16  H   UNL     1      31.398 -24.568 -14.769  0.00  0.00    +0.156 HD
ATOM     17  H   UNL     1      32.775 -24.801 -13.791  0.00  0.00    +0.156 HD
ENDROOT
BRANCH   6  18
ATOM     18  C   UNL     1      35.492 -20.670 -20.608  0.00  0.00    +0.097 C 
BRANCH  18  19
ATOM     19  N   UNL     1      35.069 -19.309 -20.683  0.00  0.00    -0.288 NA
ATOM     20  H   UNL     1      34.864 -18.832 -19.846  0.00  0.00    +0.124 HD
BRANCH  19  22
ATOM     21  N   UNL     1      34.463 -15.228 -23.274  0.00  0.00    -0.248 NA
ATOM     22  C   UNL     1      34.932 -18.616 -21.911  0.00  0.00    +0.101 C 
ATOM     23  C   UNL     1      34.762 -17.223 -21.956  0.00  0.00    +0.010 C 
ATOM     24  C   UNL     1      34.628 -16.561 -23.194  0.00  0.00    +0.061 C 
ATOM     25  C   UNL     1      34.972 -19.360 -23.087  0.00  0.00    -0.010 C 
ATOM     26  C   UNL     1      34.719 -16.450 -20.788  0.00  0.00    +0.000 C 
ATOM     27  C   UNL     1      34.669 -17.329 -24.355  0.00  0.00    +0.071 C 
ATOM     28  C   UNL     1      34.840 -18.715 -24.310  0.00  0.00    -0.023 C 
ATOM     29  C   UNL     1      34.549 -15.076 -20.866  0.00  0.00    +0.020 C 
ATOM     30  C   UNL     1      34.427 -14.518 -22.122  0.00  0.00    +0.098 C 
ENDBRANCH  19  22
ENDBRANCH  18  19
ENDBRANCH   6  18
TORSDOF 3
ENDMDL
MODEL 4
REMARK VINA RESULT:     -11.5      1.128      3.014
REMARK  Name = 446752
REMARK  3 active torsions:
REMARK  status: ('A' for Active; 'I' for Inactive)
REMARK    1  A    between atoms: C_6  and  C_18
REMARK    2  A    between atoms: C_18  and  N_19
REMARK    3  A    between atoms: N_19  and  C_22
REMARK                            x       y       z     vdW  Elec       q    Type
REMARK                         _______ _______ _______ _____ _____    ______ ____
ROOT
ATOM      1  N   UNL     1      37.057 -20.447 -19.545  0.00  0.00    -0.182 NA
ATOM      2  N   UNL     1      36.863 -21.865 -17.725  0.00  0.00    -0.273 NA
ATOM      3  N   UNL     1      34.765 -22.896 -17.151  0.00  0.00    -0.312 NA
ATOM      4  N   UNL     1      32.850 -22.503 -18.406  0.00  0.00    -0.332 N 
ATOM      5  N   UNL     1      36.687 -23.300 -15.876  0.00  0.00    -0.283 N 
ATOM      6  C   UNL     1      35.157 -19.953 -20.931  0.00  0.00    +0.010 C 
ATOM      7  C   UNL     1      34.369 -20.764 -20.147  0.00  0.00    -0.009 C 
ATOM      8  C   UNL     1      34.947 -21.421 -19.051  0.00  0.00    +0.115 C 
ATOM      9  C   UNL     1      36.306 -21.242 -18.770  0.00  0.00    +0.104 C 
ATOM     10  C   UNL     1      36.481 -19.821 -20.600  0.00  0.00    +0.107 C 
ATOM     11  C   UNL     1      32.926 -20.889 -20.533  0.00  0.00    +0.032 C 
ATOM     12  C   UNL     1      34.226 -22.261 -18.205  0.00  0.00    +0.201 C 
ATOM     13  C   UNL     1      36.071 -22.657 -16.971  0.00  0.00    +0.206 C 
ATOM     14  H   UNL     1      32.361 -23.101 -17.795  0.00  0.00    +0.145 HD
ATOM     15  H   UNL     1      32.379 -22.074 -19.157  0.00  0.00    +0.145 HD
ATOM     16  H   UNL     1      37.644 -23.160 -15.697  0.00  0.00    +0.156 HD
ATOM     17  H   UNL     1      36.157 -23.889 -15.291  0.00  0.00    +0.156 HD
ENDROOT
BRANCH   6  18
ATOM     18  C   UNL     1      34.615 -19.213 -22.124  0.00  0.00    +0.097 C 
BRANCH  18  19
ATOM     19  N   UNL     1      35.348 -18.009 -22.340  0.00  0.00    -0.288 NA
ATOM     20  H   UNL     1      36.294 -18.073 -22.608  0.00  0.00    +0.124 HD
BRANCH  19  22
ATOM     21  N   UNL     1      33.165 -14.030 -24.113  0.00  0.00    -0.248 NA
ATOM     22  C   UNL     1      34.773 -16.724 -22.184  0.00  0.00    +0.101 C 
ATOM     23  C   UNL     1      34.245 -16.015 -23.275  0.00  0.00    +0.010 C 
ATOM     24  C   UNL     1      33.679 -14.737 -23.089  0.00  0.00    +0.061 C 
ATOM     25  C   UNL     1      34.743 -16.174 -20.905  0.00  0.00    -0.010 C 
ATOM     26  C   UNL     1      34.262 -16.545 -24.573  0.00  0.00    +0.000 C 
ATOM     27  C   UNL     1      33.663 -14.210 -21.800  0.00  0.00    +0.071 C 
ATOM     28  C   UNL     1      34.187 -14.915 -20.714  0.00  0.00    -0.023 C 
ATOM     29  C   UNL     1      33.733 -15.820 -25.630  0.00  0.00    +0.020 C 
ATOM     30  C   UNL     1      33.201 -14.578 -25.350  0.00  0.00    +0.098 C 
ENDBRANCH  19  22
ENDBRANCH  18  19
ENDBRANCH   6  18
TORSDOF 3
ENDMDL
MODEL 5
REMARK VINA RESULT:     -11.4      1.041      2.286
REMARK  Name = 446752
REMARK  3 active torsions:
REMARK  status: ('A' for Active; 'I' for Inactive)
REMARK    1  A    between atoms: C_6  and  C_18
REMARK    2  A    between atoms: C_18  and  N_19
REMARK    3  A    between atoms: N_19  and  C_22
REMARK                            x       y       z     vdW  Elec       q    Type
REMARK                         _______ _______ _______ _____ _____    ______ ____
ROOT
ATOM      1  N   UNL     1      36.957 -20.712 -19.283  0.00  0.00    -0.182 NA
ATOM      2  N   UNL     1      36.724 -22.113 -17.455  0.00  0.00    -0.273 NA
ATOM      3  N   UNL     1      34.606 -23.111 -16.895  0.00  0.00    -0.312 NA
ATOM      4  N   UNL     1      32.710 -22.702 -18.174  0.00  0.00    -0.332 N 
ATOM      5  N   UNL     1      36.509 -23.531 -15.596  0.00  0.00    -0.283 N 
ATOM      6  C   UNL     1      35.078 -20.203 -20.693  0.00  0.00    +0.010 C 
ATOM      7  C   UNL     1      34.271 -20.998 -19.911  0.00  0.00    -0.009 C 
ATOM      8  C   UNL     1      34.828 -21.654 -18.804  0.00  0.00    +0.115 C 
ATOM      9  C   UNL     1      36.187 -21.491 -18.510  0.00  0.00    +0.104 C 
ATOM     10  C   UNL     1      36.400 -20.086 -20.348  0.00  0.00    +0.107 C 
ATOM     11  C   UNL     1      32.831 -21.106 -20.311  0.00  0.00    +0.032 C 
ATOM     12  C   UNL     1      34.087 -22.477 -17.959  0.00  0.00    +0.201 C 
ATOM     13  C   UNL     1      35.913 -22.888 -16.703  0.00  0.00    +0.206 C 
ATOM     14  H   UNL     1      32.207 -23.289 -17.563  0.00  0.00    +0.145 HD
ATOM     15  H   UNL     1      32.253 -22.273 -18.933  0.00  0.00    +0.145 HD
ATOM     16  H   UNL     1      37.466 -23.403 -15.408  0.00  0.00    +0.156 HD
ATOM     17  H   UNL     1      35.965 -24.109 -15.013  0.00  0.00    +0.156 HD
ENDROOT
BRANCH   6  18
ATOM     18  C   UNL     1      34.558 -19.465 -21.896  0.00  0.00    +0.097 C 
BRANCH  18  19
ATOM     19  N   UNL     1      35.104 -18.148 -21.949  0.00  0.00    -0.288 NA
ATOM     20  H   UNL     1      35.846 -17.919 -21.342  0.00  0.00    +0.124 HD
BRANCH  19  22
ATOM     21  N   UNL     1      32.764 -13.977 -22.879  0.00  0.00    -0.248 NA
ATOM     22  C   UNL     1      34.624 -17.155 -22.837  0.00  0.00    +0.101 C 
ATOM     23  C   UNL     1      33.914 -16.034 -22.377  0.00  0.00    +0.010 C 
ATOM     24  C   UNL     1      33.448 -15.062 -23.286  0.00  0.00    +0.061 C 
ATOM     25  C   UNL     1      34.879 -17.318 -24.196  0.00  0.00    -0.010 C 
ATOM     26  C   UNL     1      33.644 -15.844 -21.014  0.00  0.00    +0.000 C 
ATOM     27  C   UNL     1      33.715 -15.251 -24.639  0.00  0.00    +0.071 C 
ATOM     28  C   UNL     1      34.423 -16.365 -25.098  0.00  0.00    -0.023 C 
ATOM     29  C   UNL     1      32.940 -14.728 -20.591  0.00  0.00    +0.020 C 
ATOM     30  C   UNL     1      32.525 -13.831 -21.554  0.00  0.00    +0.098 C 
ENDBRANCH  19  22
ENDBRANCH  18  19
ENDBRANCH   6  18
TORSDOF 3
ENDMDL
MODEL 6
REMARK VINA RESULT:     -11.3      3.249      5.933
REMARK  Name = 446752
REMARK  3 active torsions:
REMARK  status: ('A' for Active; 'I' for Inactive)
REMARK    1  A    between atoms: C_6  and  C_18
REMARK    2  A    between atoms: C_18  and  N_19
REMARK    3  A    between atoms: N_19  and  C_22
REMARK                            x       y       z     vdW  Elec       q    Type
REMARK                         _______ _______ _______ _____ _____    ______ ____
ROOT
ATOM      1  N   UNL     1      34.570 -15.150 -21.332  0.00  0.00    -0.182 NA
ATOM      2  N   UNL     1      35.263 -17.304 -20.847  0.00  0.00    -0.273 NA
ATOM      3  N   UNL     1      35.339 -19.014 -22.540  0.00  0.00    -0.312 NA
ATOM      4  N   UNL     1      34.715 -18.562 -24.732  0.00  0.00    -0.332 N 
ATOM      5  N   UNL     1      35.969 -19.483 -20.334  0.00  0.00    -0.283 N 
ATOM      6  C   UNL     1      33.897 -14.543 -23.559  0.00  0.00    +0.010 C 
ATOM      7  C   UNL     1      34.145 -15.827 -23.987  0.00  0.00    -0.009 C 
ATOM      8  C   UNL     1      34.613 -16.774 -23.066  0.00  0.00    +0.115 C 
ATOM      9  C   UNL     1      34.818 -16.405 -21.731  0.00  0.00    +0.104 C 
ATOM     10  C   UNL     1      34.118 -14.248 -22.238  0.00  0.00    +0.107 C 
ATOM     11  C   UNL     1      33.894 -16.120 -25.435  0.00  0.00    +0.032 C 
ATOM     12  C   UNL     1      34.891 -18.095 -23.411  0.00  0.00    +0.201 C 
ATOM     13  C   UNL     1      35.501 -18.557 -21.291  0.00  0.00    +0.206 C 
ATOM     14  H   UNL     1      34.918 -19.500 -24.953  0.00  0.00    +0.145 HD
ATOM     15  H   UNL     1      34.389 -17.951 -25.431  0.00  0.00    +0.145 HD
ATOM     16  H   UNL     1      36.107 -19.202 -19.401  0.00  0.00    +0.156 HD
ATOM     17  H   UNL     1      36.159 -20.412 -20.601  0.00  0.00    +0.156 HD
ENDROOT
BRANCH   6  18
ATOM     18  C   UNL     1      33.393 -13.468 -24.483  0.00  0.00    +0.097 C 
BRANCH  18  19
ATOM     19  N   UNL     1      32.965 -12.329 -23.738  0.00  0.00    -0.288 NA
ATOM     20  H   UNL     1      32.227 -12.436 -23.094  0.00  0.00    +0.124 HD
BRANCH  19  22
ATOM     21  N   UNL     1      33.405  -7.629 -22.535  0.00  0.00    -0.248 NA
ATOM     22  C   UNL     1      33.556 -11.051 -23.887  0.00  0.00    +0.101 C 
ATOM     23  C   UNL     1      33.157  -9.958 -23.100  0.00  0.00    +0.010 C 
ATOM     24  C   UNL     1      33.764  -8.697 -23.271  0.00  0.00    +0.061 C 
ATOM     25  C   UNL     1      34.556 -10.903 -24.844  0.00  0.00    -0.010 C 
ATOM     26  C   UNL     1      32.153 -10.080 -22.129  0.00  0.00    +0.000 C 
ATOM     27  C   UNL     1      34.760  -8.576 -24.236  0.00  0.00    +0.071 C 
ATOM     28  C   UNL     1      35.158  -9.663 -25.018  0.00  0.00    -0.023 C 
ATOM     29  C   UNL     1      31.781  -8.982 -21.369  0.00  0.00    +0.020 C 
ATOM     30  C   UNL     1      32.432  -7.789 -21.608  0.00  0.00    +0.098 C 
ENDBRANCH  19  22
ENDBRANCH  18  19
ENDBRANCH   6  18
TORSDOF 3
ENDMDL
MODEL 7
REMARK VINA RESULT:     -11.3      2.975      6.207
REMARK  Name = 446752
REMARK  3 active torsions:
REMARK  status: ('A' for Active; 'I' for Inactive)
REMARK    1  A    between atoms: C_6  and  C_18
REMARK    2  A    between atoms: C_18  and  N_19
REMARK    3  A    between atoms: N_19  and  C_22
REMARK                            x       y       z     vdW  Elec       q    Type
REMARK                         _______ _______ _______ _____ _____    ______ ____
ROOT
ATOM      1  N   UNL     1      34.556 -15.307 -20.515  0.00  0.00    -0.182 NA
ATOM      2  N   UNL     1      35.419 -17.454 -20.586  0.00  0.00    -0.273 NA
ATOM      3  N   UNL     1      35.495 -18.713 -22.637  0.00  0.00    -0.312 NA
ATOM      4  N   UNL     1      34.703 -17.815 -24.628  0.00  0.00    -0.332 N 
ATOM      5  N   UNL     1      36.297 -19.631 -20.638  0.00  0.00    -0.283 N 
ATOM      6  C   UNL     1      33.702 -14.255 -22.500  0.00  0.00    +0.010 C 
ATOM      7  C   UNL     1      34.005 -15.380 -23.231  0.00  0.00    -0.009 C 
ATOM      8  C   UNL     1      34.593 -16.477 -22.583  0.00  0.00    +0.115 C 
ATOM      9  C   UNL     1      34.859 -16.412 -21.211  0.00  0.00    +0.104 C 
ATOM     10  C   UNL     1      33.989 -14.258 -21.159  0.00  0.00    +0.107 C 
ATOM     11  C   UNL     1      33.680 -15.349 -24.694  0.00  0.00    +0.032 C 
ATOM     12  C   UNL     1      34.933 -17.654 -23.244  0.00  0.00    +0.201 C 
ATOM     13  C   UNL     1      35.708 -18.547 -21.325  0.00  0.00    +0.206 C 
ATOM     14  H   UNL     1      34.952 -18.657 -25.074  0.00  0.00    +0.145 HD
ATOM     15  H   UNL     1      34.292 -17.085 -25.146  0.00  0.00    +0.145 HD
ATOM     16  H   UNL     1      36.476 -19.563 -19.672  0.00  0.00    +0.156 HD
ATOM     17  H   UNL     1      36.529 -20.454 -21.125  0.00  0.00    +0.156 HD
ENDROOT
BRANCH   6  18
ATOM     18  C   UNL     1      33.070 -13.038 -23.119  0.00  0.00    +0.097 C 
BRANCH  18  19
ATOM     19  N   UNL     1      31.873 -12.690 -22.426  0.00  0.00    -0.288 NA
ATOM     20  H   UNL     1      31.054 -13.207 -22.608  0.00  0.00    +0.124 HD
BRANCH  19  22
ATOM     21  N   UNL     1      31.991  -7.959 -21.265  0.00  0.00    -0.248 NA
ATOM     22  C   UNL     1      31.811 -11.631 -21.488  0.00  0.00    +0.101 C 
ATOM     23  C   UNL     1      31.938 -10.289 -21.881  0.00  0.00    +0.010 C 
ATOM     24  C   UNL     1      31.873  -9.256 -20.923  0.00  0.00    +0.061 C 
ATOM     25  C   UNL     1      31.618 -11.958 -20.149  0.00  0.00    -0.010 C 
ATOM     26  C   UNL     1      32.133  -9.932 -23.222  0.00  0.00    +0.000 C 
ATOM     27  C   UNL     1      31.680  -9.611 -19.591  0.00  0.00    +0.071 C 
ATOM     28  C   UNL     1      31.552 -10.946 -19.199  0.00  0.00    -0.023 C 
ATOM     29  C   UNL     1      32.255  -8.597 -23.579  0.00  0.00    +0.020 C 
ATOM     30  C   UNL     1      32.178  -7.657 -22.571  0.00  0.00    +0.098 C 
ENDBRANCH  19  22
ENDBRANCH  18  19
ENDBRANCH   6  18
TORSDOF 3
ENDMDL
MODEL 8
REMARK VINA RESULT:     -11.1      3.899     10.015
REMARK  Name = 446752
REMARK  3 active torsions:
REMARK  status: ('A' for Active; 'I' for Inactive)
REMARK    1  A    between atoms: C_6  and  C_18
REMARK    2  A    between atoms: C_18  and  N_19
REMARK    3  A    between atoms: N_19  and  C_22
REMARK                            x       y       z     vdW  Elec       q    Type
REMARK                         _______ _______ _______ _____ _____    ______ ____
ROOT
ATOM      1  N   UNL     1      31.544 -10.614 -21.540  0.00  0.00    -0.182 NA
ATOM      2  N   UNL     1      31.804  -8.332 -21.251  0.00  0.00    -0.273 NA
ATOM      3  N   UNL     1      33.306  -7.052 -22.632  0.00  0.00    -0.312 NA
ATOM      4  N   UNL     1      34.553  -8.065 -24.310  0.00  0.00    -0.332 N 
ATOM      5  N   UNL     1      32.055  -6.019 -20.943  0.00  0.00    -0.283 N 
ATOM      6  C   UNL     1      32.772 -11.791 -23.238  0.00  0.00    +0.010 C 
ATOM      7  C   UNL     1      33.375 -10.615 -23.622  0.00  0.00    -0.009 C 
ATOM      8  C   UNL     1      33.048  -9.430 -22.947  0.00  0.00    +0.115 C 
ATOM      9  C   UNL     1      32.121  -9.459 -21.899  0.00  0.00    +0.104 C 
ATOM     10  C   UNL     1      31.873 -11.750 -22.203  0.00  0.00    +0.107 C 
ATOM     11  C   UNL     1      34.353 -10.691 -24.754  0.00  0.00    +0.032 C 
ATOM     12  C   UNL     1      33.608  -8.196 -23.269  0.00  0.00    +0.201 C 
ATOM     13  C   UNL     1      32.408  -7.191 -21.646  0.00  0.00    +0.206 C 
ATOM     14  H   UNL     1      34.936  -7.183 -24.519  0.00  0.00    +0.145 HD
ATOM     15  H   UNL     1      34.830  -8.857 -24.825  0.00  0.00    +0.145 HD
ATOM     16  H   UNL     1      31.400  -6.062 -20.210  0.00  0.00    +0.156 HD
ATOM     17  H   UNL     1      32.464  -5.157 -21.188  0.00  0.00    +0.156 HD
ENDROOT
BRANCH   6  18
ATOM     18  C   UNL     1      33.068 -13.105 -23.909  0.00  0.00    +0.097 C 
BRANCH  18  19
ATOM     19  N   UNL     1      34.324 -13.619 -23.468  0.00  0.00    -0.288 NA
ATOM     20  H   UNL     1      35.148 -13.150 -23.738  0.00  0.00    +0.124 HD
BRANCH  19  22
ATOM     21  N   UNL     1      34.761 -18.437 -22.887  0.00  0.00    -0.248 NA
ATOM     22  C   UNL     1      34.437 -14.775 -22.659  0.00  0.00    +0.101 C 
ATOM     23  C   UNL     1      34.546 -16.059 -23.217  0.00  0.00    +0.010 C 
ATOM     24  C   UNL     1      34.656 -17.192 -22.385  0.00  0.00    +0.061 C 
ATOM     25  C   UNL     1      34.438 -14.605 -21.277  0.00  0.00    -0.010 C 
ATOM     26  C   UNL     1      34.547 -16.258 -24.605  0.00  0.00    +0.000 C 
ATOM     27  C   UNL     1      34.653 -16.994 -21.007  0.00  0.00    +0.071 C 
ATOM     28  C   UNL     1      34.546 -15.717 -20.450  0.00  0.00    -0.023 C 
ATOM     29  C   UNL     1      34.655 -17.539 -25.126  0.00  0.00    +0.020 C 
ATOM     30  C   UNL     1      34.759 -18.585 -24.232  0.00  0.00    +0.098 C 
ENDBRANCH  19  22
ENDBRANCH  18  19
ENDBRANCH   6  18
TORSDOF 3
ENDMDL
MODEL 9
REMARK VINA RESULT:     -11.0      1.849      8.160
REMARK  Name = 446752
REMARK  3 active torsions:
REMARK  status: ('A' for Active; 'I' for Inactive)
REMARK    1  A    between atoms: C_6  and  C_18
REMARK    2  A    between atoms: C_18  and  N_19
REMARK    3  A    between atoms: N_19  and  C_22
REMARK                            x       y       z     vdW  Elec       q    Type
REMARK                         _______ _______ _______ _____ _____    ______ ____
ROOT
ATOM      1  N   UNL     1      35.099 -16.467 -20.806  0.00  0.00    -0.182 NA
ATOM      2  N   UNL     1      34.521 -14.683 -22.163  0.00  0.00    -0.273 NA
ATOM      3  N   UNL     1      34.055 -14.981 -24.506  0.00  0.00    -0.312 NA
ATOM      4  N   UNL     1      34.170 -17.080 -25.495  0.00  0.00    -0.332 N 
ATOM      5  N   UNL     1      33.937 -12.860 -23.522  0.00  0.00    -0.283 N 
ATOM      6  C   UNL     1      35.255 -18.694 -21.698  0.00  0.00    +0.010 C 
ATOM      7  C   UNL     1      34.909 -18.223 -22.944  0.00  0.00    -0.009 C 
ATOM      8  C   UNL     1      34.656 -16.854 -23.109  0.00  0.00    +0.115 C 
ATOM      9  C   UNL     1      34.760 -15.990 -22.012  0.00  0.00    +0.104 C 
ATOM     10  C   UNL     1      35.340 -17.794 -20.667  0.00  0.00    +0.107 C 
ATOM     11  C   UNL     1      34.825 -19.229 -24.051  0.00  0.00    +0.032 C 
ATOM     12  C   UNL     1      34.300 -16.291 -24.332  0.00  0.00    +0.201 C 
ATOM     13  C   UNL     1      34.182 -14.245 -23.394  0.00  0.00    +0.206 C 
ATOM     14  H   UNL     1      33.917 -16.660 -26.349  0.00  0.00    +0.145 HD
ATOM     15  H   UNL     1      34.333 -18.050 -25.453  0.00  0.00    +0.145 HD
ATOM     16  H   UNL     1      34.016 -12.271 -22.737  0.00  0.00    +0.156 HD
ATOM     17  H   UNL     1      33.687 -12.484 -24.397  0.00  0.00    +0.156 HD
ENDROOT
BRANCH   6  18
ATOM     18  C   UNL     1      35.542 -20.147 -21.438  0.00  0.00    +0.097 C 
BRANCH  18  19
ATOM     19  N   UNL     1      35.845 -20.357 -20.059  0.00  0.00    -0.288 NA
ATOM     20  H   UNL     1      36.597 -19.861 -19.660  0.00  0.00    +0.124 HD
BRANCH  19  22
ATOM     21  N   UNL     1      35.428 -23.301 -16.199  0.00  0.00    -0.248 NA
ATOM     22  C   UNL     1      35.110 -21.250 -19.241  0.00  0.00    +0.101 C 
ATOM     23  C   UNL     1      35.675 -21.836 -18.096  0.00  0.00    +0.010 C 
ATOM     24  C   UNL     1      34.918 -22.721 -17.302  0.00  0.00    +0.061 C 
ATOM     25  C   UNL     1      33.797 -21.534 -19.604  0.00  0.00    -0.010 C 
ATOM     26  C   UNL     1      36.995 -21.567 -17.709  0.00  0.00    +0.000 C 
ATOM     27  C   UNL     1      33.608 -22.989 -17.688  0.00  0.00    +0.071 C 
ATOM     28  C   UNL     1      33.045 -22.405 -18.825  0.00  0.00    -0.023 C 
ATOM     29  C   UNL     1      37.524 -22.162 -16.574  0.00  0.00    +0.020 C 
ATOM     30  C   UNL     1      36.707 -23.014 -15.859  0.00  0.00    +0.098 C 
ENDBRANCH  19  22
ENDBRANCH  18  19
ENDBRANCH   6  18
TORSDOF 3
ENDMDL
