MODEL 1
REMARK VINA RESULT:      -3.3      0.000      0.000
REMARK  Name = 6228
REMARK  0 active torsions:
REMARK  status: ('A' for Active; 'I' for Inactive)
REMARK                            x       y       z     vdW  Elec       q    Type
REMARK                         _______ _______ _______ _____ _____    ______ ____
ROOT
ATOM      1  O   UNL     1      42.460 -16.711 -15.674  0.00  0.00    -0.265 OA
ATOM      2  N   UNL     1      41.535 -14.841 -16.741  0.00  0.00    -0.269 N 
ATOM      3  C   UNL     1      41.242 -14.084 -15.536  0.00  0.00    +0.115 C 
ATOM      4  C   UNL     1      41.188 -14.233 -18.015  0.00  0.00    +0.115 C 
ATOM      5  C   UNL     1      42.122 -16.094 -16.678  0.00  0.00    +0.303 C 
ENDROOT
TORSDOF 0
ENDMDL
MODEL 2
REMARK VINA RESULT:      -3.3     10.862     11.212
REMARK  Name = 6228
REMARK  0 active torsions:
REMARK  status: ('A' for Active; 'I' for Inactive)
REMARK                            x       y       z     vdW  Elec       q    Type
REMARK                         _______ _______ _______ _____ _____    ______ ____
ROOT
ATOM      1  O   UNL     1      40.613 -26.120 -15.544  0.00  0.00    -0.265 OA
ATOM      2  N   UNL     1      38.906 -25.582 -14.031  0.00  0.00    -0.269 N 
ATOM      3  C   UNL     1      37.866 -26.380 -14.658  0.00  0.00    +0.115 C 
ATOM      4  C   UNL     1      38.549 -24.833 -12.838  0.00  0.00    +0.115 C 
ATOM      5  C   UNL     1      40.190 -25.538 -14.551  0.00  0.00    +0.303 C 
ENDROOT
TORSDOF 0
ENDMDL
MODEL 3
REMARK VINA RESULT:      -3.3     10.742     11.211
REMARK  Name = 6228
REMARK  0 active torsions:
REMARK  status: ('A' for Active; 'I' for Inactive)
REMARK                            x       y       z     vdW  Elec       q    Type
REMARK                         _______ _______ _______ _____ _____    ______ ____
ROOT
ATOM      1  O   UNL     1      38.812 -23.214 -11.711  0.00  0.00    -0.265 OA
ATOM      2  N   UNL     1      38.212 -25.202 -12.796  0.00  0.00    -0.269 N 
ATOM      3  C   UNL     1      39.407 -25.318 -13.614  0.00  0.00    +0.115 C 
ATOM      4  C   UNL     1      37.202 -26.238 -12.935  0.00  0.00    +0.115 C 
ATOM      5  C   UNL     1      38.041 -24.144 -11.918  0.00  0.00    +0.303 C 
ENDROOT
TORSDOF 0
ENDMDL
MODEL 4
REMARK VINA RESULT:      -3.2     15.517     15.695
REMARK  Name = 6228
REMARK  0 active torsions:
REMARK  status: ('A' for Active; 'I' for Inactive)
REMARK                            x       y       z     vdW  Elec       q    Type
REMARK                         _______ _______ _______ _____ _____    ______ ____
ROOT
ATOM      1  O   UNL     1      27.766 -24.313 -17.432  0.00  0.00    -0.265 OA
ATOM      2  N   UNL     1      29.120 -23.761 -15.602  0.00  0.00    -0.269 N 
ATOM      3  C   UNL     1      29.037 -25.049 -14.933  0.00  0.00    +0.115 C 
ATOM      4  C   UNL     1      29.918 -22.726 -14.966  0.00  0.00    +0.115 C 
ATOM      5  C   UNL     1      28.464 -23.529 -16.800  0.00  0.00    +0.303 C 
ENDROOT
TORSDOF 0
ENDMDL
MODEL 5
REMARK VINA RESULT:      -3.2     10.002     10.264
REMARK  Name = 6228
REMARK  0 active torsions:
REMARK  status: ('A' for Active; 'I' for Inactive)
REMARK                            x       y       z     vdW  Elec       q    Type
REMARK                         _______ _______ _______ _____ _____    ______ ____
ROOT
ATOM      1  O   UNL     1      32.597 -20.781 -19.432  0.00  0.00    -0.265 OA
ATOM      2  N   UNL     1      34.253 -20.047 -20.919  0.00  0.00    -0.269 N 
ATOM      3  C   UNL     1      35.381 -20.648 -20.228  0.00  0.00    +0.115 C 
ATOM      4  C   UNL     1      34.532 -19.300 -22.134  0.00  0.00    +0.115 C 
ATOM      5  C   UNL     1      32.961 -20.181 -20.437  0.00  0.00    +0.303 C 
ENDROOT
TORSDOF 0
ENDMDL
MODEL 6
REMARK VINA RESULT:      -3.2     11.473     11.992
REMARK  Name = 6228
REMARK  0 active torsions:
REMARK  status: ('A' for Active; 'I' for Inactive)
REMARK                            x       y       z     vdW  Elec       q    Type
REMARK                         _______ _______ _______ _____ _____    ______ ____
ROOT
ATOM      1  O   UNL     1      35.324 -25.151 -10.406  0.00  0.00    -0.265 OA
ATOM      2  N   UNL     1      36.619 -24.569 -12.270  0.00  0.00    -0.269 N 
ATOM      3  C   UNL     1      37.172 -25.891 -12.512  0.00  0.00    +0.115 C 
ATOM      4  C   UNL     1      37.024 -23.499 -13.166  0.00  0.00    +0.115 C 
ATOM      5  C   UNL     1      35.739 -24.339 -11.225  0.00  0.00    +0.303 C 
ENDROOT
TORSDOF 0
ENDMDL
MODEL 7
REMARK VINA RESULT:      -3.2      1.459      2.135
REMARK  Name = 6228
REMARK  0 active torsions:
REMARK  status: ('A' for Active; 'I' for Inactive)
REMARK                            x       y       z     vdW  Elec       q    Type
REMARK                         _______ _______ _______ _____ _____    ______ ____
ROOT
ATOM      1  O   UNL     1      40.829 -14.576 -14.133  0.00  0.00    -0.265 OA
ATOM      2  N   UNL     1      41.289 -14.999 -16.391  0.00  0.00    -0.269 N 
ATOM      3  C   UNL     1      41.648 -16.398 -16.233  0.00  0.00    +0.115 C 
ATOM      4  C   UNL     1      41.341 -14.441 -17.733  0.00  0.00    +0.115 C 
ATOM      5  C   UNL     1      40.912 -14.226 -15.305  0.00  0.00    +0.303 C 
ENDROOT
TORSDOF 0
ENDMDL
MODEL 8
REMARK VINA RESULT:      -3.2     10.277     10.813
REMARK  Name = 6228
REMARK  0 active torsions:
REMARK  status: ('A' for Active; 'I' for Inactive)
REMARK                            x       y       z     vdW  Elec       q    Type
REMARK                         _______ _______ _______ _____ _____    ______ ____
ROOT
ATOM      1  O   UNL     1      34.698 -16.708 -25.823  0.00  0.00    -0.265 OA
ATOM      2  N   UNL     1      34.836 -17.788 -23.748  0.00  0.00    -0.269 N 
ATOM      3  C   UNL     1      35.206 -16.617 -22.971  0.00  0.00    +0.115 C 
ATOM      4  C   UNL     1      34.703 -19.049 -23.038  0.00  0.00    +0.115 C 
ATOM      5  C   UNL     1      34.618 -17.705 -25.114  0.00  0.00    +0.303 C 
ENDROOT
TORSDOF 0
ENDMDL
MODEL 9
REMARK VINA RESULT:      -3.2     11.479     12.087
REMARK  Name = 6228
REMARK  0 active torsions:
REMARK  status: ('A' for Active; 'I' for Inactive)
REMARK                            x       y       z     vdW  Elec       q    Type
REMARK                         _______ _______ _______ _____ _____    ______ ____
ROOT
ATOM      1  O   UNL     1      36.909 -26.232 -11.901  0.00  0.00    -0.265 OA
ATOM      2  N   UNL     1      38.156 -26.024 -13.873  0.00  0.00    -0.269 N 
ATOM      3  C   UNL     1      37.239 -26.755 -14.733  0.00  0.00    +0.115 C 
ATOM      4  C   UNL     1      39.366 -25.496 -14.481  0.00  0.00    +0.115 C 
ATOM      5  C   UNL     1      37.886 -25.839 -12.527  0.00  0.00    +0.303 C 
ENDROOT
TORSDOF 0
ENDMDL
