MODEL 1
REMARK VINA RESULT:      -9.3      0.000      0.000
REMARK  Name = 5282452
REMARK  11 active torsions:
REMARK  status: ('A' for Active; 'I' for Inactive)
REMARK    1  A    between atoms: C_2  and  C_18
REMARK    2  A    between atoms: C_3  and  C_21
REMARK    3  A    between atoms: C_4  and  C_12
REMARK    4  A    between atoms: C_22  and  C_23
REMARK    5  A    between atoms: C_23  and  O_24
REMARK    6  A    between atoms: C_23  and  C_26
REMARK    7  A    between atoms: C_26  and  C_27
REMARK    8  A    between atoms: C_27  and  O_28
REMARK    9  A    between atoms: C_27  and  C_30
REMARK   10  A    between atoms: C_30  and  C_32
REMARK   11  A    between atoms: C_32  and  O_33
REMARK                            x       y       z     vdW  Elec       q    Type
REMARK                         _______ _______ _______ _____ _____    ______ ____
ROOT
ATOM      1  N   UNL     1      31.943 -12.786 -20.736  0.00  0.00    -0.410 NA
ATOM      2  C   UNL     1      31.834 -11.556 -21.288  0.00  0.00    +0.108 C 
ATOM      3  C   UNL     1      32.438 -11.195 -22.468  0.00  0.00    +0.025 C 
ATOM      4  C   UNL     1      33.200 -12.135 -23.132  0.00  0.00    +0.004 C 
ATOM      5  C   UNL     1      32.685 -13.708 -21.377  0.00  0.00    +0.113 C 
ATOM      6  C   UNL     1      33.340 -13.422 -22.595  0.00  0.00    +0.026 C 
ATOM      7  C   UNL     1      32.824 -14.986 -20.844  0.00  0.00    +0.085 C 
ATOM      8  C   UNL     1      34.106 -14.408 -23.237  0.00  0.00    +0.002 C 
ATOM      9  C   UNL     1      33.586 -15.968 -21.483  0.00  0.00    -0.019 C 
ATOM     10  C   UNL     1      34.228 -15.679 -22.681  0.00  0.00    -0.004 C 
ENDROOT
BRANCH   4  12
ATOM     11  F   UNL     1      35.680 -10.747 -27.929  0.00  0.00    -0.204 F 
ATOM     12  C   UNL     1      33.849 -11.772 -24.386  0.00  0.00    +0.000 C 
ATOM     13  C   UNL     1      33.492 -12.427 -25.558  0.00  0.00    +0.002 C 
ATOM     14  C   UNL     1      34.816 -10.776 -24.395  0.00  0.00    +0.002 C 
ATOM     15  C   UNL     1      34.112 -12.081 -26.757  0.00  0.00    +0.030 C 
ATOM     16  C   UNL     1      35.437 -10.429 -25.596  0.00  0.00    +0.030 C 
ATOM     17  C   UNL     1      35.085 -11.081 -26.777  0.00  0.00    +0.140 C 
ENDBRANCH   4  12
BRANCH   2  18
ATOM     18  C   UNL     1      30.996 -10.580 -20.522  0.00  0.00    +0.052 C 
ATOM     19  C   UNL     1      31.663  -9.639 -19.575  0.00  0.00    +0.007 C 
ATOM     20  C   UNL     1      30.830 -10.770 -19.049  0.00  0.00    +0.007 C 
ENDBRANCH   2  18
BRANCH   3  21
ATOM     21  C   UNL     1      32.266  -9.829 -22.995  0.00  0.00    +0.000 C 
ATOM     22  C   UNL     1      32.968  -8.757 -22.594  0.00  0.00    +0.003 C 
BRANCH  22  23
ATOM     23  C   UNL     1      32.812  -7.346 -23.109  0.00  0.00    +0.135 C 
BRANCH  23  24
ATOM     24  O   UNL     1      33.454  -7.192 -24.372  0.00  0.00    -0.380 OA
ATOM     25  H   UNL     1      32.805  -7.313 -25.082  0.00  0.00    +0.211 HD
ENDBRANCH  23  24
BRANCH  23  26
ATOM     26  C   UNL     1      31.321  -6.983 -23.233  0.00  0.00    +0.064 C 
BRANCH  26  27
ATOM     27  C   UNL     1      30.983  -5.585 -22.694  0.00  0.00    +0.124 C 
BRANCH  27  28
ATOM     28  O   UNL     1      31.736  -5.346 -21.508  0.00  0.00    -0.384 OA
ATOM     29  H   UNL     1      32.294  -4.563 -21.631  0.00  0.00    +0.210 HD
ENDBRANCH  27  28
BRANCH  27  30
ATOM     30  C   UNL     1      31.245  -4.469 -23.709  0.00  0.00    +0.139 C 
BRANCH  30  32
ATOM     31  O   UNL     1      31.975  -2.191 -23.354  0.00  0.00    -0.250 OA
ATOM     32  C   UNL     1      31.179  -3.086 -23.101  0.00  0.00    +0.316 C 
BRANCH  32  33
ATOM     33  O   UNL     1      30.156  -2.945 -22.222  0.00  0.00    -0.480 OA
ATOM     34  H   UNL     1      29.297  -3.240 -22.452  0.00  0.00    +0.295 HD
ENDBRANCH  32  33
ENDBRANCH  30  32
ENDBRANCH  27  30
ENDBRANCH  26  27
ENDBRANCH  23  26
ENDBRANCH  22  23
ENDBRANCH   3  21
TORSDOF 11
ENDMDL
MODEL 2
REMARK VINA RESULT:      -9.1      4.100      7.547
REMARK  Name = 5282452
REMARK  11 active torsions:
REMARK  status: ('A' for Active; 'I' for Inactive)
REMARK    1  A    between atoms: C_2  and  C_18
REMARK    2  A    between atoms: C_3  and  C_21
REMARK    3  A    between atoms: C_4  and  C_12
REMARK    4  A    between atoms: C_22  and  C_23
REMARK    5  A    between atoms: C_23  and  O_24
REMARK    6  A    between atoms: C_23  and  C_26
REMARK    7  A    between atoms: C_26  and  C_27
REMARK    8  A    between atoms: C_27  and  O_28
REMARK    9  A    between atoms: C_27  and  C_30
REMARK   10  A    between atoms: C_30  and  C_32
REMARK   11  A    between atoms: C_32  and  O_33
REMARK                            x       y       z     vdW  Elec       q    Type
REMARK                         _______ _______ _______ _____ _____    ______ ____
ROOT
ATOM      1  N   UNL     1      31.587  -8.902 -21.111  0.00  0.00    -0.410 NA
ATOM      2  C   UNL     1      31.967 -10.192 -21.251  0.00  0.00    +0.108 C 
ATOM      3  C   UNL     1      32.681 -10.662 -22.326  0.00  0.00    +0.025 C 
ATOM      4  C   UNL     1      33.032  -9.773 -23.323  0.00  0.00    +0.004 C 
ATOM      5  C   UNL     1      31.924  -8.029 -22.078  0.00  0.00    +0.113 C 
ATOM      6  C   UNL     1      32.657  -8.427 -23.217  0.00  0.00    +0.026 C 
ATOM      7  C   UNL     1      31.553  -6.692 -21.974  0.00  0.00    +0.085 C 
ATOM      8  C   UNL     1      32.993  -7.490 -24.208  0.00  0.00    +0.002 C 
ATOM      9  C   UNL     1      31.887  -5.759 -22.959  0.00  0.00    -0.019 C 
ATOM     10  C   UNL     1      32.608  -6.158 -24.077  0.00  0.00    -0.004 C 
ENDROOT
BRANCH   4  12
ATOM     11  F   UNL     1      35.929 -11.605 -27.721  0.00  0.00    -0.204 F 
ATOM     12  C   UNL     1      33.790 -10.252 -24.473  0.00  0.00    +0.000 C 
ATOM     13  C   UNL     1      33.241 -11.225 -25.299  0.00  0.00    +0.002 C 
ATOM     14  C   UNL     1      35.051  -9.731 -24.728  0.00  0.00    +0.002 C 
ATOM     15  C   UNL     1      33.965 -11.683 -26.399  0.00  0.00    +0.030 C 
ATOM     16  C   UNL     1      35.776 -10.190 -25.829  0.00  0.00    +0.030 C 
ATOM     17  C   UNL     1      35.233 -11.165 -26.664  0.00  0.00    +0.140 C 
ENDBRANCH   4  12
BRANCH   2  18
ATOM     18  C   UNL     1      31.557 -11.107 -20.140  0.00  0.00    +0.052 C 
ATOM     19  C   UNL     1      30.437 -10.700 -19.241  0.00  0.00    +0.007 C 
ATOM     20  C   UNL     1      31.847 -10.708 -18.729  0.00  0.00    +0.007 C 
ENDBRANCH   2  18
BRANCH   3  21
ATOM     21  C   UNL     1      33.052 -12.087 -22.398  0.00  0.00    +0.000 C 
ATOM     22  C   UNL     1      32.232 -13.074 -22.792  0.00  0.00    +0.003 C 
BRANCH  22  23
ATOM     23  C   UNL     1      32.580 -14.542 -22.872  0.00  0.00    +0.135 C 
BRANCH  23  24
ATOM     24  O   UNL     1      33.673 -14.760 -23.758  0.00  0.00    -0.380 OA
ATOM     25  H   UNL     1      33.524 -15.575 -24.262  0.00  0.00    +0.211 HD
ENDBRANCH  23  24
BRANCH  23  26
ATOM     26  C   UNL     1      32.923 -15.086 -21.473  0.00  0.00    +0.064 C 
BRANCH  26  27
ATOM     27  C   UNL     1      34.364 -15.605 -21.353  0.00  0.00    +0.124 C 
BRANCH  27  28
ATOM     28  O   UNL     1      34.965 -15.047 -20.187  0.00  0.00    -0.384 OA
ATOM     29  H   UNL     1      35.627 -15.665 -19.838  0.00  0.00    +0.210 HD
ENDBRANCH  27  28
BRANCH  27  30
ATOM     30  C   UNL     1      34.453 -17.132 -21.304  0.00  0.00    +0.139 C 
BRANCH  30  32
ATOM     31  O   UNL     1      34.954 -18.917 -22.856  0.00  0.00    -0.250 OA
ATOM     32  C   UNL     1      35.044 -17.732 -22.560  0.00  0.00    +0.316 C 
BRANCH  32  33
ATOM     33  O   UNL     1      35.708 -16.824 -23.316  0.00  0.00    -0.480 OA
ATOM     34  H   UNL     1      35.476 -15.918 -23.272  0.00  0.00    +0.295 HD
ENDBRANCH  32  33
ENDBRANCH  30  32
ENDBRANCH  27  30
ENDBRANCH  26  27
ENDBRANCH  23  26
ENDBRANCH  22  23
ENDBRANCH   3  21
TORSDOF 11
ENDMDL
MODEL 3
REMARK VINA RESULT:      -9.1      2.190      4.115
REMARK  Name = 5282452
REMARK  11 active torsions:
REMARK  status: ('A' for Active; 'I' for Inactive)
REMARK    1  A    between atoms: C_2  and  C_18
REMARK    2  A    between atoms: C_3  and  C_21
REMARK    3  A    between atoms: C_4  and  C_12
REMARK    4  A    between atoms: C_22  and  C_23
REMARK    5  A    between atoms: C_23  and  O_24
REMARK    6  A    between atoms: C_23  and  C_26
REMARK    7  A    between atoms: C_26  and  C_27
REMARK    8  A    between atoms: C_27  and  O_28
REMARK    9  A    between atoms: C_27  and  C_30
REMARK   10  A    between atoms: C_30  and  C_32
REMARK   11  A    between atoms: C_32  and  O_33
REMARK                            x       y       z     vdW  Elec       q    Type
REMARK                         _______ _______ _______ _____ _____    ______ ____
ROOT
ATOM      1  N   UNL     1      32.747 -14.565 -23.517  0.00  0.00    -0.410 NA
ATOM      2  C   UNL     1      32.623 -13.720 -22.468  0.00  0.00    +0.108 C 
ATOM      3  C   UNL     1      32.796 -12.361 -22.562  0.00  0.00    +0.025 C 
ATOM      4  C   UNL     1      33.115 -11.821 -23.791  0.00  0.00    +0.004 C 
ATOM      5  C   UNL     1      33.058 -14.046 -24.720  0.00  0.00    +0.113 C 
ATOM      6  C   UNL     1      33.252 -12.661 -24.905  0.00  0.00    +0.026 C 
ATOM      7  C   UNL     1      33.195 -14.879 -25.826  0.00  0.00    +0.085 C 
ATOM      8  C   UNL     1      33.576 -12.153 -26.174  0.00  0.00    +0.002 C 
ATOM      9  C   UNL     1      33.516 -14.375 -27.089  0.00  0.00    -0.019 C 
ATOM     10  C   UNL     1      33.707 -13.010 -27.263  0.00  0.00    -0.004 C 
ENDROOT
BRANCH   4  12
ATOM     11  F   UNL     1      33.832  -6.311 -24.253  0.00  0.00    -0.204 F 
ATOM     12  C   UNL     1      33.302 -10.379 -23.912  0.00  0.00    +0.000 C 
ATOM     13  C   UNL     1      34.588  -9.856 -23.946  0.00  0.00    +0.002 C 
ATOM     14  C   UNL     1      32.193  -9.548 -23.990  0.00  0.00    +0.002 C 
ATOM     15  C   UNL     1      34.768  -8.478 -24.061  0.00  0.00    +0.030 C 
ATOM     16  C   UNL     1      32.373  -8.169 -24.105  0.00  0.00    +0.030 C 
ATOM     17  C   UNL     1      33.660  -7.634 -24.141  0.00  0.00    +0.140 C 
ENDBRANCH   4  12
BRANCH   2  18
ATOM     18  C   UNL     1      32.278 -14.365 -21.162  0.00  0.00    +0.052 C 
ATOM     19  C   UNL     1      33.369 -14.971 -20.343  0.00  0.00    +0.007 C 
ATOM     20  C   UNL     1      32.374 -15.851 -21.041  0.00  0.00    +0.007 C 
ENDBRANCH   2  18
BRANCH   3  21
ATOM     21  C   UNL     1      32.644 -11.515 -21.364  0.00  0.00    +0.000 C 
ATOM     22  C   UNL     1      31.475 -11.050 -20.896  0.00  0.00    +0.003 C 
BRANCH  22  23
ATOM     23  C   UNL     1      31.287 -10.179 -19.676  0.00  0.00    +0.135 C 
BRANCH  23  24
ATOM     24  O   UNL     1      31.195 -10.969 -18.495  0.00  0.00    -0.380 OA
ATOM     25  H   UNL     1      32.084 -11.239 -18.216  0.00  0.00    +0.211 HD
ENDBRANCH  23  24
BRANCH  23  26
ATOM     26  C   UNL     1      32.450  -9.179 -19.548  0.00  0.00    +0.064 C 
BRANCH  26  27
ATOM     27  C   UNL     1      32.028  -7.716 -19.749  0.00  0.00    +0.124 C 
BRANCH  27  28
ATOM     28  O   UNL     1      33.098  -6.863 -19.350  0.00  0.00    -0.384 OA
ATOM     29  H   UNL     1      32.784  -6.247 -18.671  0.00  0.00    +0.210 HD
ENDBRANCH  27  28
BRANCH  27  30
ATOM     30  C   UNL     1      31.620  -7.399 -21.189  0.00  0.00    +0.139 C 
BRANCH  30  32
ATOM     31  O   UNL     1      30.131  -5.510 -21.444  0.00  0.00    -0.250 OA
ATOM     32  C   UNL     1      31.276  -5.942 -21.402  0.00  0.00    +0.316 C 
BRANCH  32  33
ATOM     33  O   UNL     1      32.372  -5.161 -21.565  0.00  0.00    -0.480 OA
ATOM     34  H   UNL     1      33.001  -5.368 -22.228  0.00  0.00    +0.295 HD
ENDBRANCH  32  33
ENDBRANCH  30  32
ENDBRANCH  27  30
ENDBRANCH  26  27
ENDBRANCH  23  26
ENDBRANCH  22  23
ENDBRANCH   3  21
TORSDOF 11
ENDMDL
MODEL 4
REMARK VINA RESULT:      -9.0      4.897      8.375
REMARK  Name = 5282452
REMARK  11 active torsions:
REMARK  status: ('A' for Active; 'I' for Inactive)
REMARK    1  A    between atoms: C_2  and  C_18
REMARK    2  A    between atoms: C_3  and  C_21
REMARK    3  A    between atoms: C_4  and  C_12
REMARK    4  A    between atoms: C_22  and  C_23
REMARK    5  A    between atoms: C_23  and  O_24
REMARK    6  A    between atoms: C_23  and  C_26
REMARK    7  A    between atoms: C_26  and  C_27
REMARK    8  A    between atoms: C_27  and  O_28
REMARK    9  A    between atoms: C_27  and  C_30
REMARK   10  A    between atoms: C_30  and  C_32
REMARK   11  A    between atoms: C_32  and  O_33
REMARK                            x       y       z     vdW  Elec       q    Type
REMARK                         _______ _______ _______ _____ _____    ______ ____
ROOT
ATOM      1  N   UNL     1      31.944 -12.656 -21.191  0.00  0.00    -0.410 NA
ATOM      2  C   UNL     1      32.626 -13.584 -21.899  0.00  0.00    +0.108 C 
ATOM      3  C   UNL     1      33.298 -13.309 -23.066  0.00  0.00    +0.025 C 
ATOM      4  C   UNL     1      33.280 -12.014 -23.546  0.00  0.00    +0.004 C 
ATOM      5  C   UNL     1      31.921 -11.391 -21.653  0.00  0.00    +0.113 C 
ATOM      6  C   UNL     1      32.585 -11.021 -22.842  0.00  0.00    +0.026 C 
ATOM      7  C   UNL     1      31.231 -10.405 -20.955  0.00  0.00    +0.085 C 
ATOM      8  C   UNL     1      32.540  -9.693 -23.295  0.00  0.00    +0.002 C 
ATOM      9  C   UNL     1      31.187  -9.083 -21.405  0.00  0.00    -0.019 C 
ATOM     10  C   UNL     1      31.842  -8.726 -22.576  0.00  0.00    -0.004 C 
ENDROOT
BRANCH   4  12
ATOM     11  F   UNL     1      35.984 -10.816 -28.272  0.00  0.00    -0.204 F 
ATOM     12  C   UNL     1      33.987 -11.701 -24.782  0.00  0.00    +0.000 C 
ATOM     13  C   UNL     1      33.664 -12.382 -25.949  0.00  0.00    +0.002 C 
ATOM     14  C   UNL     1      34.976 -10.726 -24.778  0.00  0.00    +0.002 C 
ATOM     15  C   UNL     1      34.340 -12.083 -27.131  0.00  0.00    +0.030 C 
ATOM     16  C   UNL     1      35.653 -10.427 -25.961  0.00  0.00    +0.030 C 
ATOM     17  C   UNL     1      35.335 -11.105 -27.137  0.00  0.00    +0.140 C 
ENDBRANCH   4  12
BRANCH   2  18
ATOM     18  C   UNL     1      32.608 -14.968 -21.330  0.00  0.00    +0.052 C 
ATOM     19  C   UNL     1      32.399 -15.146 -19.862  0.00  0.00    +0.007 C 
ATOM     20  C   UNL     1      33.746 -15.410 -20.468  0.00  0.00    +0.007 C 
ENDBRANCH   2  18
BRANCH   3  21
ATOM     21  C   UNL     1      34.014 -14.384 -23.775  0.00  0.00    +0.000 C 
ATOM     22  C   UNL     1      33.447 -15.511 -24.233  0.00  0.00    +0.003 C 
BRANCH  22  23
ATOM     23  C   UNL     1      34.153 -16.633 -24.957  0.00  0.00    +0.135 C 
BRANCH  23  24
ATOM     24  O   UNL     1      34.623 -16.201 -26.230  0.00  0.00    -0.380 OA
ATOM     25  H   UNL     1      33.880 -16.160 -26.853  0.00  0.00    +0.211 HD
ENDBRANCH  23  24
BRANCH  23  26
ATOM     26  C   UNL     1      35.330 -17.157 -24.114  0.00  0.00    +0.064 C 
BRANCH  26  27
ATOM     27  C   UNL     1      34.906 -18.137 -23.010  0.00  0.00    +0.124 C 
BRANCH  27  28
ATOM     28  O   UNL     1      34.650 -19.413 -23.592  0.00  0.00    -0.384 OA
ATOM     29  H   UNL     1      33.700 -19.605 -23.545  0.00  0.00    +0.210 HD
ENDBRANCH  27  28
BRANCH  27  30
ATOM     30  C   UNL     1      35.944 -18.274 -21.895  0.00  0.00    +0.139 C 
BRANCH  30  32
ATOM     31  O   UNL     1      34.449 -19.765 -20.716  0.00  0.00    -0.250 OA
ATOM     32  C   UNL     1      35.582 -19.327 -20.872  0.00  0.00    +0.316 C 
BRANCH  32  33
ATOM     33  O   UNL     1      36.642 -19.723 -20.125  0.00  0.00    -0.480 OA
ATOM     34  H   UNL     1      36.841 -19.282 -19.323  0.00  0.00    +0.295 HD
ENDBRANCH  32  33
ENDBRANCH  30  32
ENDBRANCH  27  30
ENDBRANCH  26  27
ENDBRANCH  23  26
ENDBRANCH  22  23
ENDBRANCH   3  21
TORSDOF 11
ENDMDL
MODEL 5
REMARK VINA RESULT:      -8.8      0.967      1.777
REMARK  Name = 5282452
REMARK  11 active torsions:
REMARK  status: ('A' for Active; 'I' for Inactive)
REMARK    1  A    between atoms: C_2  and  C_18
REMARK    2  A    between atoms: C_3  and  C_21
REMARK    3  A    between atoms: C_4  and  C_12
REMARK    4  A    between atoms: C_22  and  C_23
REMARK    5  A    between atoms: C_23  and  O_24
REMARK    6  A    between atoms: C_23  and  C_26
REMARK    7  A    between atoms: C_26  and  C_27
REMARK    8  A    between atoms: C_27  and  O_28
REMARK    9  A    between atoms: C_27  and  C_30
REMARK   10  A    between atoms: C_30  and  C_32
REMARK   11  A    between atoms: C_32  and  O_33
REMARK                            x       y       z     vdW  Elec       q    Type
REMARK                         _______ _______ _______ _____ _____    ______ ____
ROOT
ATOM      1  N   UNL     1      31.963 -12.867 -20.673  0.00  0.00    -0.410 NA
ATOM      2  C   UNL     1      31.818 -11.643 -21.231  0.00  0.00    +0.108 C 
ATOM      3  C   UNL     1      32.410 -11.270 -22.413  0.00  0.00    +0.025 C 
ATOM      4  C   UNL     1      33.198 -12.191 -23.073  0.00  0.00    +0.004 C 
ATOM      5  C   UNL     1      32.730 -13.771 -21.311  0.00  0.00    +0.113 C 
ATOM      6  C   UNL     1      33.375 -13.471 -22.530  0.00  0.00    +0.026 C 
ATOM      7  C   UNL     1      32.907 -15.042 -20.772  0.00  0.00    +0.085 C 
ATOM      8  C   UNL     1      34.169 -14.438 -23.169  0.00  0.00    +0.002 C 
ATOM      9  C   UNL     1      33.695 -16.004 -21.407  0.00  0.00    -0.019 C 
ATOM     10  C   UNL     1      34.328 -15.703 -22.607  0.00  0.00    -0.004 C 
ENDROOT
BRANCH   4  12
ATOM     11  F   UNL     1      35.635 -10.755 -27.878  0.00  0.00    -0.204 F 
ATOM     12  C   UNL     1      33.835 -11.816 -24.330  0.00  0.00    +0.000 C 
ATOM     13  C   UNL     1      34.799 -10.815 -24.338  0.00  0.00    +0.002 C 
ATOM     14  C   UNL     1      33.471 -12.462 -25.503  0.00  0.00    +0.002 C 
ATOM     15  C   UNL     1      35.408 -10.456 -25.540  0.00  0.00    +0.030 C 
ATOM     16  C   UNL     1      34.081 -12.103 -26.706  0.00  0.00    +0.030 C 
ATOM     17  C   UNL     1      35.050 -11.099 -26.724  0.00  0.00    +0.140 C 
ENDBRANCH   4  12
BRANCH   2  18
ATOM     18  C   UNL     1      30.953 -10.688 -20.468  0.00  0.00    +0.052 C 
ATOM     19  C   UNL     1      31.595  -9.714 -19.538  0.00  0.00    +0.007 C 
ATOM     20  C   UNL     1      30.806 -10.867 -18.992  0.00  0.00    +0.007 C 
ENDBRANCH   2  18
BRANCH   3  21
ATOM     21  C   UNL     1      32.199  -9.913 -22.946  0.00  0.00    +0.000 C 
ATOM     22  C   UNL     1      32.675  -8.787 -22.391  0.00  0.00    +0.003 C 
BRANCH  22  23
ATOM     23  C   UNL     1      32.471  -7.383 -22.909  0.00  0.00    +0.135 C 
BRANCH  23  24
ATOM     24  O   UNL     1      32.501  -6.438 -21.844  0.00  0.00    -0.380 OA
ATOM     25  H   UNL     1      33.134  -5.733 -22.054  0.00  0.00    +0.211 HD
ENDBRANCH  23  24
BRANCH  23  26
ATOM     26  C   UNL     1      33.552  -7.035 -23.948  0.00  0.00    +0.064 C 
BRANCH  26  27
ATOM     27  C   UNL     1      33.211  -5.803 -24.800  0.00  0.00    +0.124 C 
BRANCH  27  28
ATOM     28  O   UNL     1      33.979  -5.838 -26.001  0.00  0.00    -0.384 OA
ATOM     29  H   UNL     1      34.918  -5.726 -25.787  0.00  0.00    +0.210 HD
ENDBRANCH  27  28
BRANCH  27  30
ATOM     30  C   UNL     1      31.722  -5.698 -25.139  0.00  0.00    +0.139 C 
BRANCH  30  32
ATOM     31  O   UNL     1      30.623  -4.425 -23.401  0.00  0.00    -0.250 OA
ATOM     32  C   UNL     1      31.063  -4.475 -24.543  0.00  0.00    +0.316 C 
BRANCH  32  33
ATOM     33  O   UNL     1      30.985  -3.440 -25.415  0.00  0.00    -0.480 OA
ATOM     34  H   UNL     1      31.470  -3.466 -26.217  0.00  0.00    +0.295 HD
ENDBRANCH  32  33
ENDBRANCH  30  32
ENDBRANCH  27  30
ENDBRANCH  26  27
ENDBRANCH  23  26
ENDBRANCH  22  23
ENDBRANCH   3  21
TORSDOF 11
ENDMDL
MODEL 6
REMARK VINA RESULT:      -8.7     13.570     16.677
REMARK  Name = 5282452
REMARK  11 active torsions:
REMARK  status: ('A' for Active; 'I' for Inactive)
REMARK    1  A    between atoms: C_2  and  C_18
REMARK    2  A    between atoms: C_3  and  C_21
REMARK    3  A    between atoms: C_4  and  C_12
REMARK    4  A    between atoms: C_22  and  C_23
REMARK    5  A    between atoms: C_23  and  O_24
REMARK    6  A    between atoms: C_23  and  C_26
REMARK    7  A    between atoms: C_26  and  C_27
REMARK    8  A    between atoms: C_27  and  O_28
REMARK    9  A    between atoms: C_27  and  C_30
REMARK   10  A    between atoms: C_30  and  C_32
REMARK   11  A    between atoms: C_32  and  O_33
REMARK                            x       y       z     vdW  Elec       q    Type
REMARK                         _______ _______ _______ _____ _____    ______ ____
ROOT
ATOM      1  N   UNL     1      32.061 -22.213 -18.193  0.00  0.00    -0.410 NA
ATOM      2  C   UNL     1      32.122 -22.926 -17.045  0.00  0.00    +0.108 C 
ATOM      3  C   UNL     1      33.300 -23.297 -16.441  0.00  0.00    +0.025 C 
ATOM      4  C   UNL     1      34.489 -22.925 -17.035  0.00  0.00    +0.004 C 
ATOM      5  C   UNL     1      33.217 -21.847 -18.778  0.00  0.00    +0.113 C 
ATOM      6  C   UNL     1      34.471 -22.186 -18.226  0.00  0.00    +0.026 C 
ATOM      7  C   UNL     1      33.199 -21.114 -19.961  0.00  0.00    +0.085 C 
ATOM      8  C   UNL     1      35.657 -21.788 -18.863  0.00  0.00    +0.002 C 
ATOM      9  C   UNL     1      34.379 -20.717 -20.594  0.00  0.00    -0.019 C 
ATOM     10  C   UNL     1      35.610 -21.054 -20.046  0.00  0.00    -0.004 C 
ENDROOT
BRANCH   4  12
ATOM     11  F   UNL     1      39.309 -24.393 -14.647  0.00  0.00    -0.204 F 
ATOM     12  C   UNL     1      35.750 -23.309 -16.410  0.00  0.00    +0.000 C 
ATOM     13  C   UNL     1      35.872 -24.564 -15.827  0.00  0.00    +0.002 C 
ATOM     14  C   UNL     1      36.812 -22.415 -16.406  0.00  0.00    +0.002 C 
ATOM     15  C   UNL     1      37.077 -24.931 -15.230  0.00  0.00    +0.030 C 
ATOM     16  C   UNL     1      38.018 -22.783 -15.808  0.00  0.00    +0.030 C 
ATOM     17  C   UNL     1      38.151 -24.040 -15.220  0.00  0.00    +0.140 C 
ENDBRANCH   4  12
BRANCH   2  18
ATOM     18  C   UNL     1      30.801 -23.300 -16.450  0.00  0.00    +0.052 C 
ATOM     19  C   UNL     1      29.602 -22.469 -16.764  0.00  0.00    +0.007 C 
ATOM     20  C   UNL     1      30.209 -22.425 -15.393  0.00  0.00    +0.007 C 
ENDBRANCH   2  18
BRANCH   3  21
ATOM     21  C   UNL     1      33.272 -24.076 -15.191  0.00  0.00    +0.000 C 
ATOM     22  C   UNL     1      33.339 -23.551 -13.957  0.00  0.00    +0.003 C 
BRANCH  22  23
ATOM     23  C   UNL     1      33.319 -24.322 -12.658  0.00  0.00    +0.135 C 
BRANCH  23  24
ATOM     24  O   UNL     1      32.495 -25.479 -12.766  0.00  0.00    -0.380 OA
ATOM     25  H   UNL     1      33.016 -26.214 -13.128  0.00  0.00    +0.211 HD
ENDBRANCH  23  24
BRANCH  23  26
ATOM     26  C   UNL     1      34.747 -24.731 -12.257  0.00  0.00    +0.064 C 
BRANCH  26  27
ATOM     27  C   UNL     1      35.442 -23.715 -11.338  0.00  0.00    +0.124 C 
BRANCH  27  28
ATOM     28  O   UNL     1      35.759 -24.346 -10.099  0.00  0.00    -0.384 OA
ATOM     29  H   UNL     1      35.032 -24.210  -9.472  0.00  0.00    +0.210 HD
ENDBRANCH  27  28
BRANCH  27  30
ATOM     30  C   UNL     1      36.707 -23.112 -11.953  0.00  0.00    +0.139 C 
BRANCH  30  32
ATOM     31  O   UNL     1      37.933 -25.172 -11.629  0.00  0.00    -0.250 OA
ATOM     32  C   UNL     1      37.942 -23.950 -11.710  0.00  0.00    +0.316 C 
BRANCH  32  33
ATOM     33  O   UNL     1      39.064 -23.203 -11.565  0.00  0.00    -0.480 OA
ATOM     34  H   UNL     1      39.008 -22.268 -11.561  0.00  0.00    +0.295 HD
ENDBRANCH  32  33
ENDBRANCH  30  32
ENDBRANCH  27  30
ENDBRANCH  26  27
ENDBRANCH  23  26
ENDBRANCH  22  23
ENDBRANCH   3  21
TORSDOF 11
ENDMDL
MODEL 7
REMARK VINA RESULT:      -8.4     13.699     17.340
REMARK  Name = 5282452
REMARK  11 active torsions:
REMARK  status: ('A' for Active; 'I' for Inactive)
REMARK    1  A    between atoms: C_2  and  C_18
REMARK    2  A    between atoms: C_3  and  C_21
REMARK    3  A    between atoms: C_4  and  C_12
REMARK    4  A    between atoms: C_22  and  C_23
REMARK    5  A    between atoms: C_23  and  O_24
REMARK    6  A    between atoms: C_23  and  C_26
REMARK    7  A    between atoms: C_26  and  C_27
REMARK    8  A    between atoms: C_27  and  O_28
REMARK    9  A    between atoms: C_27  and  C_30
REMARK   10  A    between atoms: C_30  and  C_32
REMARK   11  A    between atoms: C_32  and  O_33
REMARK                            x       y       z     vdW  Elec       q    Type
REMARK                         _______ _______ _______ _____ _____    ______ ____
ROOT
ATOM      1  N   UNL     1      36.299 -22.314 -17.394  0.00  0.00    -0.410 NA
ATOM      2  C   UNL     1      36.092 -22.891 -16.189  0.00  0.00    +0.108 C 
ATOM      3  C   UNL     1      34.849 -23.229 -15.710  0.00  0.00    +0.025 C 
ATOM      4  C   UNL     1      33.747 -22.967 -16.499  0.00  0.00    +0.004 C 
ATOM      5  C   UNL     1      35.230 -22.055 -18.170  0.00  0.00    +0.113 C 
ATOM      6  C   UNL     1      33.917 -22.370 -17.756  0.00  0.00    +0.026 C 
ATOM      7  C   UNL     1      35.398 -21.463 -19.418  0.00  0.00    +0.085 C 
ATOM      8  C   UNL     1      32.824 -22.086 -18.591  0.00  0.00    +0.002 C 
ATOM      9  C   UNL     1      34.311 -21.181 -20.248  0.00  0.00    -0.019 C 
ATOM     10  C   UNL     1      33.022 -21.493 -19.835  0.00  0.00    -0.004 C 
ENDROOT
BRANCH   4  12
ATOM     11  F   UNL     1      28.668 -24.308 -14.630  0.00  0.00    -0.204 F 
ATOM     12  C   UNL     1      32.419 -23.318 -16.010  0.00  0.00    +0.000 C 
ATOM     13  C   UNL     1      31.808 -22.520 -15.052  0.00  0.00    +0.002 C 
ATOM     14  C   UNL     1      31.781 -24.446 -16.509  0.00  0.00    +0.002 C 
ATOM     15  C   UNL     1      30.538 -22.855 -14.584  0.00  0.00    +0.030 C 
ATOM     16  C   UNL     1      30.510 -24.782 -16.041  0.00  0.00    +0.030 C 
ATOM     17  C   UNL     1      29.888 -23.986 -15.078  0.00  0.00    +0.140 C 
ENDBRANCH   4  12
BRANCH   2  18
ATOM     18  C   UNL     1      37.324 -23.148 -15.379  0.00  0.00    +0.052 C 
ATOM     19  C   UNL     1      38.632 -23.309 -16.080  0.00  0.00    +0.007 C 
ATOM     20  C   UNL     1      37.966 -24.495 -15.447  0.00  0.00    +0.007 C 
ENDBRANCH   2  18
BRANCH   3  21
ATOM     21  C   UNL     1      34.716 -23.852 -14.382  0.00  0.00    +0.000 C 
ATOM     22  C   UNL     1      35.017 -23.253 -13.219  0.00  0.00    +0.003 C 
BRANCH  22  23
ATOM     23  C   UNL     1      34.897 -23.866 -11.843  0.00  0.00    +0.135 C 
BRANCH  23  24
ATOM     24  O   UNL     1      34.586 -25.253 -11.930  0.00  0.00    -0.380 OA
ATOM     25  H   UNL     1      33.992 -25.497 -11.203  0.00  0.00    +0.211 HD
ENDBRANCH  23  24
BRANCH  23  26
ATOM     26  C   UNL     1      36.204 -23.670 -11.055  0.00  0.00    +0.064 C 
BRANCH  26  27
ATOM     27  C   UNL     1      37.432 -23.437 -11.949  0.00  0.00    +0.124 C 
BRANCH  27  28
ATOM     28  O   UNL     1      37.961 -22.140 -11.685  0.00  0.00    -0.384 OA
ATOM     29  H   UNL     1      37.237 -21.496 -11.649  0.00  0.00    +0.210 HD
ENDBRANCH  27  28
BRANCH  27  30
ATOM     30  C   UNL     1      38.524 -24.492 -11.761  0.00  0.00    +0.139 C 
BRANCH  30  32
ATOM     31  O   UNL     1      37.183 -26.476 -12.098  0.00  0.00    -0.250 OA
ATOM     32  C   UNL     1      38.178 -25.823 -12.389  0.00  0.00    +0.316 C 
BRANCH  32  33
ATOM     33  O   UNL     1      39.099 -26.234 -13.294  0.00  0.00    -0.480 OA
ATOM     34  H   UNL     1      39.005 -26.002 -14.197  0.00  0.00    +0.295 HD
ENDBRANCH  32  33
ENDBRANCH  30  32
ENDBRANCH  27  30
ENDBRANCH  26  27
ENDBRANCH  23  26
ENDBRANCH  22  23
ENDBRANCH   3  21
TORSDOF 11
ENDMDL
MODEL 8
REMARK VINA RESULT:      -8.4     10.911     15.329
REMARK  Name = 5282452
REMARK  11 active torsions:
REMARK  status: ('A' for Active; 'I' for Inactive)
REMARK    1  A    between atoms: C_2  and  C_18
REMARK    2  A    between atoms: C_3  and  C_21
REMARK    3  A    between atoms: C_4  and  C_12
REMARK    4  A    between atoms: C_22  and  C_23
REMARK    5  A    between atoms: C_23  and  O_24
REMARK    6  A    between atoms: C_23  and  C_26
REMARK    7  A    between atoms: C_26  and  C_27
REMARK    8  A    between atoms: C_27  and  O_28
REMARK    9  A    between atoms: C_27  and  C_30
REMARK   10  A    between atoms: C_30  and  C_32
REMARK   11  A    between atoms: C_32  and  O_33
REMARK                            x       y       z     vdW  Elec       q    Type
REMARK                         _______ _______ _______ _____ _____    ______ ____
ROOT
ATOM      1  N   UNL     1      36.811 -23.082 -14.508  0.00  0.00    -0.410 NA
ATOM      2  C   UNL     1      36.033 -22.902 -15.600  0.00  0.00    +0.108 C 
ATOM      3  C   UNL     1      34.680 -23.144 -15.619  0.00  0.00    +0.025 C 
ATOM      4  C   UNL     1      34.076 -23.597 -14.464  0.00  0.00    +0.004 C 
ATOM      5  C   UNL     1      36.229 -23.524 -13.378  0.00  0.00    +0.113 C 
ATOM      6  C   UNL     1      34.846 -23.797 -13.309  0.00  0.00    +0.026 C 
ATOM      7  C   UNL     1      36.992 -23.723 -12.231  0.00  0.00    +0.085 C 
ATOM      8  C   UNL     1      34.272 -24.257 -12.113  0.00  0.00    +0.002 C 
ATOM      9  C   UNL     1      36.422 -24.180 -11.041  0.00  0.00    -0.019 C 
ATOM     10  C   UNL     1      35.060 -24.447 -10.981  0.00  0.00    -0.004 C 
ENDROOT
BRANCH   4  12
ATOM     11  F   UNL     1      28.592 -24.599 -14.462  0.00  0.00    -0.204 F 
ATOM     12  C   UNL     1      32.642 -23.859 -14.463  0.00  0.00    +0.000 C 
ATOM     13  C   UNL     1      31.750 -22.795 -14.499  0.00  0.00    +0.002 C 
ATOM     14  C   UNL     1      32.185 -25.170 -14.426  0.00  0.00    +0.002 C 
ATOM     15  C   UNL     1      30.379 -23.045 -14.498  0.00  0.00    +0.030 C 
ATOM     16  C   UNL     1      30.812 -25.420 -14.426  0.00  0.00    +0.030 C 
ATOM     17  C   UNL     1      29.909 -24.358 -14.462  0.00  0.00    +0.140 C 
ENDBRANCH   4  12
BRANCH   2  18
ATOM     18  C   UNL     1      36.745 -22.411 -16.822  0.00  0.00    +0.052 C 
ATOM     19  C   UNL     1      38.236 -22.348 -16.816  0.00  0.00    +0.007 C 
ATOM     20  C   UNL     1      37.429 -21.084 -16.777  0.00  0.00    +0.007 C 
ENDBRANCH   2  18
BRANCH   3  21
ATOM     21  C   UNL     1      33.911 -22.922 -16.856  0.00  0.00    +0.000 C 
ATOM     22  C   UNL     1      34.428 -22.483 -18.015  0.00  0.00    +0.003 C 
BRANCH  22  23
ATOM     23  C   UNL     1      33.666 -22.241 -19.296  0.00  0.00    +0.135 C 
BRANCH  23  24
ATOM     24  O   UNL     1      32.617 -21.298 -19.094  0.00  0.00    -0.380 OA
ATOM     25  H   UNL     1      32.872 -20.676 -18.395  0.00  0.00    +0.211 HD
ENDBRANCH  23  24
BRANCH  23  26
ATOM     26  C   UNL     1      34.617 -21.739 -20.397  0.00  0.00    +0.064 C 
BRANCH  26  27
ATOM     27  C   UNL     1      34.945 -20.242 -20.289  0.00  0.00    +0.124 C 
BRANCH  27  28
ATOM     28  O   UNL     1      36.289 -20.090 -19.838  0.00  0.00    -0.384 OA
ATOM     29  H   UNL     1      36.545 -19.156 -19.894  0.00  0.00    +0.210 HD
ENDBRANCH  27  28
BRANCH  27  30
ATOM     30  C   UNL     1      34.750 -19.486 -21.605  0.00  0.00    +0.139 C 
BRANCH  30  32
ATOM     31  O   UNL     1      35.362 -17.322 -20.715  0.00  0.00    -0.250 OA
ATOM     32  C   UNL     1      35.438 -18.139 -21.624  0.00  0.00    +0.316 C 
BRANCH  32  33
ATOM     33  O   UNL     1      36.132 -17.919 -22.767  0.00  0.00    -0.480 OA
ATOM     34  H   UNL     1      36.743 -18.559 -23.076  0.00  0.00    +0.295 HD
ENDBRANCH  32  33
ENDBRANCH  30  32
ENDBRANCH  27  30
ENDBRANCH  26  27
ENDBRANCH  23  26
ENDBRANCH  22  23
ENDBRANCH   3  21
TORSDOF 11
ENDMDL
MODEL 9
REMARK VINA RESULT:      -8.2     13.942     16.495
REMARK  Name = 5282452
REMARK  11 active torsions:
REMARK  status: ('A' for Active; 'I' for Inactive)
REMARK    1  A    between atoms: C_2  and  C_18
REMARK    2  A    between atoms: C_3  and  C_21
REMARK    3  A    between atoms: C_4  and  C_12
REMARK    4  A    between atoms: C_22  and  C_23
REMARK    5  A    between atoms: C_23  and  O_24
REMARK    6  A    between atoms: C_23  and  C_26
REMARK    7  A    between atoms: C_26  and  C_27
REMARK    8  A    between atoms: C_27  and  O_28
REMARK    9  A    between atoms: C_27  and  C_30
REMARK   10  A    between atoms: C_30  and  C_32
REMARK   11  A    between atoms: C_32  and  O_33
REMARK                            x       y       z     vdW  Elec       q    Type
REMARK                         _______ _______ _______ _____ _____    ______ ____
ROOT
ATOM      1  N   UNL     1      37.340 -25.128 -12.432  0.00  0.00    -0.410 NA
ATOM      2  C   UNL     1      36.132 -24.545 -12.604  0.00  0.00    +0.108 C 
ATOM      3  C   UNL     1      35.758 -23.894 -13.755  0.00  0.00    +0.025 C 
ATOM      4  C   UNL     1      36.661 -23.829 -14.797  0.00  0.00    +0.004 C 
ATOM      5  C   UNL     1      38.226 -25.069 -13.443  0.00  0.00    +0.113 C 
ATOM      6  C   UNL     1      37.924 -24.421 -14.660  0.00  0.00    +0.026 C 
ATOM      7  C   UNL     1      39.480 -25.657 -13.308  0.00  0.00    +0.085 C 
ATOM      8  C   UNL     1      38.873 -24.378 -15.695  0.00  0.00    +0.002 C 
ATOM      9  C   UNL     1      40.424 -25.615 -14.338  0.00  0.00    -0.019 C 
ATOM     10  C   UNL     1      40.121 -24.975 -15.532  0.00  0.00    -0.004 C 
ENDROOT
BRANCH   4  12
ATOM     11  F   UNL     1      35.220 -21.209 -19.502  0.00  0.00    -0.204 F 
ATOM     12  C   UNL     1      36.284 -23.144 -16.027  0.00  0.00    +0.000 C 
ATOM     13  C   UNL     1      37.139 -22.195 -16.574  0.00  0.00    +0.002 C 
ATOM     14  C   UNL     1      35.075 -23.448 -16.638  0.00  0.00    +0.002 C 
ATOM     15  C   UNL     1      36.778 -21.539 -17.750  0.00  0.00    +0.030 C 
ATOM     16  C   UNL     1      34.714 -22.791 -17.816  0.00  0.00    +0.030 C 
ATOM     17  C   UNL     1      35.566 -21.837 -18.372  0.00  0.00    +0.140 C 
ENDBRANCH   4  12
BRANCH   2  18
ATOM     18  C   UNL     1      35.197 -24.647 -11.439  0.00  0.00    +0.052 C 
ATOM     19  C   UNL     1      35.262 -23.614 -10.364  0.00  0.00    +0.007 C 
ATOM     20  C   UNL     1      35.749 -25.008 -10.099  0.00  0.00    +0.007 C 
ENDBRANCH   2  18
BRANCH   3  21
ATOM     21  C   UNL     1      34.421 -23.284 -13.854  0.00  0.00    +0.000 C 
ATOM     22  C   UNL     1      33.267 -23.968 -13.923  0.00  0.00    +0.003 C 
BRANCH  22  23
ATOM     23  C   UNL     1      31.883 -23.372 -14.030  0.00  0.00    +0.135 C 
BRANCH  23  24
ATOM     24  O   UNL     1      31.916 -21.965 -13.812  0.00  0.00    -0.380 OA
ATOM     25  H   UNL     1      32.372 -21.778 -12.977  0.00  0.00    +0.211 HD
ENDBRANCH  23  24
BRANCH  23  26
ATOM     26  C   UNL     1      31.277 -23.674 -15.413  0.00  0.00    +0.064 C 
BRANCH  26  27
ATOM     27  C   UNL     1      30.188 -22.677 -15.836  0.00  0.00    +0.124 C 
BRANCH  27  28
ATOM     28  O   UNL     1      30.421 -22.275 -17.184  0.00  0.00    -0.384 OA
ATOM     29  H   UNL     1      29.592 -21.961 -17.576  0.00  0.00    +0.210 HD
ENDBRANCH  27  28
BRANCH  27  30
ATOM     30  C   UNL     1      28.771 -23.239 -15.700  0.00  0.00    +0.139 C 
BRANCH  30  32
ATOM     31  O   UNL     1      27.572 -23.725 -17.742  0.00  0.00    -0.250 OA
ATOM     32  C   UNL     1      27.886 -22.913 -16.882  0.00  0.00    +0.316 C 
BRANCH  32  33
ATOM     33  O   UNL     1      27.494 -21.615 -16.904  0.00  0.00    -0.480 OA
ATOM     34  H   UNL     1      26.746 -21.360 -17.408  0.00  0.00    +0.295 HD
ENDBRANCH  32  33
ENDBRANCH  30  32
ENDBRANCH  27  30
ENDBRANCH  26  27
ENDBRANCH  23  26
ENDBRANCH  22  23
ENDBRANCH   3  21
TORSDOF 11
ENDMDL
