MODEL 1
REMARK VINA RESULT:      -7.0      0.000      0.000
REMARK  Name = 5288022
REMARK  11 active torsions:
REMARK  status: ('A' for Active; 'I' for Inactive)
REMARK    1  A    between atoms: C_2  and  C_4
REMARK    2  A    between atoms: C_2  and  S_12
REMARK    3  A    between atoms: C_3  and  C_5
REMARK    4  A    between atoms: C_5  and  C_6
REMARK    5  A    between atoms: C_6  and  C_7
REMARK    6  A    between atoms: C_7  and  C_8
REMARK    7  A    between atoms: C_8  and  C_9
REMARK    8  A    between atoms: C_9  and  C_10
REMARK    9  A    between atoms: S_12  and  C_13
REMARK   10  A    between atoms: C_13  and  C_14
REMARK   11  A    between atoms: C_14  and  N_16
REMARK                            x       y       z     vdW  Elec       q    Type
REMARK                         _______ _______ _______ _____ _____    ______ ____
ROOT
ATOM      1  O   UNL     1      32.050 -15.767 -20.270  0.00  0.00    -0.280 OA
ATOM      2  C   UNL     1      32.854 -14.974 -20.741  0.00  0.00    +0.221 C 
ENDROOT
BRANCH   2   4
ATOM      3  C   UNL     1      34.939 -16.231 -20.958  0.00  0.00    -0.022 C 
ATOM      4  C   UNL     1      34.325 -15.098 -20.593  0.00  0.00    +0.044 C 
BRANCH   3   5
ATOM      5  C   UNL     1      34.210 -17.418 -21.522  0.00  0.00    +0.026 C 
BRANCH   5   6
ATOM      6  C   UNL     1      35.119 -18.626 -21.776  0.00  0.00    +0.005 C 
BRANCH   6   7
ATOM      7  C   UNL     1      34.758 -19.851 -20.929  0.00  0.00    +0.000 C 
BRANCH   7   8
ATOM      8  C   UNL     1      33.257 -19.890 -20.629  0.00  0.00    +0.000 C 
BRANCH   8   9
ATOM      9  C   UNL     1      32.869 -20.953 -19.596  0.00  0.00    +0.000 C 
BRANCH   9  10
ATOM     10  C   UNL     1      34.042 -21.826 -19.151  0.00  0.00    +0.000 C 
ATOM     11  C   UNL     1      33.570 -22.997 -18.303  0.00  0.00    +0.000 C 
ENDBRANCH   9  10
ENDBRANCH   8   9
ENDBRANCH   7   8
ENDBRANCH   6   7
ENDBRANCH   5   6
ENDBRANCH   3   5
ENDBRANCH   2   4
BRANCH   2  12
ATOM     12  S   UNL     1      32.383 -13.555 -21.670  0.00  0.00    -0.071 S 
BRANCH  12  13
ATOM     13  C   UNL     1      33.747 -13.465 -22.851  0.00  0.00    +0.086 C 
BRANCH  13  14
ATOM     14  C   UNL     1      33.401 -14.117 -24.182  0.00  0.00    +0.101 C 
BRANCH  14  16
ATOM     15  O   UNL     1      33.554 -15.760 -26.570  0.00  0.00    -0.275 OA
ATOM     16  N   UNL     1      33.865 -15.475 -24.281  0.00  0.00    -0.303 N 
ATOM     17  C   UNL     1      33.902 -16.185 -25.472  0.00  0.00    +0.223 C 
ATOM     18  C   UNL     1      34.454 -17.574 -25.297  0.00  0.00    +0.095 C 
ATOM     19  H   UNL     1      34.172 -15.923 -23.460  0.00  0.00    +0.149 HD
ENDBRANCH  14  16
ENDBRANCH  13  14
ENDBRANCH  12  13
ENDBRANCH   2  12
TORSDOF 11
ENDMDL
MODEL 2
REMARK VINA RESULT:      -7.0      7.555     11.008
REMARK  Name = 5288022
REMARK  11 active torsions:
REMARK  status: ('A' for Active; 'I' for Inactive)
REMARK    1  A    between atoms: C_2  and  C_4
REMARK    2  A    between atoms: C_2  and  S_12
REMARK    3  A    between atoms: C_3  and  C_5
REMARK    4  A    between atoms: C_5  and  C_6
REMARK    5  A    between atoms: C_6  and  C_7
REMARK    6  A    between atoms: C_7  and  C_8
REMARK    7  A    between atoms: C_8  and  C_9
REMARK    8  A    between atoms: C_9  and  C_10
REMARK    9  A    between atoms: S_12  and  C_13
REMARK   10  A    between atoms: C_13  and  C_14
REMARK   11  A    between atoms: C_14  and  N_16
REMARK                            x       y       z     vdW  Elec       q    Type
REMARK                         _______ _______ _______ _____ _____    ______ ____
ROOT
ATOM      1  O   UNL     1      35.713 -24.824 -15.888  0.00  0.00    -0.280 OA
ATOM      2  C   UNL     1      36.141 -23.950 -15.145  0.00  0.00    +0.221 C 
ENDROOT
BRANCH   2   4
ATOM      3  C   UNL     1      37.096 -22.178 -16.533  0.00  0.00    -0.022 C 
ATOM      4  C   UNL     1      37.243 -23.023 -15.504  0.00  0.00    +0.044 C 
BRANCH   3   5
ATOM      5  C   UNL     1      35.850 -22.109 -17.370  0.00  0.00    +0.026 C 
BRANCH   5   6
ATOM      6  C   UNL     1      36.112 -21.672 -18.816  0.00  0.00    +0.005 C 
BRANCH   6   7
ATOM      7  C   UNL     1      34.982 -22.044 -19.781  0.00  0.00    +0.000 C 
BRANCH   7   8
ATOM      8  C   UNL     1      33.686 -21.313 -19.419  0.00  0.00    +0.000 C 
BRANCH   8   9
ATOM      9  C   UNL     1      33.114 -20.480 -20.570  0.00  0.00    +0.000 C 
BRANCH   9  10
ATOM     10  C   UNL     1      33.969 -19.264 -20.925  0.00  0.00    +0.000 C 
ATOM     11  C   UNL     1      34.505 -19.358 -22.345  0.00  0.00    +0.000 C 
ENDBRANCH   9  10
ENDBRANCH   8   9
ENDBRANCH   7   8
ENDBRANCH   6   7
ENDBRANCH   5   6
ENDBRANCH   3   5
ENDBRANCH   2   4
BRANCH   2  12
ATOM     12  S   UNL     1      35.511 -23.661 -13.528  0.00  0.00    -0.071 S 
BRANCH  12  13
ATOM     13  C   UNL     1      37.047 -23.579 -12.583  0.00  0.00    +0.086 C 
BRANCH  13  14
ATOM     14  C   UNL     1      37.681 -24.950 -12.392  0.00  0.00    +0.101 C 
BRANCH  14  16
ATOM     15  O   UNL     1      38.270 -26.797 -14.552  0.00  0.00    -0.275 OA
ATOM     16  N   UNL     1      38.924 -25.099 -13.099  0.00  0.00    -0.303 N 
ATOM     17  C   UNL     1      39.114 -26.015 -14.124  0.00  0.00    +0.223 C 
ATOM     18  C   UNL     1      40.500 -25.944 -14.709  0.00  0.00    +0.095 C 
ATOM     19  H   UNL     1      39.679 -24.521 -12.843  0.00  0.00    +0.149 HD
ENDBRANCH  14  16
ENDBRANCH  13  14
ENDBRANCH  12  13
ENDBRANCH   2  12
TORSDOF 11
ENDMDL
MODEL 3
REMARK VINA RESULT:      -6.9      2.326      2.991
REMARK  Name = 5288022
REMARK  11 active torsions:
REMARK  status: ('A' for Active; 'I' for Inactive)
REMARK    1  A    between atoms: C_2  and  C_4
REMARK    2  A    between atoms: C_2  and  S_12
REMARK    3  A    between atoms: C_3  and  C_5
REMARK    4  A    between atoms: C_5  and  C_6
REMARK    5  A    between atoms: C_6  and  C_7
REMARK    6  A    between atoms: C_7  and  C_8
REMARK    7  A    between atoms: C_8  and  C_9
REMARK    8  A    between atoms: C_9  and  C_10
REMARK    9  A    between atoms: S_12  and  C_13
REMARK   10  A    between atoms: C_13  and  C_14
REMARK   11  A    between atoms: C_14  and  N_16
REMARK                            x       y       z     vdW  Elec       q    Type
REMARK                         _______ _______ _______ _____ _____    ______ ____
ROOT
ATOM      1  O   UNL     1      34.985 -16.051 -20.324  0.00  0.00    -0.280 OA
ATOM      2  C   UNL     1      34.448 -15.801 -21.395  0.00  0.00    +0.221 C 
ENDROOT
BRANCH   2   4
ATOM      3  C   UNL     1      35.171 -17.254 -23.223  0.00  0.00    -0.022 C 
ATOM      4  C   UNL     1      35.091 -16.017 -22.715  0.00  0.00    +0.044 C 
BRANCH   3   5
ATOM      5  C   UNL     1      34.638 -18.470 -22.520  0.00  0.00    +0.026 C 
BRANCH   5   6
ATOM      6  C   UNL     1      35.713 -19.251 -21.756  0.00  0.00    +0.005 C 
BRANCH   6   7
ATOM      7  C   UNL     1      35.151 -20.106 -20.614  0.00  0.00    +0.000 C 
BRANCH   7   8
ATOM      8  C   UNL     1      33.627 -19.991 -20.539  0.00  0.00    +0.000 C 
BRANCH   8   9
ATOM      9  C   UNL     1      32.971 -21.105 -19.717  0.00  0.00    +0.000 C 
BRANCH   9  10
ATOM     10  C   UNL     1      33.966 -22.141 -19.193  0.00  0.00    +0.000 C 
ATOM     11  C   UNL     1      33.436 -22.839 -17.950  0.00  0.00    +0.000 C 
ENDBRANCH   9  10
ENDBRANCH   8   9
ENDBRANCH   7   8
ENDBRANCH   6   7
ENDBRANCH   5   6
ENDBRANCH   3   5
ENDBRANCH   2   4
BRANCH   2  12
ATOM     12  S   UNL     1      32.822 -15.141 -21.532  0.00  0.00    -0.071 S 
BRANCH  12  13
ATOM     13  C   UNL     1      32.923 -14.345 -23.150  0.00  0.00    +0.086 C 
BRANCH  13  14
ATOM     14  C   UNL     1      33.075 -12.834 -23.041  0.00  0.00    +0.101 C 
BRANCH  14  16
ATOM     15  O   UNL     1      33.170 -10.107 -24.032  0.00  0.00    -0.275 OA
ATOM     16  N   UNL     1      33.984 -12.288 -24.012  0.00  0.00    -0.303 N 
ATOM     17  C   UNL     1      33.955 -10.965 -24.428  0.00  0.00    +0.223 C 
ATOM     18  C   UNL     1      35.032 -10.652 -25.432  0.00  0.00    +0.095 C 
ATOM     19  H   UNL     1      34.663 -12.885 -24.402  0.00  0.00    +0.149 HD
ENDBRANCH  14  16
ENDBRANCH  13  14
ENDBRANCH  12  13
ENDBRANCH   2  12
TORSDOF 11
ENDMDL
MODEL 4
REMARK VINA RESULT:      -6.9      5.896      9.614
REMARK  Name = 5288022
REMARK  11 active torsions:
REMARK  status: ('A' for Active; 'I' for Inactive)
REMARK    1  A    between atoms: C_2  and  C_4
REMARK    2  A    between atoms: C_2  and  S_12
REMARK    3  A    between atoms: C_3  and  C_5
REMARK    4  A    between atoms: C_5  and  C_6
REMARK    5  A    between atoms: C_6  and  C_7
REMARK    6  A    between atoms: C_7  and  C_8
REMARK    7  A    between atoms: C_8  and  C_9
REMARK    8  A    between atoms: C_9  and  C_10
REMARK    9  A    between atoms: S_12  and  C_13
REMARK   10  A    between atoms: C_13  and  C_14
REMARK   11  A    between atoms: C_14  and  N_16
REMARK                            x       y       z     vdW  Elec       q    Type
REMARK                         _______ _______ _______ _____ _____    ______ ____
ROOT
ATOM      1  O   UNL     1      33.912 -23.952 -19.737  0.00  0.00    -0.280 OA
ATOM      2  C   UNL     1      34.176 -23.161 -18.841  0.00  0.00    +0.221 C 
ENDROOT
BRANCH   2   4
ATOM      3  C   UNL     1      34.865 -20.939 -19.594  0.00  0.00    -0.022 C 
ATOM      4  C   UNL     1      35.182 -22.076 -18.962  0.00  0.00    +0.044 C 
BRANCH   3   5
ATOM      5  C   UNL     1      33.516 -20.685 -20.206  0.00  0.00    +0.026 C 
BRANCH   5   6
ATOM      6  C   UNL     1      33.467 -19.417 -21.065  0.00  0.00    +0.005 C 
BRANCH   6   7
ATOM      7  C   UNL     1      34.587 -19.342 -22.109  0.00  0.00    +0.000 C 
BRANCH   7   8
ATOM      8  C   UNL     1      35.481 -18.123 -21.871  0.00  0.00    +0.000 C 
BRANCH   8   9
ATOM      9  C   UNL     1      35.225 -16.978 -22.855  0.00  0.00    +0.000 C 
BRANCH   9  10
ATOM     10  C   UNL     1      34.538 -15.769 -22.219  0.00  0.00    +0.000 C 
ATOM     11  C   UNL     1      34.596 -15.834 -20.701  0.00  0.00    +0.000 C 
ENDBRANCH   9  10
ENDBRANCH   8   9
ENDBRANCH   7   8
ENDBRANCH   6   7
ENDBRANCH   5   6
ENDBRANCH   3   5
ENDBRANCH   2   4
BRANCH   2  12
ATOM     12  S   UNL     1      33.397 -23.191 -17.263  0.00  0.00    -0.071 S 
BRANCH  12  13
ATOM     13  C   UNL     1      34.843 -23.219 -16.181  0.00  0.00    +0.086 C 
BRANCH  13  14
ATOM     14  C   UNL     1      34.708 -24.246 -15.066  0.00  0.00    +0.101 C 
BRANCH  14  16
ATOM     15  O   UNL     1      36.112 -26.654 -15.878  0.00  0.00    -0.275 OA
ATOM     16  N   UNL     1      35.976 -24.723 -14.584  0.00  0.00    -0.303 N 
ATOM     17  C   UNL     1      36.574 -25.892 -15.033  0.00  0.00    +0.223 C 
ATOM     18  C   UNL     1      37.908 -26.143 -14.382  0.00  0.00    +0.095 C 
ATOM     19  H   UNL     1      36.445 -24.192 -13.900  0.00  0.00    +0.149 HD
ENDBRANCH  14  16
ENDBRANCH  13  14
ENDBRANCH  12  13
ENDBRANCH   2  12
TORSDOF 11
ENDMDL
MODEL 5
REMARK VINA RESULT:      -6.9      2.469      3.470
REMARK  Name = 5288022
REMARK  11 active torsions:
REMARK  status: ('A' for Active; 'I' for Inactive)
REMARK    1  A    between atoms: C_2  and  C_4
REMARK    2  A    between atoms: C_2  and  S_12
REMARK    3  A    between atoms: C_3  and  C_5
REMARK    4  A    between atoms: C_5  and  C_6
REMARK    5  A    between atoms: C_6  and  C_7
REMARK    6  A    between atoms: C_7  and  C_8
REMARK    7  A    between atoms: C_8  and  C_9
REMARK    8  A    between atoms: C_9  and  C_10
REMARK    9  A    between atoms: S_12  and  C_13
REMARK   10  A    between atoms: C_13  and  C_14
REMARK   11  A    between atoms: C_14  and  N_16
REMARK                            x       y       z     vdW  Elec       q    Type
REMARK                         _______ _______ _______ _____ _____    ______ ____
ROOT
ATOM      1  O   UNL     1      34.842 -16.338 -20.676  0.00  0.00    -0.280 OA
ATOM      2  C   UNL     1      35.035 -16.708 -21.826  0.00  0.00    +0.221 C 
ENDROOT
BRANCH   2   4
ATOM      3  C   UNL     1      35.118 -19.146 -21.984  0.00  0.00    -0.022 C 
ATOM      4  C   UNL     1      35.727 -17.970 -22.186  0.00  0.00    +0.044 C 
BRANCH   3   5
ATOM      5  C   UNL     1      33.739 -19.270 -21.398  0.00  0.00    +0.026 C 
BRANCH   5   6
ATOM      6  C   UNL     1      33.617 -20.395 -20.365  0.00  0.00    +0.005 C 
BRANCH   6   7
ATOM      7  C   UNL     1      34.967 -20.976 -19.931  0.00  0.00    +0.000 C 
BRANCH   7   8
ATOM      8  C   UNL     1      34.778 -22.239 -19.087  0.00  0.00    +0.000 C 
BRANCH   8   9
ATOM      9  C   UNL     1      33.361 -22.390 -18.525  0.00  0.00    +0.000 C 
BRANCH   9  10
ATOM     10  C   UNL     1      33.274 -23.357 -17.344  0.00  0.00    +0.000 C 
ATOM     11  C   UNL     1      34.421 -23.145 -16.368  0.00  0.00    +0.000 C 
ENDBRANCH   9  10
ENDBRANCH   8   9
ENDBRANCH   7   8
ENDBRANCH   6   7
ENDBRANCH   5   6
ENDBRANCH   3   5
ENDBRANCH   2   4
BRANCH   2  12
ATOM     12  S   UNL     1      34.518 -15.791 -23.237  0.00  0.00    -0.071 S 
BRANCH  12  13
ATOM     13  C   UNL     1      34.178 -14.186 -22.482  0.00  0.00    +0.086 C 
BRANCH  13  14
ATOM     14  C   UNL     1      33.355 -13.284 -23.392  0.00  0.00    +0.101 C 
BRANCH  14  16
ATOM     15  O   UNL     1      33.153 -10.406 -23.711  0.00  0.00    -0.275 OA
ATOM     16  N   UNL     1      34.164 -12.438 -24.228  0.00  0.00    -0.303 N 
ATOM     17  C   UNL     1      33.994 -11.064 -24.317  0.00  0.00    +0.223 C 
ATOM     18  C   UNL     1      34.990 -10.420 -25.243  0.00  0.00    +0.095 C 
ATOM     19  H   UNL     1      34.876 -12.857 -24.764  0.00  0.00    +0.149 HD
ENDBRANCH  14  16
ENDBRANCH  13  14
ENDBRANCH  12  13
ENDBRANCH   2  12
TORSDOF 11
ENDMDL
MODEL 6
REMARK VINA RESULT:      -6.9      2.007      2.968
REMARK  Name = 5288022
REMARK  11 active torsions:
REMARK  status: ('A' for Active; 'I' for Inactive)
REMARK    1  A    between atoms: C_2  and  C_4
REMARK    2  A    between atoms: C_2  and  S_12
REMARK    3  A    between atoms: C_3  and  C_5
REMARK    4  A    between atoms: C_5  and  C_6
REMARK    5  A    between atoms: C_6  and  C_7
REMARK    6  A    between atoms: C_7  and  C_8
REMARK    7  A    between atoms: C_8  and  C_9
REMARK    8  A    between atoms: C_9  and  C_10
REMARK    9  A    between atoms: S_12  and  C_13
REMARK   10  A    between atoms: C_13  and  C_14
REMARK   11  A    between atoms: C_14  and  N_16
REMARK                            x       y       z     vdW  Elec       q    Type
REMARK                         _______ _______ _______ _____ _____    ______ ____
ROOT
ATOM      1  O   UNL     1      35.196 -16.468 -20.341  0.00  0.00    -0.280 OA
ATOM      2  C   UNL     1      34.706 -17.030 -21.311  0.00  0.00    +0.221 C 
ENDROOT
BRANCH   2   4
ATOM      3  C   UNL     1      34.057 -19.364 -20.981  0.00  0.00    -0.022 C 
ATOM      4  C   UNL     1      33.682 -18.101 -21.219  0.00  0.00    +0.044 C 
BRANCH   3   5
ATOM      5  C   UNL     1      35.491 -19.777 -20.797  0.00  0.00    +0.026 C 
BRANCH   5   6
ATOM      6  C   UNL     1      35.653 -21.056 -19.967  0.00  0.00    +0.005 C 
BRANCH   6   7
ATOM      7  C   UNL     1      34.324 -21.629 -19.463  0.00  0.00    +0.000 C 
BRANCH   7   8
ATOM      8  C   UNL     1      34.537 -22.510 -18.229  0.00  0.00    +0.000 C 
BRANCH   8   9
ATOM      9  C   UNL     1      33.250 -23.166 -17.719  0.00  0.00    +0.000 C 
BRANCH   9  10
ATOM     10  C   UNL     1      33.194 -23.295 -16.197  0.00  0.00    +0.000 C 
ATOM     11  C   UNL     1      31.759 -23.321 -15.695  0.00  0.00    +0.000 C 
ENDBRANCH   9  10
ENDBRANCH   8   9
ENDBRANCH   7   8
ENDBRANCH   6   7
ENDBRANCH   5   6
ENDBRANCH   3   5
ENDBRANCH   2   4
BRANCH   2  12
ATOM     12  S   UNL     1      35.146 -16.653 -22.973  0.00  0.00    -0.071 S 
BRANCH  12  13
ATOM     13  C   UNL     1      34.578 -14.943 -23.086  0.00  0.00    +0.086 C 
BRANCH  13  14
ATOM     14  C   UNL     1      33.176 -14.839 -23.669  0.00  0.00    +0.101 C 
BRANCH  14  16
ATOM     15  O   UNL     1      33.502 -15.627 -26.444  0.00  0.00    -0.275 OA
ATOM     16  N   UNL     1      33.111 -13.994 -24.832  0.00  0.00    -0.303 N 
ATOM     17  C   UNL     1      33.280 -14.462 -26.127  0.00  0.00    +0.223 C 
ATOM     18  C   UNL     1      33.137 -13.372 -27.156  0.00  0.00    +0.095 C 
ATOM     19  H   UNL     1      32.936 -13.034 -24.701  0.00  0.00    +0.149 HD
ENDBRANCH  14  16
ENDBRANCH  13  14
ENDBRANCH  12  13
ENDBRANCH   2  12
TORSDOF 11
ENDMDL
MODEL 7
REMARK VINA RESULT:      -6.8      3.303      4.879
REMARK  Name = 5288022
REMARK  11 active torsions:
REMARK  status: ('A' for Active; 'I' for Inactive)
REMARK    1  A    between atoms: C_2  and  C_4
REMARK    2  A    between atoms: C_2  and  S_12
REMARK    3  A    between atoms: C_3  and  C_5
REMARK    4  A    between atoms: C_5  and  C_6
REMARK    5  A    between atoms: C_6  and  C_7
REMARK    6  A    between atoms: C_7  and  C_8
REMARK    7  A    between atoms: C_8  and  C_9
REMARK    8  A    between atoms: C_9  and  C_10
REMARK    9  A    between atoms: S_12  and  C_13
REMARK   10  A    between atoms: C_13  and  C_14
REMARK   11  A    between atoms: C_14  and  N_16
REMARK                            x       y       z     vdW  Elec       q    Type
REMARK                         _______ _______ _______ _____ _____    ______ ____
ROOT
ATOM      1  O   UNL     1      31.946 -15.609 -21.347  0.00  0.00    -0.280 OA
ATOM      2  C   UNL     1      32.758 -14.714 -21.540  0.00  0.00    +0.221 C 
ENDROOT
BRANCH   2   4
ATOM      3  C   UNL     1      34.924 -15.404 -22.439  0.00  0.00    -0.022 C 
ATOM      4  C   UNL     1      34.227 -14.887 -21.419  0.00  0.00    +0.044 C 
BRANCH   3   5
ATOM      5  C   UNL     1      34.294 -15.832 -23.735  0.00  0.00    +0.026 C 
BRANCH   5   6
ATOM      6  C   UNL     1      34.644 -17.270 -24.135  0.00  0.00    +0.005 C 
BRANCH   6   7
ATOM      7  C   UNL     1      35.374 -18.049 -23.035  0.00  0.00    +0.000 C 
BRANCH   7   8
ATOM      8  C   UNL     1      34.516 -19.208 -22.520  0.00  0.00    +0.000 C 
BRANCH   8   9
ATOM      9  C   UNL     1      33.912 -18.952 -21.136  0.00  0.00    +0.000 C 
BRANCH   9  10
ATOM     10  C   UNL     1      33.082 -20.121 -20.608  0.00  0.00    +0.000 C 
ATOM     11  C   UNL     1      33.937 -21.093 -19.810  0.00  0.00    +0.000 C 
ENDBRANCH   9  10
ENDBRANCH   8   9
ENDBRANCH   7   8
ENDBRANCH   6   7
ENDBRANCH   5   6
ENDBRANCH   3   5
ENDBRANCH   2   4
BRANCH   2  12
ATOM     12  S   UNL     1      32.302 -13.075 -21.991  0.00  0.00    -0.071 S 
BRANCH  12  13
ATOM     13  C   UNL     1      31.842 -12.404 -20.379  0.00  0.00    +0.086 C 
BRANCH  13  14
ATOM     14  C   UNL     1      30.973 -11.160 -20.500  0.00  0.00    +0.101 C 
BRANCH  14  16
ATOM     15  O   UNL     1      32.158  -8.793 -19.307  0.00  0.00    -0.275 OA
ATOM     16  N   UNL     1      31.632 -10.076 -21.177  0.00  0.00    -0.303 N 
ATOM     17  C   UNL     1      32.172  -8.979 -20.520  0.00  0.00    +0.223 C 
ATOM     18  C   UNL     1      32.826  -8.006 -21.465  0.00  0.00    +0.095 C 
ATOM     19  H   UNL     1      31.706 -10.115 -22.159  0.00  0.00    +0.149 HD
ENDBRANCH  14  16
ENDBRANCH  13  14
ENDBRANCH  12  13
ENDBRANCH   2  12
TORSDOF 11
ENDMDL
MODEL 8
REMARK VINA RESULT:      -6.8      3.443      7.859
REMARK  Name = 5288022
REMARK  11 active torsions:
REMARK  status: ('A' for Active; 'I' for Inactive)
REMARK    1  A    between atoms: C_2  and  C_4
REMARK    2  A    between atoms: C_2  and  S_12
REMARK    3  A    between atoms: C_3  and  C_5
REMARK    4  A    between atoms: C_5  and  C_6
REMARK    5  A    between atoms: C_6  and  C_7
REMARK    6  A    between atoms: C_7  and  C_8
REMARK    7  A    between atoms: C_8  and  C_9
REMARK    8  A    between atoms: C_9  and  C_10
REMARK    9  A    between atoms: S_12  and  C_13
REMARK   10  A    between atoms: C_13  and  C_14
REMARK   11  A    between atoms: C_14  and  N_16
REMARK                            x       y       z     vdW  Elec       q    Type
REMARK                         _______ _______ _______ _____ _____    ______ ____
ROOT
ATOM      1  O   UNL     1      35.269 -15.516 -23.184  0.00  0.00    -0.280 OA
ATOM      2  C   UNL     1      34.931 -16.345 -22.348  0.00  0.00    +0.221 C 
ENDROOT
BRANCH   2   4
ATOM      3  C   UNL     1      33.505 -15.245 -20.695  0.00  0.00    -0.022 C 
ATOM      4  C   UNL     1      34.574 -16.012 -20.947  0.00  0.00    +0.044 C 
BRANCH   3   5
ATOM      5  C   UNL     1      32.620 -14.685 -21.774  0.00  0.00    +0.026 C 
BRANCH   5   6
ATOM      6  C   UNL     1      32.216 -13.227 -21.532  0.00  0.00    +0.005 C 
BRANCH   6   7
ATOM      7  C   UNL     1      32.374 -12.336 -22.770  0.00  0.00    +0.000 C 
BRANCH   7   8
ATOM      8  C   UNL     1      33.596 -12.750 -23.594  0.00  0.00    +0.000 C 
BRANCH   8   9
ATOM      9  C   UNL     1      33.782 -11.918 -24.867  0.00  0.00    +0.000 C 
BRANCH   9  10
ATOM     10  C   UNL     1      34.512 -10.596 -24.629  0.00  0.00    +0.000 C 
ATOM     11  C   UNL     1      35.468 -10.278 -25.767  0.00  0.00    +0.000 C 
ENDBRANCH   9  10
ENDBRANCH   8   9
ENDBRANCH   7   8
ENDBRANCH   6   7
ENDBRANCH   5   6
ENDBRANCH   3   5
ENDBRANCH   2   4
BRANCH   2  12
ATOM     12  S   UNL     1      34.820 -18.068 -22.685  0.00  0.00    -0.071 S 
BRANCH  12  13
ATOM     13  C   UNL     1      35.906 -18.728 -21.402  0.00  0.00    +0.086 C 
BRANCH  13  14
ATOM     14  C   UNL     1      35.348 -19.996 -20.771  0.00  0.00    +0.101 C 
BRANCH  14  16
ATOM     15  O   UNL     1      35.096 -22.498 -19.319  0.00  0.00    -0.275 OA
ATOM     16  N   UNL     1      36.057 -20.394 -19.585  0.00  0.00    -0.303 N 
ATOM     17  C   UNL     1      35.870 -21.617 -18.956  0.00  0.00    +0.223 C 
ATOM     18  C   UNL     1      36.757 -21.786 -17.751  0.00  0.00    +0.095 C 
ATOM     19  H   UNL     1      36.710 -19.765 -19.199  0.00  0.00    +0.149 HD
ENDBRANCH  14  16
ENDBRANCH  13  14
ENDBRANCH  12  13
ENDBRANCH   2  12
TORSDOF 11
ENDMDL
MODEL 9
REMARK VINA RESULT:      -6.8      2.594      3.401
REMARK  Name = 5288022
REMARK  11 active torsions:
REMARK  status: ('A' for Active; 'I' for Inactive)
REMARK    1  A    between atoms: C_2  and  C_4
REMARK    2  A    between atoms: C_2  and  S_12
REMARK    3  A    between atoms: C_3  and  C_5
REMARK    4  A    between atoms: C_5  and  C_6
REMARK    5  A    between atoms: C_6  and  C_7
REMARK    6  A    between atoms: C_7  and  C_8
REMARK    7  A    between atoms: C_8  and  C_9
REMARK    8  A    between atoms: C_9  and  C_10
REMARK    9  A    between atoms: S_12  and  C_13
REMARK   10  A    between atoms: C_13  and  C_14
REMARK   11  A    between atoms: C_14  and  N_16
REMARK                            x       y       z     vdW  Elec       q    Type
REMARK                         _______ _______ _______ _____ _____    ______ ____
ROOT
ATOM      1  O   UNL     1      32.280 -15.266 -21.532  0.00  0.00    -0.280 OA
ATOM      2  C   UNL     1      33.479 -15.244 -21.773  0.00  0.00    +0.221 C 
ENDROOT
BRANCH   2   4
ATOM      3  C   UNL     1      35.004 -16.959 -20.930  0.00  0.00    -0.022 C 
ATOM      4  C   UNL     1      34.523 -15.713 -20.828  0.00  0.00    +0.044 C 
BRANCH   3   5
ATOM      5  C   UNL     1      34.539 -17.939 -21.970  0.00  0.00    +0.026 C 
BRANCH   5   6
ATOM      6  C   UNL     1      34.352 -19.360 -21.426  0.00  0.00    +0.005 C 
BRANCH   6   7
ATOM      7  C   UNL     1      33.014 -19.569 -20.710  0.00  0.00    +0.000 C 
BRANCH   7   8
ATOM      8  C   UNL     1      32.949 -20.952 -20.056  0.00  0.00    +0.000 C 
BRANCH   8   9
ATOM      9  C   UNL     1      34.288 -21.413 -19.471  0.00  0.00    +0.000 C 
BRANCH   9  10
ATOM     10  C   UNL     1      34.221 -22.788 -18.807  0.00  0.00    +0.000 C 
ATOM     11  C   UNL     1      33.113 -22.849 -17.767  0.00  0.00    +0.000 C 
ENDBRANCH   9  10
ENDBRANCH   8   9
ENDBRANCH   7   8
ENDBRANCH   6   7
ENDBRANCH   5   6
ENDBRANCH   3   5
ENDBRANCH   2   4
BRANCH   2  12
ATOM     12  S   UNL     1      34.152 -14.646 -23.285  0.00  0.00    -0.071 S 
BRANCH  12  13
ATOM     13  C   UNL     1      33.259 -13.085 -23.451  0.00  0.00    +0.086 C 
BRANCH  13  14
ATOM     14  C   UNL     1      33.866 -12.184 -24.517  0.00  0.00    +0.101 C 
BRANCH  14  16
ATOM     15  O   UNL     1      35.662 -10.185 -25.616  0.00  0.00    -0.275 OA
ATOM     16  N   UNL     1      34.039 -10.826 -24.076  0.00  0.00    -0.303 N 
ATOM     17  C   UNL     1      34.926  -9.938 -24.665  0.00  0.00    +0.223 C 
ATOM     18  C   UNL     1      34.888  -8.575 -24.025  0.00  0.00    +0.095 C 
ATOM     19  H   UNL     1      33.498 -10.511 -23.315  0.00  0.00    +0.149 HD
ENDBRANCH  14  16
ENDBRANCH  13  14
ENDBRANCH  12  13
ENDBRANCH   2  12
TORSDOF 11
ENDMDL
