MODEL 1
REMARK VINA RESULT:      -8.4      0.000      0.000
REMARK  Name = 9882812
REMARK  9 active torsions:
REMARK  status: ('A' for Active; 'I' for Inactive)
REMARK    1  A    between atoms: C_1  and  C_2
REMARK    2  A    between atoms: C_1  and  C_12
REMARK    3  A    between atoms: C_2  and  C_3
REMARK    4  A    between atoms: C_3  and  C_4
REMARK    5  A    between atoms: C_4  and  C_5
REMARK    6  A    between atoms: C_5  and  C_7
REMARK    7  A    between atoms: C_7  and  C_11
REMARK    8  A    between atoms: C_12  and  C_15
REMARK    9  A    between atoms: N_14  and  C_17
REMARK                            x       y       z     vdW  Elec       q    Type
REMARK                         _______ _______ _______ _____ _____    ______ ____
ROOT
ATOM      1  C   UNL     1      34.208 -16.551 -24.957  0.00  0.00    +0.010 C 
ENDROOT
BRANCH   1   2
ATOM      2  C   UNL     1      33.526 -15.189 -24.806  0.00  0.00    +0.001 C 
BRANCH   2   3
ATOM      3  C   UNL     1      34.313 -14.265 -23.877  0.00  0.00    +0.000 C 
BRANCH   3   4
ATOM      4  C   UNL     1      33.515 -13.045 -23.394  0.00  0.00    +0.008 C 
BRANCH   4   5
ATOM      5  C   UNL     1      32.221 -13.394 -22.659  0.00  0.00    +0.073 C 
BRANCH   5   7
ATOM      6  O   UNL     1      32.100 -12.570 -20.388  0.00  0.00    -0.287 OA
ATOM      7  C   UNL     1      32.368 -13.498 -21.149  0.00  0.00    +0.244 C 
BRANCH   7  11
ATOM      8  F   UNL     1      32.348 -15.120 -19.421  0.00  0.00    -0.163 F 
ATOM      9  F   UNL     1      32.638 -15.837 -21.459  0.00  0.00    -0.163 F 
ATOM     10  F   UNL     1      34.241 -14.762 -20.445  0.00  0.00    -0.163 F 
ATOM     11  C   UNL     1      32.896 -14.801 -20.620  0.00  0.00    +0.451 C 
ENDBRANCH   7  11
ENDBRANCH   5   7
ENDBRANCH   4   5
ENDBRANCH   3   4
ENDBRANCH   2   3
ENDBRANCH   1   2
BRANCH   1  12
ATOM     12  C   UNL     1      35.130 -16.882 -23.782  0.00  0.00    +0.085 C 
BRANCH  12  15
ATOM     13  O   UNL     1      34.852 -19.241 -24.032  0.00  0.00    -0.275 OA
ATOM     14  N   UNL     1      34.762 -18.312 -21.874  0.00  0.00    -0.284 N 
ATOM     15  C   UNL     1      34.887 -18.288 -23.258  0.00  0.00    +0.226 C 
ATOM     16  H   UNL     1      34.842 -17.445 -21.415  0.00  0.00    +0.155 HD
BRANCH  14  17
ATOM     17  C   UNL     1      34.532 -19.436 -21.048  0.00  0.00    +0.050 C 
ATOM     18  C   UNL     1      33.234 -19.761 -20.657  0.00  0.00    +0.015 C 
ATOM     19  C   UNL     1      35.606 -20.221 -20.624  0.00  0.00    +0.015 C 
ATOM     20  C   UNL     1      33.007 -20.870 -19.842  0.00  0.00    +0.001 C 
ATOM     21  C   UNL     1      35.379 -21.330 -19.809  0.00  0.00    +0.001 C 
ATOM     22  C   UNL     1      34.079 -21.654 -19.418  0.00  0.00    +0.000 C 
ENDBRANCH  14  17
ENDBRANCH  12  15
ENDBRANCH   1  12
TORSDOF 9
ENDMDL
MODEL 2
REMARK VINA RESULT:      -8.3      3.158      3.913
REMARK  Name = 9882812
REMARK  9 active torsions:
REMARK  status: ('A' for Active; 'I' for Inactive)
REMARK    1  A    between atoms: C_1  and  C_2
REMARK    2  A    between atoms: C_1  and  C_12
REMARK    3  A    between atoms: C_2  and  C_3
REMARK    4  A    between atoms: C_3  and  C_4
REMARK    5  A    between atoms: C_4  and  C_5
REMARK    6  A    between atoms: C_5  and  C_7
REMARK    7  A    between atoms: C_7  and  C_11
REMARK    8  A    between atoms: C_12  and  C_15
REMARK    9  A    between atoms: N_14  and  C_17
REMARK                            x       y       z     vdW  Elec       q    Type
REMARK                         _______ _______ _______ _____ _____    ______ ____
ROOT
ATOM      1  C   UNL     1      34.746 -16.172 -22.068  0.00  0.00    +0.010 C 
ENDROOT
BRANCH   1   2
ATOM      2  C   UNL     1      33.399 -15.447 -22.003  0.00  0.00    +0.001 C 
BRANCH   2   3
ATOM      3  C   UNL     1      33.550 -13.952 -22.284  0.00  0.00    +0.000 C 
BRANCH   3   4
ATOM      4  C   UNL     1      33.850 -13.625 -23.753  0.00  0.00    +0.008 C 
BRANCH   4   5
ATOM      5  C   UNL     1      32.761 -14.071 -24.731  0.00  0.00    +0.073 C 
BRANCH   5   7
ATOM      6  O   UNL     1      33.627 -15.418 -26.544  0.00  0.00    -0.287 OA
ATOM      7  C   UNL     1      33.255 -14.314 -26.148  0.00  0.00    +0.244 C 
BRANCH   7  11
ATOM      8  F   UNL     1      32.145 -12.967 -27.750  0.00  0.00    -0.163 F 
ATOM      9  F   UNL     1      33.494 -11.962 -26.364  0.00  0.00    -0.163 F 
ATOM     10  F   UNL     1      34.303 -13.209 -27.959  0.00  0.00    -0.163 F 
ATOM     11  C   UNL     1      33.299 -13.115 -27.052  0.00  0.00    +0.451 C 
ENDBRANCH   7  11
ENDBRANCH   5   7
ENDBRANCH   4   5
ENDBRANCH   3   4
ENDBRANCH   2   3
ENDBRANCH   1   2
BRANCH   1  12
ATOM     12  C   UNL     1      34.841 -17.137 -23.250  0.00  0.00    +0.085 C 
BRANCH  12  15
ATOM     13  O   UNL     1      34.901 -19.496 -23.616  0.00  0.00    -0.275 OA
ATOM     14  N   UNL     1      34.673 -18.696 -21.417  0.00  0.00    -0.284 N 
ATOM     15  C   UNL     1      34.798 -18.586 -22.797  0.00  0.00    +0.226 C 
ATOM     16  H   UNL     1      34.629 -17.849 -20.916  0.00  0.00    +0.155 HD
BRANCH  14  17
ATOM     17  C   UNL     1      34.603 -19.881 -20.648  0.00  0.00    +0.050 C 
ATOM     18  C   UNL     1      33.363 -20.385 -20.257  0.00  0.00    +0.015 C 
ATOM     19  C   UNL     1      35.774 -20.544 -20.281  0.00  0.00    +0.015 C 
ATOM     20  C   UNL     1      33.293 -21.554 -19.499  0.00  0.00    +0.001 C 
ATOM     21  C   UNL     1      35.704 -21.714 -19.523  0.00  0.00    +0.001 C 
ATOM     22  C   UNL     1      34.464 -22.218 -19.132  0.00  0.00    +0.000 C 
ENDBRANCH  14  17
ENDBRANCH  12  15
ENDBRANCH   1  12
TORSDOF 9
ENDMDL
MODEL 3
REMARK VINA RESULT:      -8.3      2.935      3.496
REMARK  Name = 9882812
REMARK  9 active torsions:
REMARK  status: ('A' for Active; 'I' for Inactive)
REMARK    1  A    between atoms: C_1  and  C_2
REMARK    2  A    between atoms: C_1  and  C_12
REMARK    3  A    between atoms: C_2  and  C_3
REMARK    4  A    between atoms: C_3  and  C_4
REMARK    5  A    between atoms: C_4  and  C_5
REMARK    6  A    between atoms: C_5  and  C_7
REMARK    7  A    between atoms: C_7  and  C_11
REMARK    8  A    between atoms: C_12  and  C_15
REMARK    9  A    between atoms: N_14  and  C_17
REMARK                            x       y       z     vdW  Elec       q    Type
REMARK                         _______ _______ _______ _____ _____    ______ ____
ROOT
ATOM      1  C   UNL     1      34.357 -14.786 -22.181  0.00  0.00    +0.010 C 
ENDROOT
BRANCH   1   2
ATOM      2  C   UNL     1      32.827 -14.735 -22.212  0.00  0.00    +0.001 C 
BRANCH   2   3
ATOM      3  C   UNL     1      32.316 -13.327 -22.518  0.00  0.00    +0.000 C 
BRANCH   3   4
ATOM      4  C   UNL     1      31.932 -12.522 -21.270  0.00  0.00    +0.008 C 
BRANCH   4   5
ATOM      5  C   UNL     1      31.058 -11.300 -21.556  0.00  0.00    +0.073 C 
BRANCH   5   7
ATOM      6  O   UNL     1      32.155  -9.160 -21.820  0.00  0.00    -0.287 OA
ATOM      7  C   UNL     1      31.642  -9.985 -21.065  0.00  0.00    +0.244 C 
BRANCH   7  11
ATOM      8  F   UNL     1      31.594  -8.423 -19.283  0.00  0.00    -0.163 F 
ATOM      9  F   UNL     1      30.476 -10.276 -19.017  0.00  0.00    -0.163 F 
ATOM     10  F   UNL     1      32.654 -10.300 -18.949  0.00  0.00    -0.163 F 
ATOM     11  C   UNL     1      31.590  -9.746 -19.583  0.00  0.00    +0.451 C 
ENDBRANCH   7  11
ENDBRANCH   5   7
ENDBRANCH   4   5
ENDBRANCH   3   4
ENDBRANCH   2   3
ENDBRANCH   1   2
BRANCH   1  12
ATOM     12  C   UNL     1      34.910 -16.149 -22.597  0.00  0.00    +0.085 C 
BRANCH  12  15
ATOM     13  O   UNL     1      35.278 -16.712 -20.305  0.00  0.00    -0.275 OA
ATOM     14  N   UNL     1      34.600 -18.402 -21.793  0.00  0.00    -0.284 N 
ATOM     15  C   UNL     1      34.966 -17.113 -21.424  0.00  0.00    +0.226 C 
ATOM     16  H   UNL     1      34.357 -18.531 -22.738  0.00  0.00    +0.155 HD
BRANCH  14  17
ATOM     17  C   UNL     1      34.536 -19.550 -20.970  0.00  0.00    +0.050 C 
ATOM     18  C   UNL     1      35.709 -20.192 -20.576  0.00  0.00    +0.015 C 
ATOM     19  C   UNL     1      33.297 -20.040 -20.552  0.00  0.00    +0.015 C 
ATOM     20  C   UNL     1      35.646 -21.325 -19.763  0.00  0.00    +0.001 C 
ATOM     21  C   UNL     1      33.234 -21.173 -19.739  0.00  0.00    +0.001 C 
ATOM     22  C   UNL     1      34.408 -21.815 -19.346  0.00  0.00    +0.000 C 
ENDBRANCH  14  17
ENDBRANCH  12  15
ENDBRANCH   1  12
TORSDOF 9
ENDMDL
MODEL 4
REMARK VINA RESULT:      -8.2      3.334      4.001
REMARK  Name = 9882812
REMARK  9 active torsions:
REMARK  status: ('A' for Active; 'I' for Inactive)
REMARK    1  A    between atoms: C_1  and  C_2
REMARK    2  A    between atoms: C_1  and  C_12
REMARK    3  A    between atoms: C_2  and  C_3
REMARK    4  A    between atoms: C_3  and  C_4
REMARK    5  A    between atoms: C_4  and  C_5
REMARK    6  A    between atoms: C_5  and  C_7
REMARK    7  A    between atoms: C_7  and  C_11
REMARK    8  A    between atoms: C_12  and  C_15
REMARK    9  A    between atoms: N_14  and  C_17
REMARK                            x       y       z     vdW  Elec       q    Type
REMARK                         _______ _______ _______ _____ _____    ______ ____
ROOT
ATOM      1  C   UNL     1      34.058 -14.593 -21.723  0.00  0.00    +0.010 C 
ENDROOT
BRANCH   1   2
ATOM      2  C   UNL     1      32.599 -14.426 -21.288  0.00  0.00    +0.001 C 
BRANCH   2   3
ATOM      3  C   UNL     1      32.083 -13.018 -21.579  0.00  0.00    +0.000 C 
BRANCH   3   4
ATOM      4  C   UNL     1      31.813 -12.183 -20.320  0.00  0.00    +0.008 C 
BRANCH   4   5
ATOM      5  C   UNL     1      31.093 -10.860 -20.587  0.00  0.00    +0.073 C 
BRANCH   5   7
ATOM      6  O   UNL     1      32.374  -9.242 -19.325  0.00  0.00    -0.287 OA
ATOM      7  C   UNL     1      31.967  -9.627 -20.420  0.00  0.00    +0.244 C 
BRANCH   7  11
ATOM      8  F   UNL     1      31.175  -8.506 -22.352  0.00  0.00    -0.163 F 
ATOM      9  F   UNL     1      32.986  -7.729 -21.419  0.00  0.00    -0.163 F 
ATOM     10  F   UNL     1      33.050  -9.607 -22.524  0.00  0.00    -0.163 F 
ATOM     11  C   UNL     1      32.294  -8.868 -21.675  0.00  0.00    +0.451 C 
ENDBRANCH   7  11
ENDBRANCH   5   7
ENDBRANCH   4   5
ENDBRANCH   3   4
ENDBRANCH   2   3
ENDBRANCH   1   2
BRANCH   1  12
ATOM     12  C   UNL     1      34.336 -15.965 -22.338  0.00  0.00    +0.085 C 
BRANCH  12  15
ATOM     13  O   UNL     1      35.206 -16.659 -20.225  0.00  0.00    -0.275 OA
ATOM     14  N   UNL     1      34.259 -18.274 -21.645  0.00  0.00    -0.284 N 
ATOM     15  C   UNL     1      34.667 -16.999 -21.275  0.00  0.00    +0.226 C 
ATOM     16  H   UNL     1      33.819 -18.352 -22.522  0.00  0.00    +0.155 HD
BRANCH  14  17
ATOM     17  C   UNL     1      34.401 -19.474 -20.909  0.00  0.00    +0.050 C 
ATOM     18  C   UNL     1      35.666 -20.029 -20.719  0.00  0.00    +0.015 C 
ATOM     19  C   UNL     1      33.275 -20.102 -20.374  0.00  0.00    +0.015 C 
ATOM     20  C   UNL     1      35.807 -21.213 -19.993  0.00  0.00    +0.001 C 
ATOM     21  C   UNL     1      33.416 -21.285 -19.648  0.00  0.00    +0.001 C 
ATOM     22  C   UNL     1      34.682 -21.840 -19.458  0.00  0.00    +0.000 C 
ENDBRANCH  14  17
ENDBRANCH  12  15
ENDBRANCH   1  12
TORSDOF 9
ENDMDL
MODEL 5
REMARK VINA RESULT:      -8.2      1.392      2.145
REMARK  Name = 9882812
REMARK  9 active torsions:
REMARK  status: ('A' for Active; 'I' for Inactive)
REMARK    1  A    between atoms: C_1  and  C_2
REMARK    2  A    between atoms: C_1  and  C_12
REMARK    3  A    between atoms: C_2  and  C_3
REMARK    4  A    between atoms: C_3  and  C_4
REMARK    5  A    between atoms: C_4  and  C_5
REMARK    6  A    between atoms: C_5  and  C_7
REMARK    7  A    between atoms: C_7  and  C_11
REMARK    8  A    between atoms: C_12  and  C_15
REMARK    9  A    between atoms: N_14  and  C_17
REMARK                            x       y       z     vdW  Elec       q    Type
REMARK                         _______ _______ _______ _____ _____    ______ ____
ROOT
ATOM      1  C   UNL     1      34.500 -17.100 -23.791  0.00  0.00    +0.010 C 
ENDROOT
BRANCH   1   2
ATOM      2  C   UNL     1      34.716 -16.123 -24.949  0.00  0.00    +0.001 C 
BRANCH   2   3
ATOM      3  C   UNL     1      33.390 -15.674 -25.562  0.00  0.00    +0.000 C 
BRANCH   3   4
ATOM      4  C   UNL     1      32.979 -14.246 -25.174  0.00  0.00    +0.008 C 
BRANCH   4   5
ATOM      5  C   UNL     1      33.733 -13.683 -23.968  0.00  0.00    +0.073 C 
BRANCH   5   7
ATOM      6  O   UNL     1      31.995 -12.539 -22.734  0.00  0.00    -0.287 OA
ATOM      7  C   UNL     1      32.858 -13.416 -22.754  0.00  0.00    +0.244 C 
BRANCH   7  11
ATOM      8  F   UNL     1      34.448 -14.440 -21.327  0.00  0.00    -0.163 F 
ATOM      9  F   UNL     1      32.604 -13.723 -20.413  0.00  0.00    -0.163 F 
ATOM     10  F   UNL     1      32.575 -15.502 -21.673  0.00  0.00    -0.163 F 
ATOM     11  C   UNL     1      33.121 -14.267 -21.544  0.00  0.00    +0.451 C 
ENDBRANCH   7  11
ENDBRANCH   5   7
ENDBRANCH   4   5
ENDBRANCH   3   4
ENDBRANCH   2   3
ENDBRANCH   1   2
BRANCH   1  12
ATOM     12  C   UNL     1      35.697 -17.165 -22.842  0.00  0.00    +0.085 C 
BRANCH  12  15
ATOM     13  O   UNL     1      35.214 -17.227 -20.504  0.00  0.00    -0.275 OA
ATOM     14  N   UNL     1      35.178 -19.237 -21.722  0.00  0.00    -0.284 N 
ATOM     15  C   UNL     1      35.346 -17.870 -21.542  0.00  0.00    +0.226 C 
ATOM     16  H   UNL     1      35.302 -19.574 -22.638  0.00  0.00    +0.155 HD
BRANCH  14  17
ATOM     17  C   UNL     1      34.849 -20.202 -20.741  0.00  0.00    +0.050 C 
ATOM     18  C   UNL     1      35.858 -20.938 -20.121  0.00  0.00    +0.015 C 
ATOM     19  C   UNL     1      33.514 -20.418 -20.395  0.00  0.00    +0.015 C 
ATOM     20  C   UNL     1      35.534 -21.890 -19.154  0.00  0.00    +0.001 C 
ATOM     21  C   UNL     1      33.190 -21.369 -19.428  0.00  0.00    +0.001 C 
ATOM     22  C   UNL     1      34.200 -22.106 -18.808  0.00  0.00    +0.000 C 
ENDBRANCH  14  17
ENDBRANCH  12  15
ENDBRANCH   1  12
TORSDOF 9
ENDMDL
MODEL 6
REMARK VINA RESULT:      -8.1      6.028      9.224
REMARK  Name = 9882812
REMARK  9 active torsions:
REMARK  status: ('A' for Active; 'I' for Inactive)
REMARK    1  A    between atoms: C_1  and  C_2
REMARK    2  A    between atoms: C_1  and  C_12
REMARK    3  A    between atoms: C_2  and  C_3
REMARK    4  A    between atoms: C_3  and  C_4
REMARK    5  A    between atoms: C_4  and  C_5
REMARK    6  A    between atoms: C_5  and  C_7
REMARK    7  A    between atoms: C_7  and  C_11
REMARK    8  A    between atoms: C_12  and  C_15
REMARK    9  A    between atoms: N_14  and  C_17
REMARK                            x       y       z     vdW  Elec       q    Type
REMARK                         _______ _______ _______ _____ _____    ______ ____
ROOT
ATOM      1  C   UNL     1      33.727 -22.692 -18.880  0.00  0.00    +0.010 C 
ENDROOT
BRANCH   1   2
ATOM      2  C   UNL     1      33.850 -23.135 -17.419  0.00  0.00    +0.001 C 
BRANCH   2   3
ATOM      3  C   UNL     1      32.485 -23.215 -16.737  0.00  0.00    +0.000 C 
BRANCH   3   4
ATOM      4  C   UNL     1      32.556 -23.216 -15.204  0.00  0.00    +0.008 C 
BRANCH   4   5
ATOM      5  C   UNL     1      31.235 -22.873 -14.515  0.00  0.00    +0.073 C 
BRANCH   5   7
ATOM      6  O   UNL     1      30.617 -24.450 -12.787  0.00  0.00    -0.287 OA
ATOM      7  C   UNL     1      30.493 -24.075 -13.953  0.00  0.00    +0.244 C 
BRANCH   7  11
ATOM      8  F   UNL     1      28.513 -25.332 -14.294  0.00  0.00    -0.163 F 
ATOM      9  F   UNL     1      29.155 -24.021 -15.914  0.00  0.00    -0.163 F 
ATOM     10  F   UNL     1      30.257 -25.855 -15.495  0.00  0.00    -0.163 F 
ATOM     11  C   UNL     1      29.606 -24.818 -14.911  0.00  0.00    +0.451 C 
ENDBRANCH   7  11
ENDBRANCH   5   7
ENDBRANCH   4   5
ENDBRANCH   3   4
ENDBRANCH   2   3
ENDBRANCH   1   2
BRANCH   1  12
ATOM     12  C   UNL     1      34.819 -21.704 -19.290  0.00  0.00    +0.085 C 
BRANCH  12  15
ATOM     13  O   UNL     1      33.077 -20.310 -20.143  0.00  0.00    -0.275 OA
ATOM     14  N   UNL     1      35.268 -19.999 -20.937  0.00  0.00    -0.284 N 
ATOM     15  C   UNL     1      34.271 -20.599 -20.178  0.00  0.00    +0.226 C 
ATOM     16  H   UNL     1      36.179 -20.351 -20.814  0.00  0.00    +0.155 HD
BRANCH  14  17
ATOM     17  C   UNL     1      35.127 -18.944 -21.868  0.00  0.00    +0.050 C 
ATOM     18  C   UNL     1      35.192 -17.620 -21.436  0.00  0.00    +0.015 C 
ATOM     19  C   UNL     1      34.923 -19.228 -23.219  0.00  0.00    +0.015 C 
ATOM     20  C   UNL     1      35.054 -16.578 -22.354  0.00  0.00    +0.001 C 
ATOM     21  C   UNL     1      34.784 -18.186 -24.137  0.00  0.00    +0.001 C 
ATOM     22  C   UNL     1      34.850 -16.862 -23.704  0.00  0.00    +0.000 C 
ENDBRANCH  14  17
ENDBRANCH  12  15
ENDBRANCH   1  12
TORSDOF 9
ENDMDL
MODEL 7
REMARK VINA RESULT:      -8.0      3.832      5.825
REMARK  Name = 9882812
REMARK  9 active torsions:
REMARK  status: ('A' for Active; 'I' for Inactive)
REMARK    1  A    between atoms: C_1  and  C_2
REMARK    2  A    between atoms: C_1  and  C_12
REMARK    3  A    between atoms: C_2  and  C_3
REMARK    4  A    between atoms: C_3  and  C_4
REMARK    5  A    between atoms: C_4  and  C_5
REMARK    6  A    between atoms: C_5  and  C_7
REMARK    7  A    between atoms: C_7  and  C_11
REMARK    8  A    between atoms: C_12  and  C_15
REMARK    9  A    between atoms: N_14  and  C_17
REMARK                            x       y       z     vdW  Elec       q    Type
REMARK                         _______ _______ _______ _____ _____    ______ ____
ROOT
ATOM      1  C   UNL     1      33.032 -20.837 -19.771  0.00  0.00    +0.010 C 
ENDROOT
BRANCH   1   2
ATOM      2  C   UNL     1      33.650 -19.942 -20.849  0.00  0.00    +0.001 C 
BRANCH   2   3
ATOM      3  C   UNL     1      35.176 -19.920 -20.755  0.00  0.00    +0.000 C 
BRANCH   3   4
ATOM      4  C   UNL     1      35.822 -18.708 -21.441  0.00  0.00    +0.008 C 
BRANCH   4   5
ATOM      5  C   UNL     1      34.955 -18.067 -22.526  0.00  0.00    +0.073 C 
BRANCH   5   7
ATOM      6  O   UNL     1      35.385 -15.816 -23.303  0.00  0.00    -0.287 OA
ATOM      7  C   UNL     1      34.883 -16.550 -22.453  0.00  0.00    +0.244 C 
BRANCH   7  11
ATOM      8  F   UNL     1      33.063 -16.674 -20.940  0.00  0.00    -0.163 F 
ATOM      9  F   UNL     1      34.971 -15.976 -20.150  0.00  0.00    -0.163 F 
ATOM     10  F   UNL     1      33.801 -14.690 -21.466  0.00  0.00    -0.163 F 
ATOM     11  C   UNL     1      34.182 -15.975 -21.255  0.00  0.00    +0.451 C 
ENDBRANCH   7  11
ENDBRANCH   5   7
ENDBRANCH   4   5
ENDBRANCH   3   4
ENDBRANCH   2   3
ENDBRANCH   1   2
BRANCH   1  12
ATOM     12  C   UNL     1      33.834 -22.117 -19.537  0.00  0.00    +0.085 C 
BRANCH  12  15
ATOM     13  O   UNL     1      34.520 -23.156 -17.499  0.00  0.00    -0.275 OA
ATOM     14  N   UNL     1      32.261 -22.561 -17.763  0.00  0.00    -0.284 N 
ATOM     15  C   UNL     1      33.590 -22.687 -18.149  0.00  0.00    +0.226 C 
ATOM     16  H   UNL     1      31.658 -22.134 -18.412  0.00  0.00    +0.155 HD
BRANCH  14  17
ATOM     17  C   UNL     1      31.674 -22.977 -16.545  0.00  0.00    +0.050 C 
ATOM     18  C   UNL     1      30.287 -22.964 -16.400  0.00  0.00    +0.015 C 
ATOM     19  C   UNL     1      32.483 -23.400 -15.489  0.00  0.00    +0.015 C 
ATOM     20  C   UNL     1      29.708 -23.374 -15.199  0.00  0.00    +0.001 C 
ATOM     21  C   UNL     1      31.903 -23.811 -14.289  0.00  0.00    +0.001 C 
ATOM     22  C   UNL     1      30.516 -23.797 -14.143  0.00  0.00    +0.000 C 
ENDBRANCH  14  17
ENDBRANCH  12  15
ENDBRANCH   1  12
TORSDOF 9
ENDMDL
MODEL 8
REMARK VINA RESULT:      -7.9      4.518      9.278
REMARK  Name = 9882812
REMARK  9 active torsions:
REMARK  status: ('A' for Active; 'I' for Inactive)
REMARK    1  A    between atoms: C_1  and  C_2
REMARK    2  A    between atoms: C_1  and  C_12
REMARK    3  A    between atoms: C_2  and  C_3
REMARK    4  A    between atoms: C_3  and  C_4
REMARK    5  A    between atoms: C_4  and  C_5
REMARK    6  A    between atoms: C_5  and  C_7
REMARK    7  A    between atoms: C_7  and  C_11
REMARK    8  A    between atoms: C_12  and  C_15
REMARK    9  A    between atoms: N_14  and  C_17
REMARK                            x       y       z     vdW  Elec       q    Type
REMARK                         _______ _______ _______ _____ _____    ______ ____
ROOT
ATOM      1  C   UNL     1      31.059 -10.946 -20.321  0.00  0.00    +0.010 C 
ENDROOT
BRANCH   1   2
ATOM      2  C   UNL     1      31.763 -12.289 -20.536  0.00  0.00    +0.001 C 
BRANCH   2   3
ATOM      3  C   UNL     1      31.970 -12.584 -22.022  0.00  0.00    +0.000 C 
BRANCH   3   4
ATOM      4  C   UNL     1      32.760 -13.871 -22.294  0.00  0.00    +0.008 C 
BRANCH   4   5
ATOM      5  C   UNL     1      32.724 -14.883 -21.148  0.00  0.00    +0.073 C 
BRANCH   5   7
ATOM      6  O   UNL     1      34.933 -14.941 -20.163  0.00  0.00    -0.287 OA
ATOM      7  C   UNL     1      34.070 -15.513 -20.828  0.00  0.00    +0.244 C 
BRANCH   7  11
ATOM      8  F   UNL     1      34.223 -16.891 -22.750  0.00  0.00    -0.163 F 
ATOM      9  F   UNL     1      35.549 -17.353 -21.084  0.00  0.00    -0.163 F 
ATOM     10  F   UNL     1      33.419 -17.786 -20.931  0.00  0.00    -0.163 F 
ATOM     11  C   UNL     1      34.316 -16.882 -21.397  0.00  0.00    +0.451 C 
ENDBRANCH   7  11
ENDBRANCH   5   7
ENDBRANCH   4   5
ENDBRANCH   3   4
ENDBRANCH   2   3
ENDBRANCH   1   2
BRANCH   1  12
ATOM     12  C   UNL     1      31.874  -9.984 -19.457  0.00  0.00    +0.085 C 
BRANCH  12  15
ATOM     13  O   UNL     1      32.672  -7.742 -19.657  0.00  0.00    -0.275 OA
ATOM     14  N   UNL     1      32.295  -8.989 -21.613  0.00  0.00    -0.284 N 
ATOM     15  C   UNL     1      32.319  -8.762 -20.243  0.00  0.00    +0.226 C 
ATOM     16  H   UNL     1      32.003  -9.884 -21.901  0.00  0.00    +0.155 HD
BRANCH  14  17
ATOM     17  C   UNL     1      32.642  -8.085 -22.644  0.00  0.00    +0.050 C 
ATOM     18  C   UNL     1      33.974  -7.944 -23.030  0.00  0.00    +0.015 C 
ATOM     19  C   UNL     1      31.649  -7.333 -23.275  0.00  0.00    +0.015 C 
ATOM     20  C   UNL     1      34.316  -7.053 -24.047  0.00  0.00    +0.001 C 
ATOM     21  C   UNL     1      31.991  -6.441 -24.292  0.00  0.00    +0.001 C 
ATOM     22  C   UNL     1      33.324  -6.301 -24.677  0.00  0.00    +0.000 C 
ENDBRANCH  14  17
ENDBRANCH  12  15
ENDBRANCH   1  12
TORSDOF 9
ENDMDL
MODEL 9
REMARK VINA RESULT:      -7.9      6.070      9.546
REMARK  Name = 9882812
REMARK  9 active torsions:
REMARK  status: ('A' for Active; 'I' for Inactive)
REMARK    1  A    between atoms: C_1  and  C_2
REMARK    2  A    between atoms: C_1  and  C_12
REMARK    3  A    between atoms: C_2  and  C_3
REMARK    4  A    between atoms: C_3  and  C_4
REMARK    5  A    between atoms: C_4  and  C_5
REMARK    6  A    between atoms: C_5  and  C_7
REMARK    7  A    between atoms: C_7  and  C_11
REMARK    8  A    between atoms: C_12  and  C_15
REMARK    9  A    between atoms: N_14  and  C_17
REMARK                            x       y       z     vdW  Elec       q    Type
REMARK                         _______ _______ _______ _____ _____    ______ ____
ROOT
ATOM      1  C   UNL     1      35.948 -21.689 -18.813  0.00  0.00    +0.010 C 
ENDROOT
BRANCH   1   2
ATOM      2  C   UNL     1      36.342 -22.091 -17.389  0.00  0.00    +0.001 C 
BRANCH   2   3
ATOM      3  C   UNL     1      35.218 -22.853 -16.688  0.00  0.00    +0.000 C 
BRANCH   3   4
ATOM      4  C   UNL     1      35.382 -22.938 -15.164  0.00  0.00    +0.008 C 
BRANCH   4   5
ATOM      5  C   UNL     1      35.231 -24.349 -14.595  0.00  0.00    +0.073 C 
BRANCH   5   7
ATOM      6  O   UNL     1      36.079 -26.340 -15.676  0.00  0.00    -0.287 OA
ATOM      7  C   UNL     1      36.317 -25.319 -15.032  0.00  0.00    +0.244 C 
BRANCH   7  11
ATOM      8  F   UNL     1      37.752 -24.426 -13.370  0.00  0.00    -0.163 F 
ATOM      9  F   UNL     1      38.518 -26.079 -14.568  0.00  0.00    -0.163 F 
ATOM     10  F   UNL     1      38.301 -24.100 -15.456  0.00  0.00    -0.163 F 
ATOM     11  C   UNL     1      37.718 -24.983 -14.607  0.00  0.00    +0.451 C 
ENDBRANCH   7  11
ENDBRANCH   5   7
ENDBRANCH   4   5
ENDBRANCH   3   4
ENDBRANCH   2   3
ENDBRANCH   1   2
BRANCH   1  12
ATOM     12  C   UNL     1      34.438 -21.743 -19.044  0.00  0.00    +0.085 C 
BRANCH  12  15
ATOM     13  O   UNL     1      32.811 -20.648 -20.407  0.00  0.00    -0.275 OA
ATOM     14  N   UNL     1      35.051 -19.950 -20.537  0.00  0.00    -0.284 N 
ATOM     15  C   UNL     1      33.993 -20.728 -20.084  0.00  0.00    +0.226 C 
ATOM     16  H   UNL     1      35.933 -20.143 -20.143  0.00  0.00    +0.155 HD
BRANCH  14  17
ATOM     17  C   UNL     1      35.011 -18.913 -21.497  0.00  0.00    +0.050 C 
ATOM     18  C   UNL     1      34.987 -17.581 -21.085  0.00  0.00    +0.015 C 
ATOM     19  C   UNL     1      34.994 -19.223 -22.858  0.00  0.00    +0.015 C 
ATOM     20  C   UNL     1      34.948 -16.558 -22.033  0.00  0.00    +0.001 C 
ATOM     21  C   UNL     1      34.955 -18.199 -23.806  0.00  0.00    +0.001 C 
ATOM     22  C   UNL     1      34.931 -16.867 -23.393  0.00  0.00    +0.000 C 
ENDBRANCH  14  17
ENDBRANCH  12  15
ENDBRANCH   1  12
TORSDOF 9
ENDMDL
