MODEL 1
REMARK VINA RESULT:      -8.1      0.000      0.000
REMARK  Name = 65853
REMARK  1 active torsions:
REMARK  status: ('A' for Active; 'I' for Inactive)
REMARK    1  A    between atoms: C_3  and  N_11
REMARK                            x       y       z     vdW  Elec       q    Type
REMARK                         _______ _______ _______ _____ _____    ______ ____
ROOT
ATOM      1  O   UNL     1      34.514 -16.656 -21.115  0.00  0.00    -0.467 OA
ATOM      2  O   UNL     1      34.310 -14.801 -23.313  0.00  0.00    -0.468 OA
ATOM      3  C   UNL     1      34.662 -18.420 -22.676  0.00  0.00    +0.085 C 
ATOM      4  C   UNL     1      34.546 -17.052 -22.427  0.00  0.00    +0.186 C 
ATOM      5  C   UNL     1      34.720 -18.883 -23.990  0.00  0.00    +0.018 C 
ATOM      6  C   UNL     1      34.458 -16.151 -23.491  0.00  0.00    +0.174 C 
ATOM      7  C   UNL     1      34.743 -15.251 -20.977  0.00  0.00    +0.253 C 
ATOM      8  C   UNL     1      33.906 -14.481 -21.978  0.00  0.00    +0.253 C 
ATOM      9  C   UNL     1      34.530 -16.615 -24.806  0.00  0.00    +0.040 C 
ATOM     10  C   UNL     1      34.659 -17.982 -25.053  0.00  0.00    +0.005 C 
ENDROOT
BRANCH   3  11
ATOM     11  N   UNL     1      34.708 -19.342 -21.624  0.00  0.00    -0.309 N 
ATOM     12  N   UNL     1      34.839 -21.024 -19.322  0.00  0.00    +0.386 N 
ATOM     13  C   UNL     1      35.976 -19.499 -20.898  0.00  0.00    +0.068 C 
ATOM     14  C   UNL     1      33.493 -19.626 -20.852  0.00  0.00    +0.068 C 
ATOM     15  C   UNL     1      36.013 -20.844 -20.174  0.00  0.00    -0.060 C 
ATOM     16  C   UNL     1      33.621 -20.965 -20.127  0.00  0.00    -0.060 C 
ATOM     17  H   UNL     1      34.815 -20.285 -18.619  0.00  0.00    -0.084 HD
ATOM     18  H   UNL     1      34.893 -21.935 -18.865  0.00  0.00    -0.084 HD
ENDBRANCH   3  11
TORSDOF 1
ENDMDL
MODEL 2
REMARK VINA RESULT:      -7.9      1.147      2.916
REMARK  Name = 65853
REMARK  1 active torsions:
REMARK  status: ('A' for Active; 'I' for Inactive)
REMARK    1  A    between atoms: C_3  and  N_11
REMARK                            x       y       z     vdW  Elec       q    Type
REMARK                         _______ _______ _______ _____ _____    ______ ____
ROOT
ATOM      1  O   UNL     1      34.759 -18.202 -23.636  0.00  0.00    -0.467 OA
ATOM      2  O   UNL     1      34.280 -15.533 -24.616  0.00  0.00    -0.468 OA
ATOM      3  C   UNL     1      34.816 -17.338 -21.441  0.00  0.00    +0.085 C 
ATOM      4  C   UNL     1      34.656 -17.114 -22.809  0.00  0.00    +0.186 C 
ATOM      5  C   UNL     1      34.701 -16.275 -20.546  0.00  0.00    +0.018 C 
ATOM      6  C   UNL     1      34.413 -15.823 -23.284  0.00  0.00    +0.174 C 
ATOM      7  C   UNL     1      34.244 -17.929 -24.942  0.00  0.00    +0.253 C 
ATOM      8  C   UNL     1      34.763 -16.595 -25.443  0.00  0.00    +0.253 C 
ATOM      9  C   UNL     1      34.286 -14.762 -22.386  0.00  0.00    +0.040 C 
ATOM     10  C   UNL     1      34.432 -14.989 -21.017  0.00  0.00    +0.005 C 
ENDROOT
BRANCH   3  11
ATOM     11  N   UNL     1      35.102 -18.617 -20.950  0.00  0.00    -0.309 N 
ATOM     12  N   UNL     1      35.660 -21.310 -20.186  0.00  0.00    +0.386 N 
ATOM     13  C   UNL     1      34.042 -19.633 -21.005  0.00  0.00    +0.068 C 
ATOM     14  C   UNL     1      36.477 -19.128 -21.009  0.00  0.00    +0.068 C 
ATOM     15  C   UNL     1      34.321 -20.752 -20.003  0.00  0.00    -0.060 C 
ATOM     16  C   UNL     1      36.668 -20.266 -20.008  0.00  0.00    -0.060 C 
ATOM     17  H   UNL     1      35.739 -21.698 -21.126  0.00  0.00    -0.084 HD
ATOM     18  H   UNL     1      35.814 -22.044 -19.494  0.00  0.00    -0.084 HD
ENDBRANCH   3  11
TORSDOF 1
ENDMDL
MODEL 3
REMARK VINA RESULT:      -7.6      6.095      8.655
REMARK  Name = 65853
REMARK  1 active torsions:
REMARK  status: ('A' for Active; 'I' for Inactive)
REMARK    1  A    between atoms: C_3  and  N_11
REMARK                            x       y       z     vdW  Elec       q    Type
REMARK                         _______ _______ _______ _____ _____    ______ ____
ROOT
ATOM      1  O   UNL     1      34.974 -22.974 -17.668  0.00  0.00    -0.467 OA
ATOM      2  O   UNL     1      32.363 -22.154 -18.576  0.00  0.00    -0.468 OA
ATOM      3  C   UNL     1      33.994 -23.703 -15.649  0.00  0.00    +0.085 C 
ATOM      4  C   UNL     1      33.841 -23.135 -16.914  0.00  0.00    +0.186 C 
ATOM      5  C   UNL     1      32.876 -23.911 -14.842  0.00  0.00    +0.018 C 
ATOM      6  C   UNL     1      32.575 -22.747 -17.359  0.00  0.00    +0.174 C 
ATOM      7  C   UNL     1      34.668 -22.718 -19.041  0.00  0.00    +0.253 C 
ATOM      8  C   UNL     1      33.580 -21.669 -19.151  0.00  0.00    +0.253 C 
ATOM      9  C   UNL     1      31.455 -22.968 -16.556  0.00  0.00    +0.040 C 
ATOM     10  C   UNL     1      31.607 -23.548 -15.296  0.00  0.00    +0.005 C 
ENDROOT
BRANCH   3  11
ATOM     11  N   UNL     1      35.259 -24.058 -15.167  0.00  0.00    -0.309 N 
ATOM     12  N   UNL     1      37.731 -24.812 -13.955  0.00  0.00    +0.386 N 
ATOM     13  C   UNL     1      35.907 -23.164 -14.198  0.00  0.00    +0.068 C 
ATOM     14  C   UNL     1      35.629 -25.475 -15.071  0.00  0.00    +0.068 C 
ATOM     15  C   UNL     1      37.416 -23.402 -14.178  0.00  0.00    -0.060 C 
ATOM     16  C   UNL     1      37.148 -25.630 -15.016  0.00  0.00    -0.060 C 
ATOM     17  H   UNL     1      37.351 -25.105 -13.055  0.00  0.00    -0.084 HD
ATOM     18  H   UNL     1      38.744 -24.933 -13.959  0.00  0.00    -0.084 HD
ENDBRANCH   3  11
TORSDOF 1
ENDMDL
MODEL 4
REMARK VINA RESULT:      -7.3      8.404     10.459
REMARK  Name = 65853
REMARK  1 active torsions:
REMARK  status: ('A' for Active; 'I' for Inactive)
REMARK    1  A    between atoms: C_3  and  N_11
REMARK                            x       y       z     vdW  Elec       q    Type
REMARK                         _______ _______ _______ _____ _____    ______ ____
ROOT
ATOM      1  O   UNL     1      32.455 -24.886 -13.506  0.00  0.00    -0.467 OA
ATOM      2  O   UNL     1      30.578 -24.103 -15.549  0.00  0.00    -0.468 OA
ATOM      3  C   UNL     1      34.204 -24.067 -14.860  0.00  0.00    +0.085 C 
ATOM      4  C   UNL     1      32.839 -24.281 -14.673  0.00  0.00    +0.186 C 
ATOM      5  C   UNL     1      34.656 -23.436 -16.019  0.00  0.00    +0.018 C 
ATOM      6  C   UNL     1      31.927 -23.892 -15.659  0.00  0.00    +0.174 C 
ATOM      7  C   UNL     1      31.053 -24.742 -13.266  0.00  0.00    +0.253 C 
ATOM      8  C   UNL     1      30.269 -25.053 -14.525  0.00  0.00    +0.253 C 
ATOM      9  C   UNL     1      32.379 -23.249 -16.812  0.00  0.00    +0.040 C 
ATOM     10  C   UNL     1      33.744 -23.023 -16.992  0.00  0.00    +0.005 C 
ENDROOT
BRANCH   3  11
ATOM     11  N   UNL     1      35.136 -24.488 -13.905  0.00  0.00    -0.309 N 
ATOM     12  N   UNL     1      37.203 -25.182 -12.062  0.00  0.00    +0.386 N 
ATOM     13  C   UNL     1      36.329 -25.209 -14.372  0.00  0.00    +0.068 C 
ATOM     14  C   UNL     1      35.302 -23.723 -12.664  0.00  0.00    +0.068 C 
ATOM     15  C   UNL     1      36.944 -26.019 -13.232  0.00  0.00    -0.060 C 
ATOM     16  C   UNL     1      35.956 -24.586 -11.586  0.00  0.00    -0.060 C 
ATOM     17  H   UNL     1      37.857 -24.441 -12.314  0.00  0.00    -0.084 HD
ATOM     18  H   UNL     1      37.602 -25.758 -11.320  0.00  0.00    -0.084 HD
ENDBRANCH   3  11
TORSDOF 1
ENDMDL
MODEL 5
REMARK VINA RESULT:      -7.3      4.128      6.501
REMARK  Name = 65853
REMARK  1 active torsions:
REMARK  status: ('A' for Active; 'I' for Inactive)
REMARK    1  A    between atoms: C_3  and  N_11
REMARK                            x       y       z     vdW  Elec       q    Type
REMARK                         _______ _______ _______ _____ _____    ______ ____
ROOT
ATOM      1  O   UNL     1      34.593 -11.574 -24.738  0.00  0.00    -0.467 OA
ATOM      2  O   UNL     1      33.673  -9.052 -23.686  0.00  0.00    -0.468 OA
ATOM      3  C   UNL     1      33.006 -12.670 -23.380  0.00  0.00    +0.085 C 
ATOM      4  C   UNL     1      33.581 -11.478 -23.820  0.00  0.00    +0.186 C 
ATOM      5  C   UNL     1      31.957 -12.636 -22.461  0.00  0.00    +0.018 C 
ATOM      6  C   UNL     1      33.128 -10.254 -23.319  0.00  0.00    +0.174 C 
ATOM      7  C   UNL     1      34.864 -10.319 -25.367  0.00  0.00    +0.253 C 
ATOM      8  C   UNL     1      34.940  -9.217 -24.330  0.00  0.00    +0.253 C 
ATOM      9  C   UNL     1      32.070 -10.221 -22.410  0.00  0.00    +0.040 C 
ATOM     10  C   UNL     1      31.486 -11.414 -21.980  0.00  0.00    +0.005 C 
ENDROOT
BRANCH   3  11
ATOM     11  N   UNL     1      33.473 -13.907 -23.837  0.00  0.00    -0.309 N 
ATOM     12  N   UNL     1      34.239 -16.539 -24.636  0.00  0.00    +0.386 N 
ATOM     13  C   UNL     1      34.031 -14.843 -22.851  0.00  0.00    +0.068 C 
ATOM     14  C   UNL     1      32.866 -14.521 -25.024  0.00  0.00    +0.068 C 
ATOM     15  C   UNL     1      34.933 -15.868 -23.538  0.00  0.00    -0.060 C 
ATOM     16  C   UNL     1      33.809 -15.559 -25.631  0.00  0.00    -0.060 C 
ATOM     17  H   UNL     1      33.422 -17.028 -24.269  0.00  0.00    -0.084 HD
ATOM     18  H   UNL     1      34.874 -17.205 -25.075  0.00  0.00    -0.084 HD
ENDBRANCH   3  11
TORSDOF 1
ENDMDL
MODEL 6
REMARK VINA RESULT:      -7.3      6.447      8.985
REMARK  Name = 65853
REMARK  1 active torsions:
REMARK  status: ('A' for Active; 'I' for Inactive)
REMARK    1  A    between atoms: C_3  and  N_11
REMARK                            x       y       z     vdW  Elec       q    Type
REMARK                         _______ _______ _______ _____ _____    ______ ____
ROOT
ATOM      1  O   UNL     1      32.270 -22.580 -18.005  0.00  0.00    -0.467 OA
ATOM      2  O   UNL     1      35.149 -22.711 -17.945  0.00  0.00    -0.468 OA
ATOM      3  C   UNL     1      32.228 -23.450 -15.813  0.00  0.00    +0.085 C 
ATOM      4  C   UNL     1      32.970 -23.028 -16.916  0.00  0.00    +0.186 C 
ATOM      5  C   UNL     1      32.883 -23.897 -14.666  0.00  0.00    +0.018 C 
ATOM      6  C   UNL     1      34.366 -23.081 -16.883  0.00  0.00    +0.174 C 
ATOM      7  C   UNL     1      33.104 -21.862 -18.918  0.00  0.00    +0.253 C 
ATOM      8  C   UNL     1      34.395 -22.620 -19.157  0.00  0.00    +0.253 C 
ATOM      9  C   UNL     1      35.021 -23.516 -15.730  0.00  0.00    +0.040 C 
ATOM     10  C   UNL     1      34.278 -23.925 -14.622  0.00  0.00    +0.005 C 
ENDROOT
BRANCH   3  11
ATOM     11  N   UNL     1      30.829 -23.445 -15.841  0.00  0.00    -0.309 N 
ATOM     12  N   UNL     1      27.981 -23.570 -15.682  0.00  0.00    +0.386 N 
ATOM     13  C   UNL     1      30.136 -24.727 -16.029  0.00  0.00    +0.068 C 
ATOM     14  C   UNL     1      30.089 -22.428 -15.084  0.00  0.00    +0.068 C 
ATOM     15  C   UNL     1      28.715 -24.497 -16.542  0.00  0.00    -0.060 C 
ATOM     16  C   UNL     1      28.670 -22.282 -15.629  0.00  0.00    -0.060 C 
ATOM     17  H   UNL     1      27.921 -23.959 -14.741  0.00  0.00    -0.084 HD
ATOM     18  H   UNL     1      27.044 -23.433 -16.061  0.00  0.00    -0.084 HD
ENDBRANCH   3  11
TORSDOF 1
ENDMDL
MODEL 7
REMARK VINA RESULT:      -7.3      4.917      7.306
REMARK  Name = 65853
REMARK  1 active torsions:
REMARK  status: ('A' for Active; 'I' for Inactive)
REMARK    1  A    between atoms: C_3  and  N_11
REMARK                            x       y       z     vdW  Elec       q    Type
REMARK                         _______ _______ _______ _____ _____    ______ ____
ROOT
ATOM      1  O   UNL     1      32.175 -11.584 -22.815  0.00  0.00    -0.467 OA
ATOM      2  O   UNL     1      32.591  -8.782 -22.280  0.00  0.00    -0.468 OA
ATOM      3  C   UNL     1      33.873 -11.479 -24.450  0.00  0.00    +0.085 C 
ATOM      4  C   UNL     1      33.116 -10.834 -23.472  0.00  0.00    +0.186 C 
ATOM      5  C   UNL     1      34.860 -10.775 -25.139  0.00  0.00    +0.018 C 
ATOM      6  C   UNL     1      33.324  -9.479 -23.204  0.00  0.00    +0.174 C 
ATOM      7  C   UNL     1      31.714 -10.938 -21.625  0.00  0.00    +0.253 C 
ATOM      8  C   UNL     1      31.401  -9.482 -21.906  0.00  0.00    +0.253 C 
ATOM      9  C   UNL     1      34.321  -8.779 -23.885  0.00  0.00    +0.040 C 
ATOM     10  C   UNL     1      35.087  -9.428 -24.853  0.00  0.00    +0.005 C 
ENDROOT
BRANCH   3  11
ATOM     11  N   UNL     1      33.650 -12.825 -24.762  0.00  0.00    -0.309 N 
ATOM     12  N   UNL     1      33.423 -15.568 -25.519  0.00  0.00    +0.386 N 
ATOM     13  C   UNL     1      33.482 -13.187 -26.176  0.00  0.00    +0.068 C 
ATOM     14  C   UNL     1      34.205 -13.873 -23.899  0.00  0.00    +0.068 C 
ATOM     15  C   UNL     1      32.758 -14.528 -26.301  0.00  0.00    -0.060 C 
ATOM     16  C   UNL     1      33.457 -15.189 -24.107  0.00  0.00    -0.060 C 
ATOM     17  H   UNL     1      34.377 -15.688 -25.859  0.00  0.00    -0.084 HD
ATOM     18  H   UNL     1      32.907 -16.442 -25.617  0.00  0.00    -0.084 HD
ENDBRANCH   3  11
TORSDOF 1
ENDMDL
MODEL 8
REMARK VINA RESULT:      -7.3      3.485      6.559
REMARK  Name = 65853
REMARK  1 active torsions:
REMARK  status: ('A' for Active; 'I' for Inactive)
REMARK    1  A    between atoms: C_3  and  N_11
REMARK                            x       y       z     vdW  Elec       q    Type
REMARK                         _______ _______ _______ _____ _____    ______ ____
ROOT
ATOM      1  O   UNL     1      34.614 -15.928 -23.631  0.00  0.00    -0.467 OA
ATOM      2  O   UNL     1      34.247 -16.981 -20.973  0.00  0.00    -0.468 OA
ATOM      3  C   UNL     1      33.291 -14.069 -23.030  0.00  0.00    +0.085 C 
ATOM      4  C   UNL     1      33.885 -15.279 -22.669  0.00  0.00    +0.186 C 
ATOM      5  C   UNL     1      32.554 -13.351 -22.088  0.00  0.00    +0.018 C 
ATOM      6  C   UNL     1      33.717 -15.785 -21.378  0.00  0.00    +0.174 C 
ATOM      7  C   UNL     1      35.447 -16.947 -23.072  0.00  0.00    +0.253 C 
ATOM      8  C   UNL     1      34.661 -17.784 -22.082  0.00  0.00    +0.253 C 
ATOM      9  C   UNL     1      32.990 -15.059 -20.433  0.00  0.00    +0.040 C 
ATOM     10  C   UNL     1      32.407 -13.842 -20.791  0.00  0.00    +0.005 C 
ENDROOT
BRANCH   3  11
ATOM     11  N   UNL     1      33.412 -13.567 -24.330  0.00  0.00    -0.309 N 
ATOM     12  N   UNL     1      33.409 -12.488 -26.973  0.00  0.00    +0.386 N 
ATOM     13  C   UNL     1      32.707 -14.269 -25.411  0.00  0.00    +0.068 C 
ATOM     14  C   UNL     1      33.624 -12.130 -24.538  0.00  0.00    +0.068 C 
ATOM     15  C   UNL     1      33.334 -13.933 -26.764  0.00  0.00    -0.060 C 
ATOM     16  C   UNL     1      34.215 -11.870 -25.922  0.00  0.00    -0.060 C 
ATOM     17  H   UNL     1      32.468 -12.095 -26.952  0.00  0.00    -0.084 HD
ATOM     18  H   UNL     1      33.841 -12.303 -27.878  0.00  0.00    -0.084 HD
ENDBRANCH   3  11
TORSDOF 1
ENDMDL
MODEL 9
REMARK VINA RESULT:      -7.2      7.269      9.959
REMARK  Name = 65853
REMARK  1 active torsions:
REMARK  status: ('A' for Active; 'I' for Inactive)
REMARK    1  A    between atoms: C_3  and  N_11
REMARK                            x       y       z     vdW  Elec       q    Type
REMARK                         _______ _______ _______ _____ _____    ______ ____
ROOT
ATOM      1  O   UNL     1      33.819  -9.292 -23.830  0.00  0.00    -0.467 OA
ATOM      2  O   UNL     1      34.022 -12.101 -24.445  0.00  0.00    -0.468 OA
ATOM      3  C   UNL     1      32.169  -9.808 -22.224  0.00  0.00    +0.085 C 
ATOM      4  C   UNL     1      33.072 -10.247 -23.192  0.00  0.00    +0.186 C 
ATOM      5  C   UNL     1      31.395 -10.734 -21.526  0.00  0.00    +0.018 C 
ATOM      6  C   UNL     1      33.179 -11.610 -23.483  0.00  0.00    +0.174 C 
ATOM      7  C   UNL     1      34.929  -9.861 -24.528  0.00  0.00    +0.253 C 
ATOM      8  C   UNL     1      34.484 -11.072 -25.324  0.00  0.00    +0.253 C 
ATOM      9  C   UNL     1      32.413 -12.537 -22.774  0.00  0.00    +0.040 C 
ATOM     10  C   UNL     1      31.520 -12.097 -21.797  0.00  0.00    +0.005 C 
ENDROOT
BRANCH   3  11
ATOM     11  N   UNL     1      32.016  -8.444 -21.948  0.00  0.00    -0.309 N 
ATOM     12  N   UNL     1      31.459  -5.713 -21.332  0.00  0.00    +0.386 N 
ATOM     13  C   UNL     1      31.142  -7.655 -22.826  0.00  0.00    +0.068 C 
ATOM     14  C   UNL     1      32.129  -7.964 -20.566  0.00  0.00    +0.068 C 
ATOM     15  C   UNL     1      31.480  -6.168 -22.722  0.00  0.00    -0.060 C 
ATOM     16  C   UNL     1      32.430  -6.467 -20.542  0.00  0.00    -0.060 C 
ATOM     17  H   UNL     1      30.526  -5.855 -20.945  0.00  0.00    -0.084 HD
ATOM     18  H   UNL     1      31.700  -4.722 -21.301  0.00  0.00    -0.084 HD
ENDBRANCH   3  11
TORSDOF 1
ENDMDL
