MODEL 1
REMARK VINA RESULT:     -12.8      0.000      0.000
REMARK  Name = 44123754
REMARK  11 active torsions:
REMARK  status: ('A' for Active; 'I' for Inactive)
REMARK    1  A    between atoms: C_3  and  C_22
REMARK    2  A    between atoms: C_4  and  C_7
REMARK    3  A    between atoms: N_6  and  C_15
REMARK    4  A    between atoms: C_8  and  N_12
REMARK    5  A    between atoms: C_15  and  O_16
REMARK    6  A    between atoms: O_16  and  P_17
REMARK    7  A    between atoms: P_17  and  O_20
REMARK    8  A    between atoms: C_22  and  C_23
REMARK    9  A    between atoms: C_26  and  C_29
REMARK   10  A    between atoms: C_29  and  O_30
REMARK   11  A    between atoms: O_30  and  C_32
REMARK                            x       y       z     vdW  Elec       q    Type
REMARK                         _______ _______ _______ _____ _____    ______ ____
ROOT
ATOM      1  O   UNL     1      36.203 -22.817 -16.674  0.00  0.00    -0.354 OA
ATOM      2  N   UNL     1      35.669 -22.389 -17.884  0.00  0.00    -0.081 NA
ATOM      3  C   UNL     1      34.365 -22.668 -17.804  0.00  0.00    +0.105 C 
ATOM      4  C   UNL     1      35.213 -23.339 -15.906  0.00  0.00    +0.175 C 
ATOM      5  C   UNL     1      34.022 -23.268 -16.580  0.00  0.00    +0.058 C 
ENDROOT
BRANCH   4   7
ATOM      6  N   UNL     1      37.281 -24.536 -13.086  0.00  0.00    -0.266 N 
ATOM      7  C   UNL     1      35.619 -23.829 -14.610  0.00  0.00    +0.048 C 
ATOM      8  C   UNL     1      36.948 -24.082 -14.303  0.00  0.00    +0.156 C 
ATOM      9  C   UNL     1      34.652 -24.054 -13.636  0.00  0.00    +0.003 C 
ATOM     10  C   UNL     1      36.370 -24.762 -12.131  0.00  0.00    +0.064 C 
ATOM     11  C   UNL     1      35.027 -24.526 -12.381  0.00  0.00    +0.016 C 
BRANCH   8  12
ATOM     12  N   UNL     1      37.961 -23.867 -15.263  0.00  0.00    -0.303 NA
ATOM     13  H   UNL     1      38.602 -24.584 -15.471  0.00  0.00    +0.121 HD
ATOM     14  H   UNL     1      38.025 -22.999 -15.723  0.00  0.00    +0.121 HD
ENDBRANCH   8  12
BRANCH   6  15
ATOM     15  C   UNL     1      38.685 -24.803 -12.763  0.00  0.00    +0.251 C 
BRANCH  15  16
ATOM     16  O   UNL     1      39.111 -25.941 -13.499  0.00  0.00    -0.250 OA
BRANCH  16  17
ATOM     17  P   UNL     1      40.490 -25.858 -14.373  0.00  0.00    +0.504 P 
ATOM     18  O   UNL     1      41.341 -27.080 -14.105  0.00  0.00    -0.225 OA
ATOM     19  O   UNL     1      41.071 -24.469 -14.219  0.00  0.00    -0.116 OA
BRANCH  17  20
ATOM     20  O   UNL     1      39.862 -25.981 -15.876  0.00  0.00    -0.301 OA
ATOM     21  H   UNL     1      39.025 -25.491 -15.918  0.00  0.00    +0.222 HD
ENDBRANCH  17  20
ENDBRANCH  16  17
ENDBRANCH  15  16
ENDBRANCH   6  15
ENDBRANCH   4   7
BRANCH   3  22
ATOM     22  C   UNL     1      33.474 -22.344 -18.930  0.00  0.00    +0.075 C 
BRANCH  22  23
ATOM     23  C   UNL     1      33.922 -21.156 -19.771  0.00  0.00    -0.016 C 
ATOM     24  C   UNL     1      35.277 -20.957 -20.031  0.00  0.00    -0.004 C 
ATOM     25  C   UNL     1      32.976 -20.267 -20.283  0.00  0.00    -0.004 C 
ATOM     26  C   UNL     1      34.742 -18.980 -21.313  0.00  0.00    +0.021 C 
ATOM     27  C   UNL     1      35.688 -19.869 -20.801  0.00  0.00    -0.001 C 
ATOM     28  C   UNL     1      33.386 -19.179 -21.053  0.00  0.00    -0.001 C 
BRANCH  26  29
ATOM     29  C   UNL     1      35.181 -17.819 -22.139  0.00  0.00    +0.234 C 
BRANCH  29  30
ATOM     30  O   UNL     1      35.241 -16.655 -21.323  0.00  0.00    -0.455 OA
BRANCH  30  32
ATOM     31  N   UNL     1      34.726 -14.975 -22.839  0.00  0.00    -0.210 NA
ATOM     32  C   UNL     1      34.433 -15.608 -21.680  0.00  0.00    +0.225 C 
ATOM     33  C   UNL     1      33.377 -15.262 -20.852  0.00  0.00    +0.058 C 
ATOM     34  C   UNL     1      32.570 -14.197 -21.238  0.00  0.00    +0.006 C 
ATOM     35  C   UNL     1      33.918 -13.946 -23.181  0.00  0.00    +0.102 C 
ATOM     36  C   UNL     1      32.839 -13.522 -22.423  0.00  0.00    +0.021 C 
ENDBRANCH  30  32
ENDBRANCH  29  30
ENDBRANCH  26  29
ENDBRANCH  22  23
ENDBRANCH   3  22
TORSDOF 11
ENDMDL
MODEL 2
REMARK VINA RESULT:     -12.6      2.297      3.270
REMARK  Name = 44123754
REMARK  11 active torsions:
REMARK  status: ('A' for Active; 'I' for Inactive)
REMARK    1  A    between atoms: C_3  and  C_22
REMARK    2  A    between atoms: C_4  and  C_7
REMARK    3  A    between atoms: N_6  and  C_15
REMARK    4  A    between atoms: C_8  and  N_12
REMARK    5  A    between atoms: C_15  and  O_16
REMARK    6  A    between atoms: O_16  and  P_17
REMARK    7  A    between atoms: P_17  and  O_20
REMARK    8  A    between atoms: C_22  and  C_23
REMARK    9  A    between atoms: C_26  and  C_29
REMARK   10  A    between atoms: C_29  and  O_30
REMARK   11  A    between atoms: O_30  and  C_32
REMARK                            x       y       z     vdW  Elec       q    Type
REMARK                         _______ _______ _______ _____ _____    ______ ____
ROOT
ATOM      1  O   UNL     1      33.624 -23.800 -18.451  0.00  0.00    -0.354 OA
ATOM      2  N   UNL     1      34.163 -23.378 -19.661  0.00  0.00    -0.081 NA
ATOM      3  C   UNL     1      34.979 -22.369 -19.343  0.00  0.00    +0.105 C 
ATOM      4  C   UNL     1      34.127 -23.037 -17.446  0.00  0.00    +0.175 C 
ATOM      5  C   UNL     1      34.995 -22.111 -17.961  0.00  0.00    +0.058 C 
ENDROOT
BRANCH   4   7
ATOM      6  N   UNL     1      34.023 -24.143 -13.920  0.00  0.00    -0.266 N 
ATOM      7  C   UNL     1      33.655 -23.361 -16.120  0.00  0.00    +0.048 C 
ATOM      8  C   UNL     1      34.502 -23.857 -15.139  0.00  0.00    +0.156 C 
ATOM      9  C   UNL     1      32.312 -23.171 -15.812  0.00  0.00    +0.003 C 
ATOM     10  C   UNL     1      32.734 -23.970 -13.598  0.00  0.00    +0.064 C 
ATOM     11  C   UNL     1      31.842 -23.478 -14.539  0.00  0.00    +0.016 C 
BRANCH   8  12
ATOM     12  N   UNL     1      35.872 -24.063 -15.410  0.00  0.00    -0.303 NA
ATOM     13  H   UNL     1      36.262 -24.963 -15.315  0.00  0.00    +0.121 HD
ATOM     14  H   UNL     1      36.437 -23.308 -15.692  0.00  0.00    +0.121 HD
ENDBRANCH   8  12
BRANCH   6  15
ATOM     15  C   UNL     1      34.917 -24.666 -12.885  0.00  0.00    +0.251 C 
BRANCH  15  16
ATOM     16  O   UNL     1      35.584 -23.574 -12.267  0.00  0.00    -0.250 OA
BRANCH  16  17
ATOM     17  P   UNL     1      37.207 -23.629 -12.083  0.00  0.00    +0.504 P 
ATOM     18  O   UNL     1      37.881 -23.467 -13.428  0.00  0.00    -0.225 OA
ATOM     19  O   UNL     1      37.548 -24.803 -11.191  0.00  0.00    -0.116 OA
BRANCH  17  20
ATOM     20  O   UNL     1      37.426 -22.258 -11.223  0.00  0.00    -0.301 OA
ATOM     21  H   UNL     1      37.811 -21.575 -11.795  0.00  0.00    +0.222 HD
ENDBRANCH  17  20
ENDBRANCH  16  17
ENDBRANCH  15  16
ENDBRANCH   6  15
ENDBRANCH   4   7
BRANCH   3  22
ATOM     22  C   UNL     1      35.730 -21.671 -20.398  0.00  0.00    +0.075 C 
BRANCH  22  23
ATOM     23  C   UNL     1      35.244 -20.258 -20.695  0.00  0.00    -0.016 C 
ATOM     24  C   UNL     1      33.878 -19.979 -20.707  0.00  0.00    -0.004 C 
ATOM     25  C   UNL     1      36.166 -19.243 -20.953  0.00  0.00    -0.004 C 
ATOM     26  C   UNL     1      34.354 -17.671 -21.237  0.00  0.00    +0.021 C 
ATOM     27  C   UNL     1      33.432 -18.686 -20.979  0.00  0.00    -0.001 C 
ATOM     28  C   UNL     1      35.720 -17.950 -21.225  0.00  0.00    -0.001 C 
BRANCH  26  29
ATOM     29  C   UNL     1      33.877 -16.288 -21.525  0.00  0.00    +0.234 C 
BRANCH  29  30
ATOM     30  O   UNL     1      34.763 -15.664 -22.447  0.00  0.00    -0.455 OA
BRANCH  30  32
ATOM     31  N   UNL     1      33.859 -13.863 -23.596  0.00  0.00    -0.210 NA
ATOM     32  C   UNL     1      34.208 -15.169 -23.597  0.00  0.00    +0.225 C 
ATOM     33  C   UNL     1      34.040 -16.016 -24.681  0.00  0.00    +0.058 C 
ATOM     34  C   UNL     1      33.477 -15.488 -25.838  0.00  0.00    +0.006 C 
ATOM     35  C   UNL     1      33.315 -13.385 -24.738  0.00  0.00    +0.102 C 
ATOM     36  C   UNL     1      33.105 -14.149 -25.875  0.00  0.00    +0.021 C 
ENDBRANCH  30  32
ENDBRANCH  29  30
ENDBRANCH  26  29
ENDBRANCH  22  23
ENDBRANCH   3  22
TORSDOF 11
ENDMDL
MODEL 3
REMARK VINA RESULT:     -12.6      4.398      6.049
REMARK  Name = 44123754
REMARK  11 active torsions:
REMARK  status: ('A' for Active; 'I' for Inactive)
REMARK    1  A    between atoms: C_3  and  C_22
REMARK    2  A    between atoms: C_4  and  C_7
REMARK    3  A    between atoms: N_6  and  C_15
REMARK    4  A    between atoms: C_8  and  N_12
REMARK    5  A    between atoms: C_15  and  O_16
REMARK    6  A    between atoms: O_16  and  P_17
REMARK    7  A    between atoms: P_17  and  O_20
REMARK    8  A    between atoms: C_22  and  C_23
REMARK    9  A    between atoms: C_26  and  C_29
REMARK   10  A    between atoms: C_29  and  O_30
REMARK   11  A    between atoms: O_30  and  C_32
REMARK                            x       y       z     vdW  Elec       q    Type
REMARK                         _______ _______ _______ _____ _____    ______ ____
ROOT
ATOM      1  O   UNL     1      33.573 -23.848 -18.597  0.00  0.00    -0.354 OA
ATOM      2  N   UNL     1      34.278 -23.417 -19.714  0.00  0.00    -0.081 NA
ATOM      3  C   UNL     1      35.032 -22.404 -19.278  0.00  0.00    +0.105 C 
ATOM      4  C   UNL     1      33.920 -23.086 -17.527  0.00  0.00    +0.175 C 
ATOM      5  C   UNL     1      34.846 -22.152 -17.908  0.00  0.00    +0.058 C 
ENDROOT
BRANCH   4   7
ATOM      6  N   UNL     1      31.357 -23.456 -14.890  0.00  0.00    -0.266 N 
ATOM      7  C   UNL     1      33.264 -23.419 -16.284  0.00  0.00    +0.048 C 
ATOM      8  C   UNL     1      31.926 -23.129 -16.058  0.00  0.00    +0.156 C 
ATOM      9  C   UNL     1      33.992 -24.050 -15.280  0.00  0.00    +0.003 C 
ATOM     10  C   UNL     1      32.034 -24.063 -13.906  0.00  0.00    +0.064 C 
ATOM     11  C   UNL     1      33.374 -24.377 -14.076  0.00  0.00    +0.016 C 
BRANCH   8  12
ATOM     12  N   UNL     1      31.152 -22.490 -17.050  0.00  0.00    -0.303 NA
ATOM     13  H   UNL     1      31.297 -22.703 -18.001  0.00  0.00    +0.121 HD
ATOM     14  H   UNL     1      30.468 -21.831 -16.792  0.00  0.00    +0.121 HD
ENDBRANCH   8  12
BRANCH   6  15
ATOM     15  C   UNL     1      29.944 -23.149 -14.652  0.00  0.00    +0.251 C 
BRANCH  15  16
ATOM     16  O   UNL     1      29.160 -23.856 -15.603  0.00  0.00    -0.250 OA
BRANCH  16  17
ATOM     17  P   UNL     1      27.964 -23.071 -16.394  0.00  0.00    +0.504 P 
ATOM     18  O   UNL     1      28.534 -21.876 -17.127  0.00  0.00    -0.225 OA
ATOM     19  O   UNL     1      26.793 -22.905 -15.450  0.00  0.00    -0.116 OA
BRANCH  17  20
ATOM     20  O   UNL     1      27.573 -24.216 -17.492  0.00  0.00    -0.301 OA
ATOM     21  H   UNL     1      28.024 -25.045 -17.268  0.00  0.00    +0.222 HD
ENDBRANCH  17  20
ENDBRANCH  16  17
ENDBRANCH  15  16
ENDBRANCH   6  15
ENDBRANCH   4   7
BRANCH   3  22
ATOM     22  C   UNL     1      35.923 -21.696 -20.212  0.00  0.00    +0.075 C 
BRANCH  22  23
ATOM     23  C   UNL     1      35.452 -20.301 -20.604  0.00  0.00    -0.016 C 
ATOM     24  C   UNL     1      36.385 -19.316 -20.926  0.00  0.00    -0.004 C 
ATOM     25  C   UNL     1      34.088 -20.010 -20.643  0.00  0.00    -0.004 C 
ATOM     26  C   UNL     1      34.591 -17.748 -21.323  0.00  0.00    +0.021 C 
ATOM     27  C   UNL     1      35.955 -18.039 -21.285  0.00  0.00    -0.001 C 
ATOM     28  C   UNL     1      33.658 -18.733 -21.002  0.00  0.00    -0.001 C 
BRANCH  26  29
ATOM     29  C   UNL     1      34.131 -16.383 -21.710  0.00  0.00    +0.234 C 
BRANCH  29  30
ATOM     30  O   UNL     1      34.945 -15.892 -22.769  0.00  0.00    -0.455 OA
BRANCH  30  32
ATOM     31  N   UNL     1      33.977 -13.995 -23.689  0.00  0.00    -0.210 NA
ATOM     32  C   UNL     1      34.297 -15.302 -23.822  0.00  0.00    +0.225 C 
ATOM     33  C   UNL     1      34.013 -16.060 -24.946  0.00  0.00    +0.058 C 
ATOM     34  C   UNL     1      33.357 -15.437 -26.002  0.00  0.00    +0.006 C 
ATOM     35  C   UNL     1      33.341 -13.423 -24.737  0.00  0.00    +0.102 C 
ATOM     36  C   UNL     1      33.011 -14.094 -25.904  0.00  0.00    +0.021 C 
ENDBRANCH  30  32
ENDBRANCH  29  30
ENDBRANCH  26  29
ENDBRANCH  22  23
ENDBRANCH   3  22
TORSDOF 11
ENDMDL
MODEL 4
REMARK VINA RESULT:     -12.2      4.070     11.903
REMARK  Name = 44123754
REMARK  11 active torsions:
REMARK  status: ('A' for Active; 'I' for Inactive)
REMARK    1  A    between atoms: C_3  and  C_22
REMARK    2  A    between atoms: C_4  and  C_7
REMARK    3  A    between atoms: N_6  and  C_15
REMARK    4  A    between atoms: C_8  and  N_12
REMARK    5  A    between atoms: C_15  and  O_16
REMARK    6  A    between atoms: O_16  and  P_17
REMARK    7  A    between atoms: P_17  and  O_20
REMARK    8  A    between atoms: C_22  and  C_23
REMARK    9  A    between atoms: C_26  and  C_29
REMARK   10  A    between atoms: C_29  and  O_30
REMARK   11  A    between atoms: O_30  and  C_32
REMARK                            x       y       z     vdW  Elec       q    Type
REMARK                         _______ _______ _______ _____ _____    ______ ____
ROOT
ATOM      1  O   UNL     1      35.811 -17.553 -20.797  0.00  0.00    -0.354 OA
ATOM      2  N   UNL     1      36.301 -18.836 -20.580  0.00  0.00    -0.081 NA
ATOM      3  C   UNL     1      35.319 -19.652 -20.971  0.00  0.00    +0.105 C 
ATOM      4  C   UNL     1      34.555 -17.634 -21.309  0.00  0.00    +0.175 C 
ATOM      5  C   UNL     1      34.195 -18.949 -21.440  0.00  0.00    +0.058 C 
ENDROOT
BRANCH   4   7
ATOM      6  N   UNL     1      33.643 -14.426 -22.903  0.00  0.00    -0.266 N 
ATOM      7  C   UNL     1      33.912 -16.372 -21.589  0.00  0.00    +0.048 C 
ATOM      8  C   UNL     1      34.267 -15.591 -22.680  0.00  0.00    +0.156 C 
ATOM      9  C   UNL     1      32.905 -15.920 -20.741  0.00  0.00    +0.003 C 
ATOM     10  C   UNL     1      32.671 -13.968 -22.103  0.00  0.00    +0.064 C 
ATOM     11  C   UNL     1      32.275 -14.706 -20.997  0.00  0.00    +0.016 C 
BRANCH   8  12
ATOM     12  N   UNL     1      35.283 -16.013 -23.565  0.00  0.00    -0.303 NA
ATOM     13  H   UNL     1      35.803 -16.825 -23.365  0.00  0.00    +0.121 HD
ATOM     14  H   UNL     1      35.471 -15.495 -24.380  0.00  0.00    +0.121 HD
ENDBRANCH   8  12
BRANCH   6  15
ATOM     15  C   UNL     1      34.018 -13.603 -24.056  0.00  0.00    +0.251 C 
BRANCH  15  16
ATOM     16  O   UNL     1      32.981 -13.680 -25.025  0.00  0.00    -0.250 OA
BRANCH  16  17
ATOM     17  P   UNL     1      33.268 -14.439 -26.443  0.00  0.00    +0.504 P 
ATOM     18  O   UNL     1      33.835 -15.817 -26.181  0.00  0.00    -0.225 OA
ATOM     19  O   UNL     1      33.986 -13.477 -27.365  0.00  0.00    -0.116 OA
BRANCH  17  20
ATOM     20  O   UNL     1      31.733 -14.601 -26.976  0.00  0.00    -0.301 OA
ATOM     21  H   UNL     1      31.325 -13.725 -27.060  0.00  0.00    +0.222 HD
ENDBRANCH  17  20
ENDBRANCH  16  17
ENDBRANCH  15  16
ENDBRANCH   6  15
ENDBRANCH   4   7
BRANCH   3  22
ATOM     22  C   UNL     1      35.495 -21.111 -20.880  0.00  0.00    +0.075 C 
BRANCH  22  23
ATOM     23  C   UNL     1      35.283 -21.689 -19.487  0.00  0.00    -0.016 C 
ATOM     24  C   UNL     1      36.318 -21.655 -18.553  0.00  0.00    -0.004 C 
ATOM     25  C   UNL     1      34.053 -22.252 -19.145  0.00  0.00    -0.004 C 
ATOM     26  C   UNL     1      34.895 -22.748 -16.935  0.00  0.00    +0.021 C 
ATOM     27  C   UNL     1      36.125 -22.185 -17.277  0.00  0.00    -0.001 C 
ATOM     28  C   UNL     1      33.860 -22.782 -17.869  0.00  0.00    -0.001 C 
BRANCH  26  29
ATOM     29  C   UNL     1      34.687 -23.312 -15.571  0.00  0.00    +0.234 C 
BRANCH  29  30
ATOM     30  O   UNL     1      35.014 -24.696 -15.576  0.00  0.00    -0.455 OA
BRANCH  30  32
ATOM     31  N   UNL     1      36.687 -26.272 -15.255  0.00  0.00    -0.210 NA
ATOM     32  C   UNL     1      36.176 -25.058 -14.946  0.00  0.00    +0.225 C 
ATOM     33  C   UNL     1      36.754 -24.178 -14.046  0.00  0.00    +0.058 C 
ATOM     34  C   UNL     1      37.934 -24.569 -13.421  0.00  0.00    +0.006 C 
ATOM     35  C   UNL     1      37.834 -26.616 -14.628  0.00  0.00    +0.102 C 
ATOM     36  C   UNL     1      38.491 -25.809 -13.713  0.00  0.00    +0.021 C 
ENDBRANCH  30  32
ENDBRANCH  29  30
ENDBRANCH  26  29
ENDBRANCH  22  23
ENDBRANCH   3  22
TORSDOF 11
ENDMDL
MODEL 5
REMARK VINA RESULT:     -12.1      5.924     12.170
REMARK  Name = 44123754
REMARK  11 active torsions:
REMARK  status: ('A' for Active; 'I' for Inactive)
REMARK    1  A    between atoms: C_3  and  C_22
REMARK    2  A    between atoms: C_4  and  C_7
REMARK    3  A    between atoms: N_6  and  C_15
REMARK    4  A    between atoms: C_8  and  N_12
REMARK    5  A    between atoms: C_15  and  O_16
REMARK    6  A    between atoms: O_16  and  P_17
REMARK    7  A    between atoms: P_17  and  O_20
REMARK    8  A    between atoms: C_22  and  C_23
REMARK    9  A    between atoms: C_26  and  C_29
REMARK   10  A    between atoms: C_29  and  O_30
REMARK   11  A    between atoms: O_30  and  C_32
REMARK                            x       y       z     vdW  Elec       q    Type
REMARK                         _______ _______ _______ _____ _____    ______ ____
ROOT
ATOM      1  O   UNL     1      35.105 -16.764 -21.353  0.00  0.00    -0.354 OA
ATOM      2  N   UNL     1      35.685 -17.749 -20.562  0.00  0.00    -0.081 NA
ATOM      3  C   UNL     1      35.834 -18.800 -21.374  0.00  0.00    +0.105 C 
ATOM      4  C   UNL     1      34.923 -17.247 -22.609  0.00  0.00    +0.175 C 
ATOM      5  C   UNL     1      35.371 -18.539 -22.675  0.00  0.00    +0.058 C 
ENDROOT
BRANCH   4   7
ATOM      6  N   UNL     1      33.272 -14.277 -24.065  0.00  0.00    -0.266 N 
ATOM      7  C   UNL     1      34.325 -16.329 -23.550  0.00  0.00    +0.048 C 
ATOM      8  C   UNL     1      33.818 -15.099 -23.158  0.00  0.00    +0.156 C 
ATOM      9  C   UNL     1      34.252 -16.686 -24.893  0.00  0.00    +0.003 C 
ATOM     10  C   UNL     1      33.189 -14.596 -25.363  0.00  0.00    +0.064 C 
ATOM     11  C   UNL     1      33.679 -15.813 -25.813  0.00  0.00    +0.016 C 
BRANCH   8  12
ATOM     12  N   UNL     1      33.872 -14.698 -21.805  0.00  0.00    -0.303 NA
ATOM     13  H   UNL     1      34.679 -14.879 -21.270  0.00  0.00    +0.121 HD
ATOM     14  H   UNL     1      33.103 -14.238 -21.398  0.00  0.00    +0.121 HD
ENDBRANCH   8  12
BRANCH   6  15
ATOM     15  C   UNL     1      32.738 -12.978 -23.650  0.00  0.00    +0.251 C 
BRANCH  15  16
ATOM     16  O   UNL     1      33.821 -12.075 -23.480  0.00  0.00    -0.250 OA
BRANCH  16  17
ATOM     17  P   UNL     1      33.944 -10.779 -24.467  0.00  0.00    +0.504 P 
ATOM     18  O   UNL     1      32.863  -9.774 -24.130  0.00  0.00    -0.225 OA
ATOM     19  O   UNL     1      34.116 -11.272 -25.887  0.00  0.00    -0.116 OA
BRANCH  17  20
ATOM     20  O   UNL     1      35.379 -10.188 -23.958  0.00  0.00    -0.301 OA
ATOM     21  H   UNL     1      35.728 -10.753 -23.251  0.00  0.00    +0.222 HD
ENDBRANCH  17  20
ENDBRANCH  16  17
ENDBRANCH  15  16
ENDBRANCH   6  15
ENDBRANCH   4   7
BRANCH   3  22
ATOM     22  C   UNL     1      36.430 -20.045 -20.861  0.00  0.00    +0.075 C 
BRANCH  22  23
ATOM     23  C   UNL     1      35.516 -20.858 -19.953  0.00  0.00    -0.016 C 
ATOM     24  C   UNL     1      34.138 -20.858 -20.170  0.00  0.00    -0.004 C 
ATOM     25  C   UNL     1      36.057 -21.602 -18.905  0.00  0.00    -0.004 C 
ATOM     26  C   UNL     1      33.842 -22.347 -18.291  0.00  0.00    +0.021 C 
ATOM     27  C   UNL     1      33.301 -21.602 -19.339  0.00  0.00    -0.001 C 
ATOM     28  C   UNL     1      35.220 -22.346 -18.073  0.00  0.00    -0.001 C 
BRANCH  26  29
ATOM     29  C   UNL     1      32.948 -23.144 -17.404  0.00  0.00    +0.234 C 
BRANCH  29  30
ATOM     30  O   UNL     1      31.681 -22.504 -17.311  0.00  0.00    -0.455 OA
BRANCH  30  32
ATOM     31  N   UNL     1      29.436 -22.921 -16.899  0.00  0.00    -0.210 NA
ATOM     32  C   UNL     1      30.726 -23.131 -16.554  0.00  0.00    +0.225 C 
ATOM     33  C   UNL     1      31.126 -23.933 -15.498  0.00  0.00    +0.058 C 
ATOM     34  C   UNL     1      30.138 -24.559 -14.746  0.00  0.00    +0.006 C 
ATOM     35  C   UNL     1      28.504 -23.547 -16.146  0.00  0.00    +0.102 C 
ATOM     36  C   UNL     1      28.800 -24.368 -15.070  0.00  0.00    +0.021 C 
ENDBRANCH  30  32
ENDBRANCH  29  30
ENDBRANCH  26  29
ENDBRANCH  22  23
ENDBRANCH   3  22
TORSDOF 11
ENDMDL
MODEL 6
REMARK VINA RESULT:     -12.1      5.077     12.878
REMARK  Name = 44123754
REMARK  11 active torsions:
REMARK  status: ('A' for Active; 'I' for Inactive)
REMARK    1  A    between atoms: C_3  and  C_22
REMARK    2  A    between atoms: C_4  and  C_7
REMARK    3  A    between atoms: N_6  and  C_15
REMARK    4  A    between atoms: C_8  and  N_12
REMARK    5  A    between atoms: C_15  and  O_16
REMARK    6  A    between atoms: O_16  and  P_17
REMARK    7  A    between atoms: P_17  and  O_20
REMARK    8  A    between atoms: C_22  and  C_23
REMARK    9  A    between atoms: C_26  and  C_29
REMARK   10  A    between atoms: C_29  and  O_30
REMARK   11  A    between atoms: O_30  and  C_32
REMARK                            x       y       z     vdW  Elec       q    Type
REMARK                         _______ _______ _______ _____ _____    ______ ____
ROOT
ATOM      1  O   UNL     1      33.660 -15.479 -23.664  0.00  0.00    -0.354 OA
ATOM      2  N   UNL     1      34.394 -16.658 -23.736  0.00  0.00    -0.081 NA
ATOM      3  C   UNL     1      34.979 -16.775 -22.541  0.00  0.00    +0.105 C 
ATOM      4  C   UNL     1      33.824 -14.924 -22.435  0.00  0.00    +0.175 C 
ATOM      5  C   UNL     1      34.655 -15.710 -21.681  0.00  0.00    +0.058 C 
ENDROOT
BRANCH   4   7
ATOM      6  N   UNL     1      32.536 -11.483 -22.838  0.00  0.00    -0.266 N 
ATOM      7  C   UNL     1      33.116 -13.685 -22.209  0.00  0.00    +0.048 C 
ATOM      8  C   UNL     1      33.211 -12.614 -23.086  0.00  0.00    +0.156 C 
ATOM      9  C   UNL     1      32.314 -13.559 -21.080  0.00  0.00    +0.003 C 
ATOM     10  C   UNL     1      31.757 -11.334 -21.759  0.00  0.00    +0.064 C 
ATOM     11  C   UNL     1      31.625 -12.371 -20.848  0.00  0.00    +0.016 C 
BRANCH   8  12
ATOM     12  N   UNL     1      34.015 -12.702 -24.243  0.00  0.00    -0.303 NA
ATOM     13  H   UNL     1      34.845 -13.230 -24.227  0.00  0.00    +0.121 HD
ATOM     14  H   UNL     1      33.744 -12.234 -25.066  0.00  0.00    +0.121 HD
ENDBRANCH   8  12
BRANCH   6  15
ATOM     15  C   UNL     1      32.637 -10.352 -23.764  0.00  0.00    +0.251 C 
BRANCH  15  16
ATOM     16  O   UNL     1      33.817  -9.620 -23.461  0.00  0.00    -0.250 OA
BRANCH  16  17
ATOM     17  P   UNL     1      33.716  -8.009 -23.212  0.00  0.00    +0.504 P 
ATOM     18  O   UNL     1      32.611  -7.427 -24.067  0.00  0.00    -0.225 OA
ATOM     19  O   UNL     1      35.112  -7.427 -23.263  0.00  0.00    -0.116 OA
BRANCH  17  20
ATOM     20  O   UNL     1      33.222  -8.009 -21.655  0.00  0.00    -0.301 OA
ATOM     21  H   UNL     1      32.295  -7.729 -21.609  0.00  0.00    +0.222 HD
ENDBRANCH  17  20
ENDBRANCH  16  17
ENDBRANCH  15  16
ENDBRANCH   6  15
ENDBRANCH   4   7
BRANCH   3  22
ATOM     22  C   UNL     1      35.848 -17.928 -22.258  0.00  0.00    +0.075 C 
BRANCH  22  23
ATOM     23  C   UNL     1      35.201 -19.017 -21.411  0.00  0.00    -0.016 C 
ATOM     24  C   UNL     1      35.999 -19.918 -20.706  0.00  0.00    -0.004 C 
ATOM     25  C   UNL     1      33.811 -19.113 -21.341  0.00  0.00    -0.004 C 
ATOM     26  C   UNL     1      34.017 -21.011 -19.860  0.00  0.00    +0.021 C 
ATOM     27  C   UNL     1      35.407 -20.915 -19.931  0.00  0.00    -0.001 C 
ATOM     28  C   UNL     1      33.219 -20.110 -20.566  0.00  0.00    -0.001 C 
BRANCH  26  29
ATOM     29  C   UNL     1      33.385 -22.075 -19.029  0.00  0.00    +0.234 C 
BRANCH  29  30
ATOM     30  O   UNL     1      34.396 -22.799 -18.340  0.00  0.00    -0.455 OA
BRANCH  30  32
ATOM     31  N   UNL     1      35.192 -23.407 -16.246  0.00  0.00    -0.210 NA
ATOM     32  C   UNL     1      34.129 -23.148 -17.042  0.00  0.00    +0.225 C 
ATOM     33  C   UNL     1      32.811 -23.213 -16.621  0.00  0.00    +0.058 C 
ATOM     34  C   UNL     1      32.566 -23.567 -15.299  0.00  0.00    +0.006 C 
ATOM     35  C   UNL     1      34.915 -23.747 -14.967  0.00  0.00    +0.102 C 
ATOM     36  C   UNL     1      33.633 -23.840 -14.449  0.00  0.00    +0.021 C 
ENDBRANCH  30  32
ENDBRANCH  29  30
ENDBRANCH  26  29
ENDBRANCH  22  23
ENDBRANCH   3  22
TORSDOF 11
ENDMDL
MODEL 7
REMARK VINA RESULT:     -12.0      5.761     12.833
REMARK  Name = 44123754
REMARK  11 active torsions:
REMARK  status: ('A' for Active; 'I' for Inactive)
REMARK    1  A    between atoms: C_3  and  C_22
REMARK    2  A    between atoms: C_4  and  C_7
REMARK    3  A    between atoms: N_6  and  C_15
REMARK    4  A    between atoms: C_8  and  N_12
REMARK    5  A    between atoms: C_15  and  O_16
REMARK    6  A    between atoms: O_16  and  P_17
REMARK    7  A    between atoms: P_17  and  O_20
REMARK    8  A    between atoms: C_22  and  C_23
REMARK    9  A    between atoms: C_26  and  C_29
REMARK   10  A    between atoms: C_29  and  O_30
REMARK   11  A    between atoms: O_30  and  C_32
REMARK                            x       y       z     vdW  Elec       q    Type
REMARK                         _______ _______ _______ _____ _____    ______ ____
ROOT
ATOM      1  O   UNL     1      34.380 -14.982 -20.552  0.00  0.00    -0.354 OA
ATOM      2  N   UNL     1      35.008 -16.218 -20.645  0.00  0.00    -0.081 NA
ATOM      3  C   UNL     1      34.688 -16.678 -21.858  0.00  0.00    +0.105 C 
ATOM      4  C   UNL     1      33.705 -14.734 -21.703  0.00  0.00    +0.175 C 
ATOM      5  C   UNL     1      33.869 -15.783 -22.568  0.00  0.00    +0.058 C 
ENDROOT
BRANCH   4   7
ATOM      6  N   UNL     1      32.544 -11.391 -22.771  0.00  0.00    -0.266 N 
ATOM      7  C   UNL     1      32.998 -13.475 -21.755  0.00  0.00    +0.048 C 
ATOM      8  C   UNL     1      33.223 -12.546 -22.761  0.00  0.00    +0.156 C 
ATOM      9  C   UNL     1      32.062 -13.182 -20.769  0.00  0.00    +0.003 C 
ATOM     10  C   UNL     1      31.638 -11.083 -21.834  0.00  0.00    +0.064 C 
ATOM     11  C   UNL     1      31.372 -11.973 -20.805  0.00  0.00    +0.016 C 
BRANCH   8  12
ATOM     12  N   UNL     1      34.164 -12.806 -23.781  0.00  0.00    -0.303 NA
ATOM     13  H   UNL     1      35.053 -12.382 -23.750  0.00  0.00    +0.121 HD
ATOM     14  H   UNL     1      33.932 -13.410 -24.522  0.00  0.00    +0.121 HD
ENDBRANCH   8  12
BRANCH   6  15
ATOM     15  C   UNL     1      32.782 -10.411 -23.834  0.00  0.00    +0.251 C 
BRANCH  15  16
ATOM     16  O   UNL     1      33.862  -9.573 -23.446  0.00  0.00    -0.250 OA
BRANCH  16  17
ATOM     17  P   UNL     1      33.571  -8.005 -23.093  0.00  0.00    +0.504 P 
ATOM     18  O   UNL     1      33.324  -7.851 -21.608  0.00  0.00    -0.225 OA
ATOM     19  O   UNL     1      32.574  -7.465 -24.095  0.00  0.00    -0.116 OA
BRANCH  17  20
ATOM     20  O   UNL     1      35.036  -7.374 -23.444  0.00  0.00    -0.301 OA
ATOM     21  H   UNL     1      34.984  -6.878 -24.276  0.00  0.00    +0.222 HD
ENDBRANCH  17  20
ENDBRANCH  16  17
ENDBRANCH  15  16
ENDBRANCH   6  15
ENDBRANCH   4   7
BRANCH   3  22
ATOM     22  C   UNL     1      35.190 -17.988 -22.303  0.00  0.00    +0.075 C 
BRANCH  22  23
ATOM     23  C   UNL     1      34.870 -19.143 -21.363  0.00  0.00    -0.016 C 
ATOM     24  C   UNL     1      33.542 -19.472 -21.091  0.00  0.00    -0.004 C 
ATOM     25  C   UNL     1      35.904 -19.871 -20.774  0.00  0.00    -0.004 C 
ATOM     26  C   UNL     1      34.283 -21.258 -19.642  0.00  0.00    +0.021 C 
ATOM     27  C   UNL     1      33.248 -20.530 -20.230  0.00  0.00    -0.001 C 
ATOM     28  C   UNL     1      35.610 -20.929 -19.914  0.00  0.00    -0.001 C 
BRANCH  26  29
ATOM     29  C   UNL     1      33.968 -22.390 -18.723  0.00  0.00    +0.234 C 
BRANCH  29  30
ATOM     30  O   UNL     1      32.572 -22.407 -18.454  0.00  0.00    -0.455 OA
BRANCH  30  32
ATOM     31  N   UNL     1      30.879 -22.656 -16.886  0.00  0.00    -0.210 NA
ATOM     32  C   UNL     1      32.190 -22.783 -17.193  0.00  0.00    +0.225 C 
ATOM     33  C   UNL     1      33.149 -23.267 -16.318  0.00  0.00    +0.058 C 
ATOM     34  C   UNL     1      32.736 -23.644 -15.045  0.00  0.00    +0.006 C 
ATOM     35  C   UNL     1      30.516 -23.033 -15.640  0.00  0.00    +0.102 C 
ATOM     36  C   UNL     1      31.396 -23.529 -14.692  0.00  0.00    +0.021 C 
ENDBRANCH  30  32
ENDBRANCH  29  30
ENDBRANCH  26  29
ENDBRANCH  22  23
ENDBRANCH   3  22
TORSDOF 11
ENDMDL
MODEL 8
REMARK VINA RESULT:     -11.9      5.866     12.026
REMARK  Name = 44123754
REMARK  11 active torsions:
REMARK  status: ('A' for Active; 'I' for Inactive)
REMARK    1  A    between atoms: C_3  and  C_22
REMARK    2  A    between atoms: C_4  and  C_7
REMARK    3  A    between atoms: N_6  and  C_15
REMARK    4  A    between atoms: C_8  and  N_12
REMARK    5  A    between atoms: C_15  and  O_16
REMARK    6  A    between atoms: O_16  and  P_17
REMARK    7  A    between atoms: P_17  and  O_20
REMARK    8  A    between atoms: C_22  and  C_23
REMARK    9  A    between atoms: C_26  and  C_29
REMARK   10  A    between atoms: C_29  and  O_30
REMARK   11  A    between atoms: O_30  and  C_32
REMARK                            x       y       z     vdW  Elec       q    Type
REMARK                         _______ _______ _______ _____ _____    ______ ____
ROOT
ATOM      1  O   UNL     1      34.420 -17.709 -23.023  0.00  0.00    -0.354 OA
ATOM      2  N   UNL     1      35.056 -18.912 -22.739  0.00  0.00    -0.081 NA
ATOM      3  C   UNL     1      35.473 -18.794 -21.476  0.00  0.00    +0.105 C 
ATOM      4  C   UNL     1      34.472 -16.906 -21.929  0.00  0.00    +0.175 C 
ATOM      5  C   UNL     1      35.132 -17.550 -20.916  0.00  0.00    +0.058 C 
ENDROOT
BRANCH   4   7
ATOM      6  N   UNL     1      33.478 -13.608 -23.269  0.00  0.00    -0.266 N 
ATOM      7  C   UNL     1      33.848 -15.612 -22.073  0.00  0.00    +0.048 C 
ATOM      8  C   UNL     1      34.079 -14.802 -23.175  0.00  0.00    +0.156 C 
ATOM      9  C   UNL     1      32.987 -15.159 -21.078  0.00  0.00    +0.003 C 
ATOM     10  C   UNL     1      32.645 -13.148 -22.326  0.00  0.00    +0.064 C 
ATOM     11  C   UNL     1      32.377 -13.914 -21.201  0.00  0.00    +0.016 C 
BRANCH   8  12
ATOM     12  N   UNL     1      34.945 -15.224 -24.207  0.00  0.00    -0.303 NA
ATOM     13  H   UNL     1      35.890 -14.948 -24.200  0.00  0.00    +0.121 HD
ATOM     14  H   UNL     1      34.603 -15.794 -24.933  0.00  0.00    +0.121 HD
ENDBRANCH   8  12
BRANCH   6  15
ATOM     15  C   UNL     1      33.722 -12.754 -24.434  0.00  0.00    +0.251 C 
BRANCH  15  16
ATOM     16  O   UNL     1      32.808 -13.114 -25.461  0.00  0.00    -0.250 OA
BRANCH  16  17
ATOM     17  P   UNL     1      33.372 -13.408 -26.966  0.00  0.00    +0.504 P 
ATOM     18  O   UNL     1      33.656 -14.886 -27.126  0.00  0.00    -0.225 OA
ATOM     19  O   UNL     1      34.436 -12.382 -27.288  0.00  0.00    -0.116 OA
BRANCH  17  20
ATOM     20  O   UNL     1      32.035 -13.040 -27.829  0.00  0.00    -0.301 OA
ATOM     21  H   UNL     1      32.290 -12.800 -28.734  0.00  0.00    +0.222 HD
ENDBRANCH  17  20
ENDBRANCH  16  17
ENDBRANCH  15  16
ENDBRANCH   6  15
ENDBRANCH   4   7
BRANCH   3  22
ATOM     22  C   UNL     1      36.199 -19.902 -20.835  0.00  0.00    +0.075 C 
BRANCH  22  23
ATOM     23  C   UNL     1      35.346 -20.779 -19.927  0.00  0.00    -0.016 C 
ATOM     24  C   UNL     1      33.962 -20.810 -20.089  0.00  0.00    -0.004 C 
ATOM     25  C   UNL     1      35.951 -21.551 -18.934  0.00  0.00    -0.004 C 
ATOM     26  C   UNL     1      33.785 -22.385 -18.265  0.00  0.00    +0.021 C 
ATOM     27  C   UNL     1      33.180 -21.612 -19.258  0.00  0.00    -0.001 C 
ATOM     28  C   UNL     1      35.170 -22.353 -18.103  0.00  0.00    -0.001 C 
BRANCH  26  29
ATOM     29  C   UNL     1      32.950 -23.244 -17.378  0.00  0.00    +0.234 C 
BRANCH  29  30
ATOM     30  O   UNL     1      31.704 -22.603 -17.134  0.00  0.00    -0.455 OA
BRANCH  30  32
ATOM     31  N   UNL     1      29.483 -23.178 -16.784  0.00  0.00    -0.210 NA
ATOM     32  C   UNL     1      30.777 -23.308 -16.412  0.00  0.00    +0.225 C 
ATOM     33  C   UNL     1      31.207 -24.103 -15.362  0.00  0.00    +0.058 C 
ATOM     34  C   UNL     1      30.247 -24.810 -14.646  0.00  0.00    +0.006 C 
ATOM     35  C   UNL     1      28.579 -23.881 -16.065  0.00  0.00    +0.102 C 
ATOM     36  C   UNL     1      28.906 -24.703 -14.998  0.00  0.00    +0.021 C 
ENDBRANCH  30  32
ENDBRANCH  29  30
ENDBRANCH  26  29
ENDBRANCH  22  23
ENDBRANCH   3  22
TORSDOF 11
ENDMDL
MODEL 9
REMARK VINA RESULT:     -11.8      3.690      7.034
REMARK  Name = 44123754
REMARK  11 active torsions:
REMARK  status: ('A' for Active; 'I' for Inactive)
REMARK    1  A    between atoms: C_3  and  C_22
REMARK    2  A    between atoms: C_4  and  C_7
REMARK    3  A    between atoms: N_6  and  C_15
REMARK    4  A    between atoms: C_8  and  N_12
REMARK    5  A    between atoms: C_15  and  O_16
REMARK    6  A    between atoms: O_16  and  P_17
REMARK    7  A    between atoms: P_17  and  O_20
REMARK    8  A    between atoms: C_22  and  C_23
REMARK    9  A    between atoms: C_26  and  C_29
REMARK   10  A    between atoms: C_29  and  O_30
REMARK   11  A    between atoms: O_30  and  C_32
REMARK                            x       y       z     vdW  Elec       q    Type
REMARK                         _______ _______ _______ _____ _____    ______ ____
ROOT
ATOM      1  O   UNL     1      34.477 -19.084 -23.039  0.00  0.00    -0.354 OA
ATOM      2  N   UNL     1      34.626 -17.950 -23.829  0.00  0.00    -0.081 NA
ATOM      3  C   UNL     1      34.769 -16.942 -22.964  0.00  0.00    +0.105 C 
ATOM      4  C   UNL     1      34.534 -18.728 -21.729  0.00  0.00    +0.175 C 
ATOM      5  C   UNL     1      34.719 -17.375 -21.627  0.00  0.00    +0.058 C 
ENDROOT
BRANCH   4   7
ATOM      6  N   UNL     1      35.298 -21.303 -19.190  0.00  0.00    -0.266 N 
ATOM      7  C   UNL     1      34.394 -19.809 -20.781  0.00  0.00    +0.048 C 
ATOM      8  C   UNL     1      35.473 -20.299 -20.060  0.00  0.00    +0.156 C 
ATOM      9  C   UNL     1      33.140 -20.379 -20.583  0.00  0.00    +0.003 C 
ATOM     10  C   UNL     1      34.102 -21.870 -18.979  0.00  0.00    +0.064 C 
ATOM     11  C   UNL     1      32.988 -21.421 -19.673  0.00  0.00    +0.016 C 
BRANCH   8  12
ATOM     12  N   UNL     1      36.761 -19.749 -20.232  0.00  0.00    -0.303 NA
ATOM     13  H   UNL     1      37.501 -20.317 -20.547  0.00  0.00    +0.121 HD
ATOM     14  H   UNL     1      36.919 -18.797 -20.037  0.00  0.00    +0.121 HD
ENDBRANCH   8  12
BRANCH   6  15
ATOM     15  C   UNL     1      36.438 -21.820 -18.428  0.00  0.00    +0.251 C 
BRANCH  15  16
ATOM     16  O   UNL     1      35.963 -22.786 -17.500  0.00  0.00    -0.250 OA
BRANCH  16  17
ATOM     17  P   UNL     1      36.473 -22.722 -15.949  0.00  0.00    +0.504 P 
ATOM     18  O   UNL     1      35.300 -22.437 -15.036  0.00  0.00    -0.225 OA
ATOM     19  O   UNL     1      37.718 -21.864 -15.888  0.00  0.00    -0.116 OA
BRANCH  17  20
ATOM     20  O   UNL     1      36.920 -24.280 -15.749  0.00  0.00    -0.301 OA
ATOM     21  H   UNL     1      37.156 -24.662 -16.610  0.00  0.00    +0.222 HD
ENDBRANCH  17  20
ENDBRANCH  16  17
ENDBRANCH  15  16
ENDBRANCH   6  15
ENDBRANCH   4   7
BRANCH   3  22
ATOM     22  C   UNL     1      34.952 -15.569 -23.460  0.00  0.00    +0.075 C 
BRANCH  22  23
ATOM     23  C   UNL     1      33.962 -14.555 -22.901  0.00  0.00    -0.016 C 
ATOM     24  C   UNL     1      33.400 -14.752 -21.640  0.00  0.00    -0.004 C 
ATOM     25  C   UNL     1      33.618 -13.429 -23.650  0.00  0.00    -0.004 C 
ATOM     26  C   UNL     1      32.150 -12.698 -21.876  0.00  0.00    +0.021 C 
ATOM     27  C   UNL     1      32.493 -13.824 -21.127  0.00  0.00    -0.001 C 
ATOM     28  C   UNL     1      32.712 -12.501 -23.137  0.00  0.00    -0.001 C 
BRANCH  26  29
ATOM     29  C   UNL     1      31.182 -11.705 -21.327  0.00  0.00    +0.234 C 
BRANCH  29  30
ATOM     30  O   UNL     1      31.849 -10.861 -20.397  0.00  0.00    -0.455 OA
BRANCH  30  32
ATOM     31  N   UNL     1      32.344  -8.685 -19.759  0.00  0.00    -0.210 NA
ATOM     32  C   UNL     1      31.970  -9.539 -20.738  0.00  0.00    +0.225 C 
ATOM     33  C   UNL     1      31.709  -9.157 -22.044  0.00  0.00    +0.058 C 
ATOM     34  C   UNL     1      31.840  -7.810 -22.366  0.00  0.00    +0.006 C 
ATOM     35  C   UNL     1      32.462  -7.385 -20.110  0.00  0.00    +0.102 C 
ATOM     36  C   UNL     1      32.224  -6.901 -21.387  0.00  0.00    +0.021 C 
ENDBRANCH  30  32
ENDBRANCH  29  30
ENDBRANCH  26  29
ENDBRANCH  22  23
ENDBRANCH   3  22
TORSDOF 11
ENDMDL
