MODEL 1
REMARK VINA RESULT:     -11.0      0.000      0.000
REMARK  Name = 10479502
REMARK  5 active torsions:
REMARK  status: ('A' for Active; 'I' for Inactive)
REMARK    1  A    between atoms: C_2  and  S_22
REMARK    2  A    between atoms: C_3  and  O_33
REMARK    3  A    between atoms: C_5  and  N_9
REMARK    4  A    between atoms: N_10  and  C_16
REMARK    5  A    between atoms: S_22  and  N_25
REMARK                            x       y       z     vdW  Elec       q    Type
REMARK                         _______ _______ _______ _____ _____    ______ ____
ROOT
ATOM      1 CL   UNL     1      33.610 -24.312 -15.081  0.00  0.00    -0.081 Cl
ATOM      2  C   UNL     1      35.406 -22.754 -16.435  0.00  0.00    +0.167 C 
ATOM      3  C   UNL     1      35.831 -22.037 -17.549  0.00  0.00    +0.167 C 
ATOM      4  C   UNL     1      34.181 -23.410 -16.440  0.00  0.00    +0.079 C 
ATOM      5  C   UNL     1      35.019 -21.977 -18.682  0.00  0.00    +0.087 C 
ATOM      6  C   UNL     1      33.369 -23.350 -17.573  0.00  0.00    +0.014 C 
ATOM      7  C   UNL     1      33.788 -22.634 -18.694  0.00  0.00    +0.019 C 
ENDROOT
BRANCH   5   9
ATOM      8  O   UNL     1      33.519 -20.018 -20.364  0.00  0.00    -0.252 OA
ATOM      9  N   UNL     1      35.424 -21.265 -19.814  0.00  0.00    -0.266 N 
ATOM     10  N   UNL     1      35.472 -19.856 -21.641  0.00  0.00    -0.267 N 
ATOM     11  C   UNL     1      34.681 -20.341 -20.587  0.00  0.00    +0.308 C 
ATOM     12  H   UNL     1      36.347 -21.427 -20.113  0.00  0.00    +0.157 HD
ATOM     13  H   UNL     1      36.389 -20.210 -21.692  0.00  0.00    +0.156 HD
BRANCH  10  16
ATOM     14 CL   UNL     1      35.234 -16.966 -20.741  0.00  0.00    -0.079 Cl
ATOM     15  F   UNL     1      34.483 -15.370 -23.087  0.00  0.00    -0.203 F 
ATOM     16  C   UNL     1      35.113 -18.920 -22.640  0.00  0.00    +0.064 C 
ATOM     17  C   UNL     1      34.977 -17.574 -22.339  0.00  0.00    +0.098 C 
ATOM     18  C   UNL     1      34.903 -19.393 -23.927  0.00  0.00    +0.016 C 
ATOM     19  C   UNL     1      34.623 -16.678 -23.347  0.00  0.00    +0.152 C 
ATOM     20  C   UNL     1      34.550 -18.497 -24.936  0.00  0.00    +0.004 C 
ATOM     21  C   UNL     1      34.409 -17.140 -24.646  0.00  0.00    +0.031 C 
ENDBRANCH  10  16
ENDBRANCH   5   9
BRANCH   2  22
ATOM     22  S   UNL     1      36.455 -22.812 -15.016  0.00  0.00    +0.067 S 
ATOM     23  O   UNL     1      37.515 -21.846 -15.211  0.00  0.00    -0.153 OA
ATOM     24  O   UNL     1      35.615 -22.770 -13.839  0.00  0.00    -0.153 OA
BRANCH  22  25
ATOM     25  N   UNL     1      37.098 -24.390 -15.185  0.00  0.00    -0.160 NA
ATOM     26  N   UNL     1      38.058 -27.053 -14.688  0.00  0.00    +0.386 N 
ATOM     27  C   UNL     1      38.420 -24.617 -14.530  0.00  0.00    +0.072 C 
ATOM     28  C   UNL     1      36.149 -25.505 -14.899  0.00  0.00    +0.072 C 
ATOM     29  C   UNL     1      38.987 -25.960 -14.981  0.00  0.00    -0.062 C 
ATOM     30  C   UNL     1      36.768 -26.827 -15.342  0.00  0.00    -0.062 C 
ATOM     31  H   UNL     1      37.916 -27.111 -13.680  0.00  0.00    -0.084 HD
ATOM     32  H   UNL     1      38.455 -27.924 -15.041  0.00  0.00    -0.084 HD
ENDBRANCH  22  25
ENDBRANCH   2  22
BRANCH   3  33
ATOM     33  O   UNL     1      37.034 -21.394 -17.545  0.00  0.00    -0.503 OA
ATOM     34  H   UNL     1      37.766 -21.766 -17.997  0.00  0.00    +0.292 HD
ENDBRANCH   3  33
TORSDOF 5
ENDMDL
MODEL 2
REMARK VINA RESULT:     -10.7      8.362     14.032
REMARK  Name = 10479502
REMARK  5 active torsions:
REMARK  status: ('A' for Active; 'I' for Inactive)
REMARK    1  A    between atoms: C_2  and  S_22
REMARK    2  A    between atoms: C_3  and  O_33
REMARK    3  A    between atoms: C_5  and  N_9
REMARK    4  A    between atoms: N_10  and  C_16
REMARK    5  A    between atoms: S_22  and  N_25
REMARK                            x       y       z     vdW  Elec       q    Type
REMARK                         _______ _______ _______ _____ _____    ______ ____
ROOT
ATOM      1 CL   UNL     1      34.332  -7.269 -23.622  0.00  0.00    -0.081 Cl
ATOM      2  C   UNL     1      33.136  -9.653 -23.012  0.00  0.00    +0.167 C 
ATOM      3  C   UNL     1      32.962 -11.025 -23.161  0.00  0.00    +0.167 C 
ATOM      4  C   UNL     1      34.079  -8.971 -23.772  0.00  0.00    +0.079 C 
ATOM      5  C   UNL     1      33.742 -11.723 -24.082  0.00  0.00    +0.087 C 
ATOM      6  C   UNL     1      34.859  -9.670 -24.694  0.00  0.00    +0.014 C 
ATOM      7  C   UNL     1      34.691 -11.046 -24.850  0.00  0.00    +0.019 C 
ENDROOT
BRANCH   5   9
ATOM      8  O   UNL     1      34.982 -14.001 -22.601  0.00  0.00    -0.252 OA
ATOM      9  N   UNL     1      33.586 -13.101 -24.252  0.00  0.00    -0.266 N 
ATOM     10  N   UNL     1      33.757 -15.392 -24.027  0.00  0.00    -0.267 N 
ATOM     11  C   UNL     1      34.193 -14.154 -23.527  0.00  0.00    +0.308 C 
ATOM     12  H   UNL     1      32.973 -13.376 -24.971  0.00  0.00    +0.157 HD
ATOM     13  H   UNL     1      33.121 -15.355 -24.777  0.00  0.00    +0.156 HD
BRANCH  10  16
ATOM     14 CL   UNL     1      33.144 -16.034 -21.124  0.00  0.00    -0.079 Cl
ATOM     15  F   UNL     1      34.042 -18.782 -20.620  0.00  0.00    -0.203 F 
ATOM     16  C   UNL     1      34.121 -16.686 -23.586  0.00  0.00    +0.064 C 
ATOM     17  C   UNL     1      33.887 -17.085 -22.279  0.00  0.00    +0.098 C 
ATOM     18  C   UNL     1      34.718 -17.541 -24.501  0.00  0.00    +0.016 C 
ATOM     19  C   UNL     1      34.256 -18.368 -21.877  0.00  0.00    +0.152 C 
ATOM     20  C   UNL     1      35.087 -18.824 -24.099  0.00  0.00    +0.004 C 
ATOM     21  C   UNL     1      34.856 -19.237 -22.787  0.00  0.00    +0.031 C 
ENDBRANCH  10  16
ENDBRANCH   5   9
BRANCH   2  22
ATOM     22  S   UNL     1      32.135  -8.796 -21.837  0.00  0.00    +0.067 S 
ATOM     23  O   UNL     1      30.890  -9.523 -21.704  0.00  0.00    -0.153 OA
ATOM     24  O   UNL     1      32.955  -8.503 -20.682  0.00  0.00    -0.153 OA
BRANCH  22  25
ATOM     25  N   UNL     1      31.844  -7.342 -22.696  0.00  0.00    -0.160 NA
ATOM     26  N   UNL     1      30.636  -4.994 -23.828  0.00  0.00    +0.386 N 
ATOM     27  C   UNL     1      30.881  -7.449 -23.831  0.00  0.00    +0.072 C 
ATOM     28  C   UNL     1      31.564  -6.144 -21.853  0.00  0.00    +0.072 C 
ATOM     29  C   UNL     1      30.923  -6.167 -24.656  0.00  0.00    -0.062 C 
ATOM     30  C   UNL     1      31.591  -4.892 -22.723  0.00  0.00    -0.062 C 
ATOM     31  H   UNL     1      29.693  -5.075 -23.448  0.00  0.00    -0.084 HD
ATOM     32  H   UNL     1      30.715  -4.157 -24.407  0.00  0.00    -0.084 HD
ENDBRANCH  22  25
ENDBRANCH   2  22
BRANCH   3  33
ATOM     33  O   UNL     1      32.035 -11.694 -22.416  0.00  0.00    -0.503 OA
ATOM     34  H   UNL     1      31.245 -11.264 -22.154  0.00  0.00    +0.292 HD
ENDBRANCH   3  33
TORSDOF 5
ENDMDL
MODEL 3
REMARK VINA RESULT:      -9.8      1.752      2.202
REMARK  Name = 10479502
REMARK  5 active torsions:
REMARK  status: ('A' for Active; 'I' for Inactive)
REMARK    1  A    between atoms: C_2  and  S_22
REMARK    2  A    between atoms: C_3  and  O_33
REMARK    3  A    between atoms: C_5  and  N_9
REMARK    4  A    between atoms: N_10  and  C_16
REMARK    5  A    between atoms: S_22  and  N_25
REMARK                            x       y       z     vdW  Elec       q    Type
REMARK                         _______ _______ _______ _____ _____    ______ ____
ROOT
ATOM      1 CL   UNL     1      37.563 -23.123 -14.869  0.00  0.00    -0.081 Cl
ATOM      2  C   UNL     1      35.421 -22.801 -16.540  0.00  0.00    +0.167 C 
ATOM      3  C   UNL     1      34.810 -22.313 -17.690  0.00  0.00    +0.167 C 
ATOM      4  C   UNL     1      36.762 -22.537 -16.283  0.00  0.00    +0.079 C 
ATOM      5  C   UNL     1      35.551 -21.551 -18.595  0.00  0.00    +0.087 C 
ATOM      6  C   UNL     1      37.502 -21.776 -17.187  0.00  0.00    +0.014 C 
ATOM      7  C   UNL     1      36.897 -21.283 -18.343  0.00  0.00    +0.019 C 
ENDROOT
BRANCH   5   9
ATOM      8  O   UNL     1      36.465 -19.390 -20.441  0.00  0.00    -0.252 OA
ATOM      9  N   UNL     1      34.961 -21.049 -19.757  0.00  0.00    -0.266 N 
ATOM     10  N   UNL     1      34.523 -19.830 -21.668  0.00  0.00    -0.267 N 
ATOM     11  C   UNL     1      35.426 -20.019 -20.609  0.00  0.00    +0.308 C 
ATOM     12  H   UNL     1      34.108 -21.466 -20.018  0.00  0.00    +0.157 HD
ATOM     13  H   UNL     1      33.730 -20.413 -21.669  0.00  0.00    +0.156 HD
BRANCH  10  16
ATOM     14 CL   UNL     1      34.576 -16.896 -20.890  0.00  0.00    -0.079 Cl
ATOM     15  F   UNL     1      34.768 -15.330 -23.365  0.00  0.00    -0.203 F 
ATOM     16  C   UNL     1      34.613 -18.904 -22.735  0.00  0.00    +0.064 C 
ATOM     17  C   UNL     1      34.645 -17.540 -22.492  0.00  0.00    +0.098 C 
ATOM     18  C   UNL     1      34.670 -19.406 -24.027  0.00  0.00    +0.016 C 
ATOM     19  C   UNL     1      34.736 -16.655 -23.566  0.00  0.00    +0.152 C 
ATOM     20  C   UNL     1      34.761 -18.522 -25.100  0.00  0.00    +0.004 C 
ATOM     21  C   UNL     1      34.794 -17.146 -24.870  0.00  0.00    +0.031 C 
ENDBRANCH  10  16
ENDBRANCH   5   9
BRANCH   2  22
ATOM     22  S   UNL     1      34.459 -23.762 -15.414  0.00  0.00    +0.067 S 
ATOM     23  O   UNL     1      33.969 -22.873 -14.382  0.00  0.00    -0.153 OA
ATOM     24  O   UNL     1      33.549 -24.577 -16.189  0.00  0.00    -0.153 OA
BRANCH  22  25
ATOM     25  N   UNL     1      35.681 -24.764 -14.756  0.00  0.00    -0.160 NA
ATOM     26  N   UNL     1      37.116 -26.912 -13.494  0.00  0.00    +0.386 N 
ATOM     27  C   UNL     1      35.626 -24.956 -13.277  0.00  0.00    +0.072 C 
ATOM     28  C   UNL     1      35.903 -26.057 -15.466  0.00  0.00    +0.072 C 
ATOM     29  C   UNL     1      36.907 -25.637 -12.804  0.00  0.00    -0.062 C 
ATOM     30  C   UNL     1      37.178 -26.713 -14.944  0.00  0.00    -0.062 C 
ATOM     31  H   UNL     1      36.343 -27.541 -13.276  0.00  0.00    -0.084 HD
ATOM     32  H   UNL     1      37.999 -27.313 -13.181  0.00  0.00    -0.084 HD
ENDBRANCH  22  25
ENDBRANCH   2  22
BRANCH   3  33
ATOM     33  O   UNL     1      33.494 -22.570 -17.943  0.00  0.00    -0.503 OA
ATOM     34  H   UNL     1      32.908 -22.752 -17.235  0.00  0.00    +0.292 HD
ENDBRANCH   3  33
TORSDOF 5
ENDMDL
MODEL 4
REMARK VINA RESULT:      -9.5      4.751      9.476
REMARK  Name = 10479502
REMARK  5 active torsions:
REMARK  status: ('A' for Active; 'I' for Inactive)
REMARK    1  A    between atoms: C_2  and  S_22
REMARK    2  A    between atoms: C_3  and  O_33
REMARK    3  A    between atoms: C_5  and  N_9
REMARK    4  A    between atoms: N_10  and  C_16
REMARK    5  A    between atoms: S_22  and  N_25
REMARK                            x       y       z     vdW  Elec       q    Type
REMARK                         _______ _______ _______ _____ _____    ______ ____
ROOT
ATOM      1 CL   UNL     1      37.757 -19.290 -21.602  0.00  0.00    -0.081 Cl
ATOM      2  C   UNL     1      35.071 -19.710 -21.286  0.00  0.00    +0.167 C 
ATOM      3  C   UNL     1      33.972 -20.263 -20.638  0.00  0.00    +0.167 C 
ATOM      4  C   UNL     1      36.362 -19.956 -20.831  0.00  0.00    +0.079 C 
ATOM      5  C   UNL     1      34.167 -21.073 -19.519  0.00  0.00    +0.087 C 
ATOM      6  C   UNL     1      36.556 -20.766 -19.712  0.00  0.00    +0.014 C 
ATOM      7  C   UNL     1      35.460 -21.325 -19.056  0.00  0.00    +0.019 C 
ENDROOT
BRANCH   5   9
ATOM      8  O   UNL     1      34.084 -22.730 -17.035  0.00  0.00    -0.252 OA
ATOM      9  N   UNL     1      33.080 -21.642 -18.850  0.00  0.00    -0.266 N 
ATOM     10  N   UNL     1      31.766 -22.793 -17.342  0.00  0.00    -0.267 N 
ATOM     11  C   UNL     1      33.081 -22.424 -17.671  0.00  0.00    +0.308 C 
ATOM     12  H   UNL     1      32.197 -21.477 -19.253  0.00  0.00    +0.157 HD
ATOM     13  H   UNL     1      31.062 -22.472 -17.950  0.00  0.00    +0.156 HD
BRANCH  10  16
ATOM     14 CL   UNL     1      28.794 -23.403 -17.235  0.00  0.00    -0.079 Cl
ATOM     15  F   UNL     1      28.311 -25.020 -14.834  0.00  0.00    -0.203 F 
ATOM     16  C   UNL     1      31.329 -23.572 -16.244  0.00  0.00    +0.064 C 
ATOM     17  C   UNL     1      29.993 -23.909 -16.097  0.00  0.00    +0.098 C 
ATOM     18  C   UNL     1      32.280 -23.985 -15.322  0.00  0.00    +0.016 C 
ATOM     19  C   UNL     1      29.596 -24.678 -15.004  0.00  0.00    +0.152 C 
ATOM     20  C   UNL     1      31.883 -24.755 -14.229  0.00  0.00    +0.004 C 
ATOM     21  C   UNL     1      30.542 -25.101 -14.070  0.00  0.00    +0.031 C 
ENDBRANCH  10  16
ENDBRANCH   5   9
BRANCH   2  22
ATOM     22  S   UNL     1      34.794 -18.688 -22.699  0.00  0.00    +0.067 S 
ATOM     23  O   UNL     1      36.079 -18.412 -23.304  0.00  0.00    -0.153 OA
ATOM     24  O   UNL     1      33.718 -19.274 -23.468  0.00  0.00    -0.153 OA
BRANCH  22  25
ATOM     25  N   UNL     1      34.220 -17.268 -21.933  0.00  0.00    -0.160 NA
ATOM     26  N   UNL     1      33.891 -14.570 -20.997  0.00  0.00    +0.386 N 
ATOM     27  C   UNL     1      35.099 -16.718 -20.859  0.00  0.00    +0.072 C 
ATOM     28  C   UNL     1      33.741 -16.193 -22.850  0.00  0.00    +0.072 C 
ATOM     29  C   UNL     1      34.349 -15.630 -20.096  0.00  0.00    -0.062 C 
ATOM     30  C   UNL     1      33.023 -15.117 -22.041  0.00  0.00    -0.062 C 
ATOM     31  H   UNL     1      34.701 -14.128 -21.433  0.00  0.00    -0.084 HD
ATOM     32  H   UNL     1      33.362 -13.887 -20.456  0.00  0.00    -0.084 HD
ENDBRANCH  22  25
ENDBRANCH   2  22
BRANCH   3  33
ATOM     33  O   UNL     1      32.706 -20.023 -21.085  0.00  0.00    -0.503 OA
ATOM     34  H   UNL     1      31.997 -19.963 -20.476  0.00  0.00    +0.292 HD
ENDBRANCH   3  33
TORSDOF 5
ENDMDL
MODEL 5
REMARK VINA RESULT:      -9.3      6.719     12.241
REMARK  Name = 10479502
REMARK  5 active torsions:
REMARK  status: ('A' for Active; 'I' for Inactive)
REMARK    1  A    between atoms: C_2  and  S_22
REMARK    2  A    between atoms: C_3  and  O_33
REMARK    3  A    between atoms: C_5  and  N_9
REMARK    4  A    between atoms: N_10  and  C_16
REMARK    5  A    between atoms: S_22  and  N_25
REMARK                            x       y       z     vdW  Elec       q    Type
REMARK                         _______ _______ _______ _____ _____    ______ ____
ROOT
ATOM      1 CL   UNL     1      32.886  -9.929 -23.796  0.00  0.00    -0.081 Cl
ATOM      2  C   UNL     1      32.483 -12.268 -22.436  0.00  0.00    +0.167 C 
ATOM      3  C   UNL     1      32.669 -13.632 -22.235  0.00  0.00    +0.167 C 
ATOM      4  C   UNL     1      33.088 -11.620 -23.506  0.00  0.00    +0.079 C 
ATOM      5  C   UNL     1      33.472 -14.356 -23.116  0.00  0.00    +0.087 C 
ATOM      6  C   UNL     1      33.891 -12.344 -24.387  0.00  0.00    +0.014 C 
ATOM      7  C   UNL     1      34.084 -13.712 -24.193  0.00  0.00    +0.019 C 
ENDROOT
BRANCH   5   9
ATOM      8  O   UNL     1      34.998 -15.819 -21.006  0.00  0.00    -0.252 OA
ATOM      9  N   UNL     1      33.675 -15.726 -22.936  0.00  0.00    -0.266 N 
ATOM     10  N   UNL     1      34.354 -17.774 -22.117  0.00  0.00    -0.267 N 
ATOM     11  C   UNL     1      34.407 -16.385 -21.920  0.00  0.00    +0.308 C 
ATOM     12  H   UNL     1      33.253 -16.312 -23.606  0.00  0.00    +0.157 HD
ATOM     13  H   UNL     1      33.840 -18.081 -22.898  0.00  0.00    +0.156 HD
BRANCH  10  16
ATOM     14 CL   UNL     1      32.456 -19.798 -20.885  0.00  0.00    -0.079 Cl
ATOM     15  F   UNL     1      34.075 -21.707 -19.352  0.00  0.00    -0.203 F 
ATOM     16  C   UNL     1      34.950 -18.789 -21.330  0.00  0.00    +0.064 C 
ATOM     17  C   UNL     1      34.177 -19.764 -20.721  0.00  0.00    +0.098 C 
ATOM     18  C   UNL     1      36.330 -18.775 -21.190  0.00  0.00    +0.016 C 
ATOM     19  C   UNL     1      34.796 -20.750 -19.954  0.00  0.00    +0.152 C 
ATOM     20  C   UNL     1      36.950 -19.761 -20.423  0.00  0.00    +0.004 C 
ATOM     21  C   UNL     1      36.183 -20.748 -19.805  0.00  0.00    +0.031 C 
ENDBRANCH  10  16
ENDBRANCH   5   9
BRANCH   2  22
ATOM     22  S   UNL     1      31.461 -11.378 -21.304  0.00  0.00    +0.067 S 
ATOM     23  O   UNL     1      30.083 -11.586 -21.695  0.00  0.00    -0.153 OA
ATOM     24  O   UNL     1      31.909 -11.684 -19.963  0.00  0.00    -0.153 OA
BRANCH  22  25
ATOM     25  N   UNL     1      31.915  -9.773 -21.690  0.00  0.00    -0.160 NA
ATOM     26  N   UNL     1      32.082  -6.908 -21.848  0.00  0.00    +0.386 N 
ATOM     27  C   UNL     1      30.908  -8.989 -22.464  0.00  0.00    +0.072 C 
ATOM     28  C   UNL     1      32.476  -8.976 -20.561  0.00  0.00    +0.072 C 
ATOM     29  C   UNL     1      31.544  -7.694 -22.960  0.00  0.00    -0.062 C 
ATOM     30  C   UNL     1      33.076  -7.681 -21.100  0.00  0.00    -0.062 C 
ATOM     31  H   UNL     1      31.321  -6.648 -21.221  0.00  0.00    -0.084 HD
ATOM     32  H   UNL     1      32.533  -6.074 -22.225  0.00  0.00    -0.084 HD
ENDBRANCH  22  25
ENDBRANCH   2  22
BRANCH   3  33
ATOM     33  O   UNL     1      32.074 -14.269 -21.185  0.00  0.00    -0.503 OA
ATOM     34  H   UNL     1      31.411 -14.913 -21.342  0.00  0.00    +0.292 HD
ENDBRANCH   3  33
TORSDOF 5
ENDMDL
MODEL 6
REMARK VINA RESULT:      -9.2      8.375     12.722
REMARK  Name = 10479502
REMARK  5 active torsions:
REMARK  status: ('A' for Active; 'I' for Inactive)
REMARK    1  A    between atoms: C_2  and  S_22
REMARK    2  A    between atoms: C_3  and  O_33
REMARK    3  A    between atoms: C_5  and  N_9
REMARK    4  A    between atoms: N_10  and  C_16
REMARK    5  A    between atoms: S_22  and  N_25
REMARK                            x       y       z     vdW  Elec       q    Type
REMARK                         _______ _______ _______ _____ _____    ______ ____
ROOT
ATOM      1 CL   UNL     1      34.416  -7.238 -24.009  0.00  0.00    -0.081 Cl
ATOM      2  C   UNL     1      33.120  -9.598 -23.523  0.00  0.00    +0.167 C 
ATOM      3  C   UNL     1      32.967 -10.975 -23.648  0.00  0.00    +0.167 C 
ATOM      4  C   UNL     1      34.184  -8.945 -24.136  0.00  0.00    +0.079 C 
ATOM      5  C   UNL     1      33.890 -11.707 -24.394  0.00  0.00    +0.087 C 
ATOM      6  C   UNL     1      35.107  -9.678 -24.882  0.00  0.00    +0.014 C 
ATOM      7  C   UNL     1      34.960 -11.059 -25.012  0.00  0.00    +0.019 C 
ENDROOT
BRANCH   5   9
ATOM      8  O   UNL     1      34.967 -13.928 -22.713  0.00  0.00    -0.252 OA
ATOM      9  N   UNL     1      33.758 -13.091 -24.536  0.00  0.00    -0.266 N 
ATOM     10  N   UNL     1      33.911 -15.372 -24.220  0.00  0.00    -0.267 N 
ATOM     11  C   UNL     1      34.285 -14.116 -23.715  0.00  0.00    +0.308 C 
ATOM     12  H   UNL     1      33.228 -13.393 -25.309  0.00  0.00    +0.157 HD
ATOM     13  H   UNL     1      33.361 -15.363 -25.036  0.00  0.00    +0.156 HD
BRANCH  10  16
ATOM     14 CL   UNL     1      33.105 -15.878 -21.337  0.00  0.00    -0.079 Cl
ATOM     15  F   UNL     1      33.932 -18.611 -20.657  0.00  0.00    -0.203 F 
ATOM     16  C   UNL     1      34.228 -16.649 -23.700  0.00  0.00    +0.064 C 
ATOM     17  C   UNL     1      33.905 -16.987 -22.395  0.00  0.00    +0.098 C 
ATOM     18  C   UNL     1      34.871 -17.550 -24.537  0.00  0.00    +0.016 C 
ATOM     19  C   UNL     1      34.230 -18.255 -21.914  0.00  0.00    +0.152 C 
ATOM     20  C   UNL     1      35.196 -18.818 -24.056  0.00  0.00    +0.004 C 
ATOM     21  C   UNL     1      34.877 -19.170 -22.745  0.00  0.00    +0.031 C 
ENDBRANCH  10  16
ENDBRANCH   5   9
BRANCH   2  22
ATOM     22  S   UNL     1      31.937  -8.698 -22.572  0.00  0.00    +0.067 S 
ATOM     23  O   UNL     1      32.474  -7.375 -22.335  0.00  0.00    -0.153 OA
ATOM     24  O   UNL     1      30.640  -8.876 -23.189  0.00  0.00    -0.153 OA
BRANCH  22  25
ATOM     25  N   UNL     1      31.985  -9.591 -21.111  0.00  0.00    -0.160 NA
ATOM     26  N   UNL     1      31.384 -10.715 -18.535  0.00  0.00    +0.386 N 
ATOM     27  C   UNL     1      32.139  -8.780 -19.868  0.00  0.00    +0.072 C 
ATOM     28  C   UNL     1      30.924 -10.629 -20.958  0.00  0.00    +0.072 C 
ATOM     29  C   UNL     1      32.432  -9.706 -18.691  0.00  0.00    -0.062 C 
ATOM     30  C   UNL     1      31.246 -11.512 -19.756  0.00  0.00    -0.062 C 
ATOM     31  H   UNL     1      30.497 -10.250 -18.338  0.00  0.00    -0.084 HD
ATOM     32  H   UNL     1      31.638 -11.336 -17.767  0.00  0.00    -0.084 HD
ENDBRANCH  22  25
ENDBRANCH   2  22
BRANCH   3  33
ATOM     33  O   UNL     1      31.922 -11.616 -23.048  0.00  0.00    -0.503 OA
ATOM     34  H   UNL     1      31.521 -12.353 -23.467  0.00  0.00    +0.292 HD
ENDBRANCH   3  33
TORSDOF 5
ENDMDL
MODEL 7
REMARK VINA RESULT:      -9.2      4.071      9.546
REMARK  Name = 10479502
REMARK  5 active torsions:
REMARK  status: ('A' for Active; 'I' for Inactive)
REMARK    1  A    between atoms: C_2  and  S_22
REMARK    2  A    between atoms: C_3  and  O_33
REMARK    3  A    between atoms: C_5  and  N_9
REMARK    4  A    between atoms: N_10  and  C_16
REMARK    5  A    between atoms: S_22  and  N_25
REMARK                            x       y       z     vdW  Elec       q    Type
REMARK                         _______ _______ _______ _____ _____    ______ ____
ROOT
ATOM      1 CL   UNL     1      32.489 -19.482 -21.874  0.00  0.00    -0.081 Cl
ATOM      2  C   UNL     1      34.980 -19.982 -20.861  0.00  0.00    +0.167 C 
ATOM      3  C   UNL     1      35.852 -20.577 -19.955  0.00  0.00    +0.167 C 
ATOM      4  C   UNL     1      33.610 -20.198 -20.772  0.00  0.00    +0.079 C 
ATOM      5  C   UNL     1      35.346 -21.398 -18.948  0.00  0.00    +0.087 C 
ATOM      6  C   UNL     1      33.104 -21.019 -19.764  0.00  0.00    +0.014 C 
ATOM      7  C   UNL     1      33.971 -21.619 -18.852  0.00  0.00    +0.019 C 
ENDROOT
BRANCH   5   9
ATOM      8  O   UNL     1      34.738 -22.735 -16.348  0.00  0.00    -0.252 OA
ATOM      9  N   UNL     1      36.201 -22.006 -18.025  0.00  0.00    -0.266 N 
ATOM     10  N   UNL     1      37.040 -23.113 -16.181  0.00  0.00    -0.267 N 
ATOM     11  C   UNL     1      35.873 -22.632 -16.798  0.00  0.00    +0.308 C 
ATOM     12  H   UNL     1      37.157 -21.998 -18.258  0.00  0.00    +0.157 HD
ATOM     13  H   UNL     1      37.882 -22.954 -16.666  0.00  0.00    +0.156 HD
BRANCH  10  16
ATOM     14 CL   UNL     1      39.627 -24.637 -15.733  0.00  0.00    -0.079 Cl
ATOM     15  F   UNL     1      39.460 -25.898 -13.088  0.00  0.00    -0.203 F 
ATOM     16  C   UNL     1      37.153 -23.798 -14.948  0.00  0.00    +0.064 C 
ATOM     17  C   UNL     1      38.292 -24.525 -14.640  0.00  0.00    +0.098 C 
ATOM     18  C   UNL     1      36.090 -23.717 -14.060  0.00  0.00    +0.016 C 
ATOM     19  C   UNL     1      38.373 -25.186 -13.415  0.00  0.00    +0.152 C 
ATOM     20  C   UNL     1      36.171 -24.378 -12.835  0.00  0.00    +0.004 C 
ATOM     21  C   UNL     1      37.311 -25.114 -12.513  0.00  0.00    +0.031 C 
ENDBRANCH  10  16
ENDBRANCH   5   9
BRANCH   2  22
ATOM     22  S   UNL     1      35.650 -18.949 -22.126  0.00  0.00    +0.067 S 
ATOM     23  O   UNL     1      37.033 -18.681 -21.791  0.00  0.00    -0.153 OA
ATOM     24  O   UNL     1      35.290 -19.519 -23.406  0.00  0.00    -0.153 OA
BRANCH  22  25
ATOM     25  N   UNL     1      34.728 -17.528 -21.871  0.00  0.00    -0.160 NA
ATOM     26  N   UNL     1      33.879 -14.800 -21.566  0.00  0.00    +0.386 N 
ATOM     27  C   UNL     1      35.068 -16.754 -20.641  0.00  0.00    +0.072 C 
ATOM     28  C   UNL     1      34.585 -16.634 -23.057  0.00  0.00    +0.072 C 
ATOM     29  C   UNL     1      34.008 -15.683 -20.405  0.00  0.00    -0.062 C 
ATOM     30  C   UNL     1      33.536 -15.566 -22.765  0.00  0.00    -0.062 C 
ATOM     31  H   UNL     1      34.764 -14.317 -21.720  0.00  0.00    -0.084 HD
ATOM     32  H   UNL     1      33.134 -14.127 -21.384  0.00  0.00    -0.084 HD
ENDBRANCH  22  25
ENDBRANCH   2  22
BRANCH   3  33
ATOM     33  O   UNL     1      37.197 -20.364 -20.041  0.00  0.00    -0.503 OA
ATOM     34  H   UNL     1      37.528 -19.497 -20.169  0.00  0.00    +0.292 HD
ENDBRANCH   3  33
TORSDOF 5
ENDMDL
MODEL 8
REMARK VINA RESULT:      -9.1      3.607      5.462
REMARK  Name = 10479502
REMARK  5 active torsions:
REMARK  status: ('A' for Active; 'I' for Inactive)
REMARK    1  A    between atoms: C_2  and  S_22
REMARK    2  A    between atoms: C_3  and  O_33
REMARK    3  A    between atoms: C_5  and  N_9
REMARK    4  A    between atoms: N_10  and  C_16
REMARK    5  A    between atoms: S_22  and  N_25
REMARK                            x       y       z     vdW  Elec       q    Type
REMARK                         _______ _______ _______ _____ _____    ______ ____
ROOT
ATOM      1 CL   UNL     1      37.309 -21.866 -20.032  0.00  0.00    -0.081 Cl
ATOM      2  C   UNL     1      34.809 -20.759 -20.140  0.00  0.00    +0.167 C 
ATOM      3  C   UNL     1      33.923 -19.726 -20.428  0.00  0.00    +0.167 C 
ATOM      4  C   UNL     1      36.171 -20.611 -20.374  0.00  0.00    +0.079 C 
ATOM      5  C   UNL     1      34.407 -18.530 -20.958  0.00  0.00    +0.087 C 
ATOM      6  C   UNL     1      36.655 -19.415 -20.904  0.00  0.00    +0.014 C 
ATOM      7  C   UNL     1      35.774 -18.374 -21.196  0.00  0.00    +0.019 C 
ENDROOT
BRANCH   5   9
ATOM      8  O   UNL     1      34.810 -15.579 -20.738  0.00  0.00    -0.252 OA
ATOM      9  N   UNL     1      33.539 -17.477 -21.256  0.00  0.00    -0.266 N 
ATOM     10  N   UNL     1      32.624 -15.378 -21.546  0.00  0.00    -0.267 N 
ATOM     11  C   UNL     1      33.767 -16.085 -21.138  0.00  0.00    +0.308 C 
ATOM     12  H   UNL     1      32.651 -17.738 -21.592  0.00  0.00    +0.157 HD
ATOM     13  H   UNL     1      31.861 -15.924 -21.842  0.00  0.00    +0.156 HD
BRANCH  10  16
ATOM     14 CL   UNL     1      33.228 -14.018 -24.193  0.00  0.00    -0.079 Cl
ATOM     15  F   UNL     1      32.712 -11.150 -23.848  0.00  0.00    -0.203 F 
ATOM     16  C   UNL     1      32.435 -13.976 -21.583  0.00  0.00    +0.064 C 
ATOM     17  C   UNL     1      32.681 -13.255 -22.741  0.00  0.00    +0.098 C 
ATOM     18  C   UNL     1      31.996 -13.349 -20.426  0.00  0.00    +0.016 C 
ATOM     19  C   UNL     1      32.483 -11.875 -22.744  0.00  0.00    +0.152 C 
ATOM     20  C   UNL     1      31.798 -11.969 -20.429  0.00  0.00    +0.004 C 
ATOM     21  C   UNL     1      32.042 -11.232 -21.588  0.00  0.00    +0.031 C 
ENDBRANCH  10  16
ENDBRANCH   5   9
BRANCH   2  22
ATOM     22  S   UNL     1      34.167 -22.261 -19.470  0.00  0.00    +0.067 S 
ATOM     23  O   UNL     1      32.725 -22.141 -19.418  0.00  0.00    -0.153 OA
ATOM     24  O   UNL     1      34.798 -23.364 -20.162  0.00  0.00    -0.153 OA
BRANCH  22  25
ATOM     25  N   UNL     1      34.793 -22.171 -17.879  0.00  0.00    -0.160 NA
ATOM     26  N   UNL     1      36.113 -22.739 -15.389  0.00  0.00    +0.386 N 
ATOM     27  C   UNL     1      34.202 -23.131 -16.901  0.00  0.00    +0.072 C 
ATOM     28  C   UNL     1      36.281 -22.133 -17.775  0.00  0.00    +0.072 C 
ATOM     29  C   UNL     1      34.653 -22.763 -15.490  0.00  0.00    -0.062 C 
ATOM     30  C   UNL     1      36.684 -21.788 -16.345  0.00  0.00    -0.062 C 
ATOM     31  H   UNL     1      36.478 -23.671 -15.587  0.00  0.00    -0.084 HD
ATOM     32  H   UNL     1      36.371 -22.449 -14.446  0.00  0.00    -0.084 HD
ENDBRANCH  22  25
ENDBRANCH   2  22
BRANCH   3  33
ATOM     33  O   UNL     1      32.586 -19.870 -20.197  0.00  0.00    -0.503 OA
ATOM     34  H   UNL     1      32.246 -19.759 -19.331  0.00  0.00    +0.292 HD
ENDBRANCH   3  33
TORSDOF 5
ENDMDL
MODEL 9
REMARK VINA RESULT:      -9.0      8.677     14.134
REMARK  Name = 10479502
REMARK  5 active torsions:
REMARK  status: ('A' for Active; 'I' for Inactive)
REMARK    1  A    between atoms: C_2  and  S_22
REMARK    2  A    between atoms: C_3  and  O_33
REMARK    3  A    between atoms: C_5  and  N_9
REMARK    4  A    between atoms: N_10  and  C_16
REMARK    5  A    between atoms: S_22  and  N_25
REMARK                            x       y       z     vdW  Elec       q    Type
REMARK                         _______ _______ _______ _____ _____    ______ ____
ROOT
ATOM      1 CL   UNL     1      32.216  -7.396 -20.973  0.00  0.00    -0.081 Cl
ATOM      2  C   UNL     1      33.058  -9.348 -22.695  0.00  0.00    +0.167 C 
ATOM      3  C   UNL     1      33.100 -10.660 -23.155  0.00  0.00    +0.167 C 
ATOM      4  C   UNL     1      32.300  -9.011 -21.580  0.00  0.00    +0.079 C 
ATOM      5  C   UNL     1      32.373 -11.648 -22.490  0.00  0.00    +0.087 C 
ATOM      6  C   UNL     1      31.573  -9.999 -20.915  0.00  0.00    +0.014 C 
ATOM      7  C   UNL     1      31.610 -11.317 -21.369  0.00  0.00    +0.019 C 
ENDROOT
BRANCH   5   9
ATOM      8  O   UNL     1      34.611 -13.626 -22.520  0.00  0.00    -0.252 OA
ATOM      9  N   UNL     1      32.400 -12.973 -22.931  0.00  0.00    -0.266 N 
ATOM     10  N   UNL     1      33.074 -15.115 -23.462  0.00  0.00    -0.267 N 
ATOM     11  C   UNL     1      33.483 -13.882 -22.929  0.00  0.00    +0.308 C 
ATOM     12  H   UNL     1      31.551 -13.320 -23.291  0.00  0.00    +0.157 HD
ATOM     13  H   UNL     1      32.134 -15.171 -23.750  0.00  0.00    +0.156 HD
BRANCH  10  16
ATOM     14 CL   UNL     1      34.078 -16.445 -20.925  0.00  0.00    -0.079 Cl
ATOM     15  F   UNL     1      35.616 -18.815 -21.720  0.00  0.00    -0.203 F 
ATOM     16  C   UNL     1      33.846 -16.288 -23.638  0.00  0.00    +0.064 C 
ATOM     17  C   UNL     1      34.354 -16.975 -22.547  0.00  0.00    +0.098 C 
ATOM     18  C   UNL     1      34.076 -16.726 -24.934  0.00  0.00    +0.016 C 
ATOM     19  C   UNL     1      35.110 -18.129 -22.755  0.00  0.00    +0.152 C 
ATOM     20  C   UNL     1      34.832 -17.879 -25.142  0.00  0.00    +0.004 C 
ATOM     21  C   UNL     1      35.349 -18.580 -24.053  0.00  0.00    +0.031 C 
ENDBRANCH  10  16
ENDBRANCH   5   9
BRANCH   2  22
ATOM     22  S   UNL     1      33.988  -8.119 -23.558  0.00  0.00    +0.067 S 
ATOM     23  O   UNL     1      34.963  -7.575 -22.636  0.00  0.00    -0.153 OA
ATOM     24  O   UNL     1      34.394  -8.678 -24.829  0.00  0.00    -0.153 OA
BRANCH  22  25
ATOM     25  N   UNL     1      32.763  -6.953 -23.829  0.00  0.00    -0.160 NA
ATOM     26  N   UNL     1      30.765  -5.267 -25.023  0.00  0.00    +0.386 N 
ATOM     27  C   UNL     1      33.152  -5.806 -24.700  0.00  0.00    +0.072 C 
ATOM     28  C   UNL     1      31.429  -7.500 -24.210  0.00  0.00    +0.072 C 
ATOM     29  C   UNL     1      32.072  -4.730 -24.637  0.00  0.00    -0.062 C 
ATOM     30  C   UNL     1      30.388  -6.386 -24.157  0.00  0.00    -0.062 C 
ATOM     31  H   UNL     1      30.809  -5.592 -25.989  0.00  0.00    -0.084 HD
ATOM     32  H   UNL     1      30.067  -4.530 -24.927  0.00  0.00    -0.084 HD
ENDBRANCH  22  25
ENDBRANCH   2  22
BRANCH   3  33
ATOM     33  O   UNL     1      33.846 -10.991 -24.248  0.00  0.00    -0.503 OA
ATOM     34  H   UNL     1      34.127 -10.324 -24.844  0.00  0.00    +0.292 HD
ENDBRANCH   3  33
TORSDOF 5
ENDMDL
