MODEL 1
REMARK VINA RESULT:      -9.1      0.000      0.000
REMARK  Name = 9860102
REMARK  8 active torsions:
REMARK  status: ('A' for Active; 'I' for Inactive)
REMARK    1  A    between atoms: N_1  and  C_12
REMARK    2  A    between atoms: C_2  and  C_21
REMARK    3  A    between atoms: C_3  and  O_8
REMARK    4  A    between atoms: C_5  and  O_10
REMARK    5  A    between atoms: C_12  and  C_13
REMARK    6  A    between atoms: C_13  and  C_14
REMARK    7  A    between atoms: C_14  and  C_15
REMARK    8  A    between atoms: C_21  and  O_22
REMARK                            x       y       z     vdW  Elec       q    Type
REMARK                         _______ _______ _______ _____ _____    ______ ____
ROOT
ATOM      1  N   UNL     1      32.043 -23.929 -16.078  0.00  0.00    +0.389 N 
ATOM      2  C   UNL     1      29.568 -24.071 -16.108  0.00  0.00    +0.038 C 
ATOM      3  C   UNL     1      29.555 -24.412 -14.610  0.00  0.00    +0.135 C 
ATOM      4  C   UNL     1      30.807 -23.237 -16.469  0.00  0.00    -0.072 C 
ATOM      5  C   UNL     1      30.891 -25.031 -14.187  0.00  0.00    +0.117 C 
ATOM      6  C   UNL     1      32.073 -24.170 -14.631  0.00  0.00    -0.045 C 
ATOM      7  H   UNL     1      32.066 -24.832 -16.550  0.00  0.00    -0.080 HD
ENDROOT
BRANCH   3   8
ATOM      8  O   UNL     1      28.504 -25.344 -14.362  0.00  0.00    -0.382 OA
ATOM      9  H   UNL     1      27.946 -25.422 -15.151  0.00  0.00    +0.210 HD
ENDBRANCH   3   8
BRANCH   5  10
ATOM     10  O   UNL     1      30.939 -25.137 -12.764  0.00  0.00    -0.384 OA
ATOM     11  H   UNL     1      31.429 -25.936 -12.516  0.00  0.00    +0.210 HD
ENDBRANCH   5  10
BRANCH   1  12
ATOM     12  C   UNL     1      33.215 -23.156 -16.491  0.00  0.00    -0.077 C 
BRANCH  12  13
ATOM     13  C   UNL     1      33.118 -22.795 -17.972  0.00  0.00    -0.018 C 
BRANCH  13  14
ATOM     14  C   UNL     1      34.487 -22.403 -18.534  0.00  0.00    +0.024 C 
BRANCH  14  15
ATOM     15  C   UNL     1      34.376 -21.293 -19.548  0.00  0.00    -0.022 C 
ATOM     16  C   UNL     1      33.123 -20.815 -19.901  0.00  0.00    -0.004 C 
ATOM     17  C   UNL     1      35.528 -20.769 -20.114  0.00  0.00    -0.004 C 
ATOM     18  C   UNL     1      33.021 -19.789 -20.840  0.00  0.00    -0.000 C 
ATOM     19  C   UNL     1      35.427 -19.742 -21.052  0.00  0.00    -0.000 C 
ATOM     20  C   UNL     1      34.172 -19.252 -21.415  0.00  0.00    -0.000 C 
ENDBRANCH  14  15
ENDBRANCH  13  14
ENDBRANCH  12  13
ENDBRANCH   1  12
BRANCH   2  21
ATOM     21  C   UNL     1      28.291 -23.334 -16.519  0.00  0.00    +0.137 C 
BRANCH  21  22
ATOM     22  O   UNL     1      27.685 -24.050 -17.578  0.00  0.00    -0.382 OA
ATOM     23  H   UNL     1      26.864 -24.460 -17.263  0.00  0.00    +0.210 HD
ENDBRANCH  21  22
ENDBRANCH   2  21
TORSDOF 8
ENDMDL
MODEL 2
REMARK VINA RESULT:      -8.9      6.937     10.283
REMARK  Name = 9860102
REMARK  8 active torsions:
REMARK  status: ('A' for Active; 'I' for Inactive)
REMARK    1  A    between atoms: N_1  and  C_12
REMARK    2  A    between atoms: C_2  and  C_21
REMARK    3  A    between atoms: C_3  and  O_8
REMARK    4  A    between atoms: C_5  and  O_10
REMARK    5  A    between atoms: C_12  and  C_13
REMARK    6  A    between atoms: C_13  and  C_14
REMARK    7  A    between atoms: C_14  and  C_15
REMARK    8  A    between atoms: C_21  and  O_22
REMARK                            x       y       z     vdW  Elec       q    Type
REMARK                         _______ _______ _______ _____ _____    ______ ____
ROOT
ATOM      1  N   UNL     1      35.271 -16.749 -23.736  0.00  0.00    +0.389 N 
ATOM      2  C   UNL     1      34.138 -14.599 -23.246  0.00  0.00    +0.038 C 
ATOM      3  C   UNL     1      33.302 -14.731 -24.529  0.00  0.00    +0.135 C 
ATOM      4  C   UNL     1      34.546 -15.981 -22.714  0.00  0.00    -0.072 C 
ATOM      5  C   UNL     1      34.015 -15.626 -25.547  0.00  0.00    +0.117 C 
ATOM      6  C   UNL     1      34.437 -16.957 -24.923  0.00  0.00    -0.045 C 
ATOM      7  H   UNL     1      36.092 -16.212 -24.014  0.00  0.00    -0.080 HD
ENDROOT
BRANCH   3   8
ATOM      8  O   UNL     1      33.116 -13.433 -25.091  0.00  0.00    -0.382 OA
ATOM      9  H   UNL     1      33.326 -12.759 -24.426  0.00  0.00    +0.210 HD
ENDBRANCH   3   8
BRANCH   5  10
ATOM     10  O   UNL     1      33.133 -15.913 -26.632  0.00  0.00    -0.384 OA
ATOM     11  H   UNL     1      33.521 -16.606 -27.189  0.00  0.00    +0.210 HD
ENDBRANCH   5  10
BRANCH   1  12
ATOM     12  C   UNL     1      35.715 -18.033 -23.192  0.00  0.00    -0.077 C 
BRANCH  12  13
ATOM     13  C   UNL     1      35.678 -18.004 -21.665  0.00  0.00    -0.018 C 
BRANCH  13  14
ATOM     14  C   UNL     1      36.358 -19.242 -21.075  0.00  0.00    +0.024 C 
BRANCH  14  15
ATOM     15  C   UNL     1      35.360 -20.173 -20.433  0.00  0.00    -0.022 C 
ATOM     16  C   UNL     1      34.004 -19.938 -20.600  0.00  0.00    -0.004 C 
ATOM     17  C   UNL     1      35.815 -21.248 -19.685  0.00  0.00    -0.004 C 
ATOM     18  C   UNL     1      33.081 -20.798 -20.005  0.00  0.00    -0.000 C 
ATOM     19  C   UNL     1      34.892 -22.110 -19.092  0.00  0.00    -0.000 C 
ATOM     20  C   UNL     1      33.525 -21.885 -19.252  0.00  0.00    -0.000 C 
ENDBRANCH  14  15
ENDBRANCH  13  14
ENDBRANCH  12  13
ENDBRANCH   1  12
BRANCH   2  21
ATOM     21  C   UNL     1      33.381 -13.814 -22.171  0.00  0.00    +0.137 C 
BRANCH  21  22
ATOM     22  O   UNL     1      31.999 -13.874 -22.466  0.00  0.00    -0.382 OA
ATOM     23  H   UNL     1      31.511 -13.311 -21.844  0.00  0.00    +0.210 HD
ENDBRANCH  21  22
ENDBRANCH   2  21
TORSDOF 8
ENDMDL
MODEL 3
REMARK VINA RESULT:      -8.9      4.793      5.925
REMARK  Name = 9860102
REMARK  8 active torsions:
REMARK  status: ('A' for Active; 'I' for Inactive)
REMARK    1  A    between atoms: N_1  and  C_12
REMARK    2  A    between atoms: C_2  and  C_21
REMARK    3  A    between atoms: C_3  and  O_8
REMARK    4  A    between atoms: C_5  and  O_10
REMARK    5  A    between atoms: C_12  and  C_13
REMARK    6  A    between atoms: C_13  and  C_14
REMARK    7  A    between atoms: C_14  and  C_15
REMARK    8  A    between atoms: C_21  and  O_22
REMARK                            x       y       z     vdW  Elec       q    Type
REMARK                         _______ _______ _______ _____ _____    ______ ____
ROOT
ATOM      1  N   UNL     1      36.790 -23.667 -14.951  0.00  0.00    +0.389 N 
ATOM      2  C   UNL     1      36.265 -24.482 -12.669  0.00  0.00    +0.038 C 
ATOM      3  C   UNL     1      37.332 -25.579 -12.800  0.00  0.00    +0.135 C 
ATOM      4  C   UNL     1      36.615 -23.270 -13.547  0.00  0.00    -0.072 C 
ATOM      5  C   UNL     1      37.590 -25.907 -14.274  0.00  0.00    +0.117 C 
ATOM      6  C   UNL     1      37.874 -24.645 -15.087  0.00  0.00    -0.045 C 
ATOM      7  H   UNL     1      35.926 -24.105 -15.269  0.00  0.00    -0.080 HD
ENDROOT
BRANCH   3   8
ATOM      8  O   UNL     1      36.870 -26.751 -12.130  0.00  0.00    -0.382 OA
ATOM      9  H   UNL     1      35.901 -26.741 -12.091  0.00  0.00    +0.210 HD
ENDBRANCH   3   8
BRANCH   5  10
ATOM     10  O   UNL     1      38.729 -26.761 -14.382  0.00  0.00    -0.384 OA
ATOM     11  H   UNL     1      39.317 -26.429 -15.077  0.00  0.00    +0.210 HD
ENDBRANCH   5  10
BRANCH   1  12
ATOM     12  C   UNL     1      37.052 -22.494 -15.786  0.00  0.00    -0.077 C 
BRANCH  12  13
ATOM     13  C   UNL     1      36.028 -22.406 -16.915  0.00  0.00    -0.018 C 
BRANCH  13  14
ATOM     14  C   UNL     1      36.672 -21.889 -18.203  0.00  0.00    +0.024 C 
BRANCH  14  15
ATOM     15  C   UNL     1      35.649 -21.295 -19.140  0.00  0.00    -0.022 C 
ATOM     16  C   UNL     1      36.058 -20.400 -20.116  0.00  0.00    -0.004 C 
ATOM     17  C   UNL     1      34.316 -21.654 -19.008  0.00  0.00    -0.004 C 
ATOM     18  C   UNL     1      35.112 -19.851 -20.982  0.00  0.00    -0.000 C 
ATOM     19  C   UNL     1      33.370 -21.105 -19.874  0.00  0.00    -0.000 C 
ATOM     20  C   UNL     1      33.768 -20.204 -20.861  0.00  0.00    -0.000 C 
ENDBRANCH  14  15
ENDBRANCH  13  14
ENDBRANCH  12  13
ENDBRANCH   1  12
BRANCH   2  21
ATOM     21  C   UNL     1      36.090 -24.051 -11.211  0.00  0.00    +0.137 C 
BRANCH  21  22
ATOM     22  O   UNL     1      35.328 -25.038 -10.543  0.00  0.00    -0.382 OA
ATOM     23  H   UNL     1      35.311 -24.846  -9.593  0.00  0.00    +0.210 HD
ENDBRANCH  21  22
ENDBRANCH   2  21
TORSDOF 8
ENDMDL
MODEL 4
REMARK VINA RESULT:      -8.8      4.009      5.810
REMARK  Name = 9860102
REMARK  8 active torsions:
REMARK  status: ('A' for Active; 'I' for Inactive)
REMARK    1  A    between atoms: N_1  and  C_12
REMARK    2  A    between atoms: C_2  and  C_21
REMARK    3  A    between atoms: C_3  and  O_8
REMARK    4  A    between atoms: C_5  and  O_10
REMARK    5  A    between atoms: C_12  and  C_13
REMARK    6  A    between atoms: C_13  and  C_14
REMARK    7  A    between atoms: C_14  and  C_15
REMARK    8  A    between atoms: C_21  and  O_22
REMARK                            x       y       z     vdW  Elec       q    Type
REMARK                         _______ _______ _______ _____ _____    ______ ____
ROOT
ATOM      1  N   UNL     1      35.186 -23.609 -14.203  0.00  0.00    +0.389 N 
ATOM      2  C   UNL     1      37.501 -24.308 -13.657  0.00  0.00    +0.038 C 
ATOM      3  C   UNL     1      37.013 -24.951 -12.349  0.00  0.00    +0.135 C 
ATOM      4  C   UNL     1      36.383 -24.294 -14.710  0.00  0.00    -0.072 C 
ATOM      5  C   UNL     1      35.704 -24.305 -11.887  0.00  0.00    +0.117 C 
ATOM      6  C   UNL     1      34.665 -24.280 -13.008  0.00  0.00    -0.045 C 
ATOM      7  H   UNL     1      35.449 -22.658 -13.944  0.00  0.00    -0.080 HD
ENDROOT
BRANCH   3   8
ATOM      8  O   UNL     1      38.011 -24.764 -11.347  0.00  0.00    -0.382 OA
ATOM      9  H   UNL     1      37.765 -24.017 -10.779  0.00  0.00    +0.210 HD
ENDBRANCH   3   8
BRANCH   5  10
ATOM     10  O   UNL     1      35.157 -25.055 -10.802  0.00  0.00    -0.384 OA
ATOM     11  H   UNL     1      35.015 -24.469 -10.043  0.00  0.00    +0.210 HD
ENDBRANCH   5  10
BRANCH   1  12
ATOM     12  C   UNL     1      34.156 -23.541 -15.241  0.00  0.00    -0.077 C 
BRANCH  12  13
ATOM     13  C   UNL     1      34.761 -23.062 -16.559  0.00  0.00    -0.018 C 
BRANCH  13  14
ATOM     14  C   UNL     1      33.717 -23.067 -17.678  0.00  0.00    +0.024 C 
BRANCH  14  15
ATOM     15  C   UNL     1      34.040 -22.054 -18.747  0.00  0.00    -0.022 C 
ATOM     16  C   UNL     1      35.363 -21.830 -19.095  0.00  0.00    -0.004 C 
ATOM     17  C   UNL     1      33.009 -21.361 -19.363  0.00  0.00    -0.004 C 
ATOM     18  C   UNL     1      35.662 -20.893 -20.084  0.00  0.00    -0.000 C 
ATOM     19  C   UNL     1      33.308 -20.424 -20.353  0.00  0.00    -0.000 C 
ATOM     20  C   UNL     1      34.635 -20.190 -20.712  0.00  0.00    -0.000 C 
ENDBRANCH  14  15
ENDBRANCH  13  14
ENDBRANCH  12  13
ENDBRANCH   1  12
BRANCH   2  21
ATOM     21  C   UNL     1      38.737 -25.029 -14.201  0.00  0.00    +0.137 C 
BRANCH  21  22
ATOM     22  O   UNL     1      38.828 -26.293 -13.573  0.00  0.00    -0.382 OA
ATOM     23  H   UNL     1      37.981 -26.506 -13.150  0.00  0.00    +0.210 HD
ENDBRANCH  21  22
ENDBRANCH   2  21
TORSDOF 8
ENDMDL
MODEL 5
REMARK VINA RESULT:      -8.6      6.708     10.191
REMARK  Name = 9860102
REMARK  8 active torsions:
REMARK  status: ('A' for Active; 'I' for Inactive)
REMARK    1  A    between atoms: N_1  and  C_12
REMARK    2  A    between atoms: C_2  and  C_21
REMARK    3  A    between atoms: C_3  and  O_8
REMARK    4  A    between atoms: C_5  and  O_10
REMARK    5  A    between atoms: C_12  and  C_13
REMARK    6  A    between atoms: C_13  and  C_14
REMARK    7  A    between atoms: C_14  and  C_15
REMARK    8  A    between atoms: C_21  and  O_22
REMARK                            x       y       z     vdW  Elec       q    Type
REMARK                         _______ _______ _______ _____ _____    ______ ____
ROOT
ATOM      1  N   UNL     1      33.947 -16.030 -23.037  0.00  0.00    +0.389 N 
ATOM      2  C   UNL     1      33.198 -13.818 -23.870  0.00  0.00    +0.038 C 
ATOM      3  C   UNL     1      32.798 -13.402 -22.447  0.00  0.00    +0.135 C 
ATOM      4  C   UNL     1      34.328 -14.859 -23.840  0.00  0.00    -0.072 C 
ATOM      5  C   UNL     1      32.512 -14.635 -21.585  0.00  0.00    +0.117 C 
ATOM      6  C   UNL     1      33.657 -15.645 -21.653  0.00  0.00    -0.045 C 
ATOM      7  H   UNL     1      33.099 -16.430 -23.440  0.00  0.00    -0.080 HD
ENDROOT
BRANCH   3   8
ATOM      8  O   UNL     1      31.625 -12.593 -22.518  0.00  0.00    -0.382 OA
ATOM      9  H   UNL     1      31.808 -11.722 -22.132  0.00  0.00    +0.210 HD
ENDBRANCH   3   8
BRANCH   5  10
ATOM     10  O   UNL     1      32.358 -14.240 -20.222  0.00  0.00    -0.384 OA
ATOM     11  H   UNL     1      31.854 -13.413 -20.179  0.00  0.00    +0.210 HD
ENDBRANCH   5  10
BRANCH   1  12
ATOM     12  C   UNL     1      35.003 -17.043 -23.076  0.00  0.00    -0.077 C 
BRANCH  12  13
ATOM     13  C   UNL     1      35.404 -17.445 -21.658  0.00  0.00    -0.018 C 
BRANCH  13  14
ATOM     14  C   UNL     1      35.982 -18.862 -21.631  0.00  0.00    +0.024 C 
BRANCH  14  15
ATOM     15  C   UNL     1      35.109 -19.805 -20.843  0.00  0.00    -0.022 C 
ATOM     16  C   UNL     1      35.696 -20.827 -20.112  0.00  0.00    -0.004 C 
ATOM     17  C   UNL     1      33.733 -19.638 -20.863  0.00  0.00    -0.004 C 
ATOM     18  C   UNL     1      34.888 -21.700 -19.383  0.00  0.00    -0.000 C 
ATOM     19  C   UNL     1      32.924 -20.510 -20.133  0.00  0.00    -0.000 C 
ATOM     20  C   UNL     1      33.503 -21.541 -19.394  0.00  0.00    -0.000 C 
ENDBRANCH  14  15
ENDBRANCH  13  14
ENDBRANCH  12  13
ENDBRANCH   1  12
BRANCH   2  21
ATOM     21  C   UNL     1      33.613 -12.605 -24.706  0.00  0.00    +0.137 C 
BRANCH  21  22
ATOM     22  O   UNL     1      34.300 -11.699 -23.865  0.00  0.00    -0.382 OA
ATOM     23  H   UNL     1      34.183 -10.795 -24.200  0.00  0.00    +0.210 HD
ENDBRANCH  21  22
ENDBRANCH   2  21
TORSDOF 8
ENDMDL
MODEL 6
REMARK VINA RESULT:      -8.2      3.402      4.785
REMARK  Name = 9860102
REMARK  8 active torsions:
REMARK  status: ('A' for Active; 'I' for Inactive)
REMARK    1  A    between atoms: N_1  and  C_12
REMARK    2  A    between atoms: C_2  and  C_21
REMARK    3  A    between atoms: C_3  and  O_8
REMARK    4  A    between atoms: C_5  and  O_10
REMARK    5  A    between atoms: C_12  and  C_13
REMARK    6  A    between atoms: C_13  and  C_14
REMARK    7  A    between atoms: C_14  and  C_15
REMARK    8  A    between atoms: C_21  and  O_22
REMARK                            x       y       z     vdW  Elec       q    Type
REMARK                         _______ _______ _______ _____ _____    ______ ____
ROOT
ATOM      1  N   UNL     1      36.509 -23.065 -16.148  0.00  0.00    +0.389 N 
ATOM      2  C   UNL     1      35.007 -24.173 -14.517  0.00  0.00    +0.038 C 
ATOM      3  C   UNL     1      36.202 -24.479 -13.602  0.00  0.00    +0.135 C 
ATOM      4  C   UNL     1      35.273 -22.921 -15.366  0.00  0.00    -0.072 C 
ATOM      5  C   UNL     1      37.503 -24.515 -14.409  0.00  0.00    +0.117 C 
ATOM      6  C   UNL     1      37.665 -23.261 -15.267  0.00  0.00    -0.045 C 
ATOM      7  H   UNL     1      36.417 -23.889 -16.740  0.00  0.00    -0.080 HD
ENDROOT
BRANCH   3   8
ATOM      8  O   UNL     1      35.994 -25.748 -12.984  0.00  0.00    -0.382 OA
ATOM      9  H   UNL     1      35.081 -26.036 -13.135  0.00  0.00    +0.210 HD
ENDBRANCH   3   8
BRANCH   5  10
ATOM     10  O   UNL     1      38.617 -24.581 -13.518  0.00  0.00    -0.384 OA
ATOM     11  H   UNL     1      39.010 -23.699 -13.427  0.00  0.00    +0.210 HD
ENDBRANCH   5  10
BRANCH   1  12
ATOM     12  C   UNL     1      36.712 -21.895 -17.004  0.00  0.00    -0.077 C 
BRANCH  12  13
ATOM     13  C   UNL     1      35.856 -22.005 -18.264  0.00  0.00    -0.018 C 
BRANCH  13  14
ATOM     14  C   UNL     1      36.570 -21.388 -19.470  0.00  0.00    +0.024 C 
BRANCH  14  15
ATOM     15  C   UNL     1      35.685 -20.411 -20.202  0.00  0.00    -0.022 C 
ATOM     16  C   UNL     1      34.312 -20.609 -20.209  0.00  0.00    -0.004 C 
ATOM     17  C   UNL     1      36.257 -19.332 -20.858  0.00  0.00    -0.004 C 
ATOM     18  C   UNL     1      33.493 -19.706 -20.888  0.00  0.00    -0.000 C 
ATOM     19  C   UNL     1      35.438 -18.428 -21.535  0.00  0.00    -0.000 C 
ATOM     20  C   UNL     1      34.057 -18.615 -21.550  0.00  0.00    -0.000 C 
ENDBRANCH  14  15
ENDBRANCH  13  14
ENDBRANCH  12  13
ENDBRANCH   1  12
BRANCH   2  21
ATOM     21  C   UNL     1      33.718 -24.005 -13.707  0.00  0.00    +0.137 C 
BRANCH  21  22
ATOM     22  O   UNL     1      33.012 -25.230 -13.733  0.00  0.00    -0.382 OA
ATOM     23  H   UNL     1      32.208 -25.129 -14.267  0.00  0.00    +0.210 HD
ENDBRANCH  21  22
ENDBRANCH   2  21
TORSDOF 8
ENDMDL
MODEL 7
REMARK VINA RESULT:      -8.2      2.060      3.289
REMARK  Name = 9860102
REMARK  8 active torsions:
REMARK  status: ('A' for Active; 'I' for Inactive)
REMARK    1  A    between atoms: N_1  and  C_12
REMARK    2  A    between atoms: C_2  and  C_21
REMARK    3  A    between atoms: C_3  and  O_8
REMARK    4  A    between atoms: C_5  and  O_10
REMARK    5  A    between atoms: C_12  and  C_13
REMARK    6  A    between atoms: C_13  and  C_14
REMARK    7  A    between atoms: C_14  and  C_15
REMARK    8  A    between atoms: C_21  and  O_22
REMARK                            x       y       z     vdW  Elec       q    Type
REMARK                         _______ _______ _______ _____ _____    ______ ____
ROOT
ATOM      1  N   UNL     1      33.562 -23.596 -16.652  0.00  0.00    +0.389 N 
ATOM      2  C   UNL     1      32.343 -24.156 -14.567  0.00  0.00    +0.038 C 
ATOM      3  C   UNL     1      33.603 -23.868 -13.736  0.00  0.00    +0.135 C 
ATOM      4  C   UNL     1      32.346 -23.339 -15.868  0.00  0.00    -0.072 C 
ATOM      5  C   UNL     1      34.862 -24.029 -14.593  0.00  0.00    +0.117 C 
ATOM      6  C   UNL     1      34.762 -23.230 -15.892  0.00  0.00    -0.045 C 
ATOM      7  H   UNL     1      33.606 -24.595 -16.853  0.00  0.00    -0.080 HD
ENDROOT
BRANCH   3   8
ATOM      8  O   UNL     1      33.654 -24.787 -12.646  0.00  0.00    -0.382 OA
ATOM      9  H   UNL     1      33.941 -24.323 -11.844  0.00  0.00    +0.210 HD
ENDBRANCH   3   8
BRANCH   5  10
ATOM     10  O   UNL     1      35.996 -23.549 -13.872  0.00  0.00    -0.384 OA
ATOM     11  H   UNL     1      35.710 -22.887 -13.223  0.00  0.00    +0.210 HD
ENDBRANCH   5  10
BRANCH   1  12
ATOM     12  C   UNL     1      33.518 -22.866 -17.919  0.00  0.00    -0.077 C 
BRANCH  12  13
ATOM     13  C   UNL     1      34.848 -22.158 -18.171  0.00  0.00    -0.018 C 
BRANCH  13  14
ATOM     14  C   UNL     1      35.191 -22.147 -19.663  0.00  0.00    +0.024 C 
BRANCH  14  15
ATOM     15  C   UNL     1      35.091 -20.761 -20.248  0.00  0.00    -0.022 C 
ATOM     16  C   UNL     1      36.250 -20.040 -20.492  0.00  0.00    -0.004 C 
ATOM     17  C   UNL     1      33.843 -20.231 -20.533  0.00  0.00    -0.004 C 
ATOM     18  C   UNL     1      36.157 -18.757 -21.033  0.00  0.00    -0.000 C 
ATOM     19  C   UNL     1      33.749 -18.948 -21.075  0.00  0.00    -0.000 C 
ATOM     20  C   UNL     1      34.907 -18.212 -21.325  0.00  0.00    -0.000 C 
ENDBRANCH  14  15
ENDBRANCH  13  14
ENDBRANCH  12  13
ENDBRANCH   1  12
BRANCH   2  21
ATOM     21  C   UNL     1      31.072 -23.873 -13.761  0.00  0.00    +0.137 C 
BRANCH  21  22
ATOM     22  O   UNL     1      30.817 -24.986 -12.926  0.00  0.00    -0.382 OA
ATOM     23  H   UNL     1      30.842 -24.706 -11.998  0.00  0.00    +0.210 HD
ENDBRANCH  21  22
ENDBRANCH   2  21
TORSDOF 8
ENDMDL
MODEL 8
REMARK VINA RESULT:      -8.0      9.242     12.306
REMARK  Name = 9860102
REMARK  8 active torsions:
REMARK  status: ('A' for Active; 'I' for Inactive)
REMARK    1  A    between atoms: N_1  and  C_12
REMARK    2  A    between atoms: C_2  and  C_21
REMARK    3  A    between atoms: C_3  and  O_8
REMARK    4  A    between atoms: C_5  and  O_10
REMARK    5  A    between atoms: C_12  and  C_13
REMARK    6  A    between atoms: C_13  and  C_14
REMARK    7  A    between atoms: C_14  and  C_15
REMARK    8  A    between atoms: C_21  and  O_22
REMARK                            x       y       z     vdW  Elec       q    Type
REMARK                         _______ _______ _______ _____ _____    ______ ____
ROOT
ATOM      1  N   UNL     1      32.446 -13.115 -22.739  0.00  0.00    +0.389 N 
ATOM      2  C   UNL     1      33.322 -11.291 -24.172  0.00  0.00    +0.038 C 
ATOM      3  C   UNL     1      32.840 -10.243 -23.157  0.00  0.00    +0.135 C 
ATOM      4  C   UNL     1      33.620 -12.629 -23.479  0.00  0.00    -0.072 C 
ATOM      5  C   UNL     1      31.689 -10.799 -22.313  0.00  0.00    +0.117 C 
ATOM      6  C   UNL     1      32.045 -12.156 -21.705  0.00  0.00    -0.045 C 
ATOM      7  H   UNL     1      31.674 -13.214 -23.397  0.00  0.00    -0.080 HD
ENDROOT
BRANCH   3   8
ATOM      8  O   UNL     1      32.390  -9.090 -23.866  0.00  0.00    -0.382 OA
ATOM      9  H   UNL     1      31.858  -9.366 -24.629  0.00  0.00    +0.210 HD
ENDBRANCH   3   8
BRANCH   5  10
ATOM     10  O   UNL     1      31.406  -9.902 -21.240  0.00  0.00    -0.384 OA
ATOM     11  H   UNL     1      32.197  -9.796 -20.690  0.00  0.00    +0.210 HD
ENDBRANCH   5  10
BRANCH   1  12
ATOM     12  C   UNL     1      32.722 -14.423 -22.144  0.00  0.00    -0.077 C 
BRANCH  12  13
ATOM     13  C   UNL     1      34.211 -14.560 -21.829  0.00  0.00    -0.018 C 
BRANCH  13  14
ATOM     14  C   UNL     1      34.477 -15.786 -20.953  0.00  0.00    +0.024 C 
BRANCH  14  15
ATOM     15  C   UNL     1      34.623 -17.040 -21.779  0.00  0.00    -0.022 C 
ATOM     16  C   UNL     1      34.246 -18.259 -21.239  0.00  0.00    -0.004 C 
ATOM     17  C   UNL     1      35.133 -16.953 -23.065  0.00  0.00    -0.004 C 
ATOM     18  C   UNL     1      34.381 -19.419 -22.002  0.00  0.00    -0.000 C 
ATOM     19  C   UNL     1      35.268 -18.112 -23.830  0.00  0.00    -0.000 C 
ATOM     20  C   UNL     1      34.892 -19.345 -23.298  0.00  0.00    -0.000 C 
ENDBRANCH  14  15
ENDBRANCH  13  14
ENDBRANCH  12  13
ENDBRANCH   1  12
BRANCH   2  21
ATOM     21  C   UNL     1      34.555 -10.798 -24.934  0.00  0.00    +0.137 C 
BRANCH  21  22
ATOM     22  O   UNL     1      35.306  -9.964 -24.073  0.00  0.00    -0.382 OA
ATOM     23  H   UNL     1      35.215 -10.276 -23.160  0.00  0.00    +0.210 HD
ENDBRANCH  21  22
ENDBRANCH   2  21
TORSDOF 8
ENDMDL
MODEL 9
REMARK VINA RESULT:      -8.0      8.934     12.308
REMARK  Name = 9860102
REMARK  8 active torsions:
REMARK  status: ('A' for Active; 'I' for Inactive)
REMARK    1  A    between atoms: N_1  and  C_12
REMARK    2  A    between atoms: C_2  and  C_21
REMARK    3  A    between atoms: C_3  and  O_8
REMARK    4  A    between atoms: C_5  and  O_10
REMARK    5  A    between atoms: C_12  and  C_13
REMARK    6  A    between atoms: C_13  and  C_14
REMARK    7  A    between atoms: C_14  and  C_15
REMARK    8  A    between atoms: C_21  and  O_22
REMARK                            x       y       z     vdW  Elec       q    Type
REMARK                         _______ _______ _______ _____ _____    ______ ____
ROOT
ATOM      1  N   UNL     1      33.036 -14.799 -23.617  0.00  0.00    +0.389 N 
ATOM      2  C   UNL     1      34.175 -16.505 -22.224  0.00  0.00    +0.038 C 
ATOM      3  C   UNL     1      34.944 -17.015 -23.453  0.00  0.00    +0.135 C 
ATOM      4  C   UNL     1      33.807 -15.022 -22.386  0.00  0.00    -0.072 C 
ATOM      5  C   UNL     1      34.188 -16.678 -24.741  0.00  0.00    +0.117 C 
ATOM      6  C   UNL     1      33.810 -15.198 -24.798  0.00  0.00    -0.045 C 
ATOM      7  H   UNL     1      32.197 -15.377 -23.577  0.00  0.00    -0.080 HD
ENDROOT
BRANCH   3   8
ATOM      8  O   UNL     1      35.090 -18.431 -23.347  0.00  0.00    -0.382 OA
ATOM      9  H   UNL     1      34.377 -18.867 -23.839  0.00  0.00    +0.210 HD
ENDBRANCH   3   8
BRANCH   5  10
ATOM     10  O   UNL     1      35.015 -16.961 -25.869  0.00  0.00    -0.384 OA
ATOM     11  H   UNL     1      35.057 -17.920 -26.006  0.00  0.00    +0.210 HD
ENDBRANCH   5  10
BRANCH   1  12
ATOM     12  C   UNL     1      32.633 -13.397 -23.721  0.00  0.00    -0.077 C 
BRANCH  12  13
ATOM     13  C   UNL     1      33.851 -12.483 -23.605  0.00  0.00    -0.018 C 
BRANCH  13  14
ATOM     14  C   UNL     1      33.784 -11.344 -24.626  0.00  0.00    +0.024 C 
BRANCH  14  15
ATOM     15  C   UNL     1      33.798  -9.993 -23.955  0.00  0.00    -0.022 C 
ATOM     16  C   UNL     1      32.787  -9.664 -23.066  0.00  0.00    -0.004 C 
ATOM     17  C   UNL     1      34.821  -9.102 -24.240  0.00  0.00    -0.004 C 
ATOM     18  C   UNL     1      32.800  -8.414 -22.446  0.00  0.00    -0.000 C 
ATOM     19  C   UNL     1      34.835  -7.852 -23.619  0.00  0.00    -0.000 C 
ATOM     20  C   UNL     1      33.824  -7.509 -22.722  0.00  0.00    -0.000 C 
ENDBRANCH  14  15
ENDBRANCH  13  14
ENDBRANCH  12  13
ENDBRANCH   1  12
BRANCH   2  21
ATOM     21  C   UNL     1      34.980 -16.718 -20.939  0.00  0.00    +0.137 C 
BRANCH  21  22
ATOM     22  O   UNL     1      34.917 -15.531 -20.173  0.00  0.00    -0.382 OA
ATOM     23  H   UNL     1      35.811 -15.175 -20.055  0.00  0.00    +0.210 HD
ENDBRANCH  21  22
ENDBRANCH   2  21
TORSDOF 8
ENDMDL
