MODEL 1
REMARK VINA RESULT:      -8.4      0.000      0.000
REMARK  Name = 250948
REMARK  3 active torsions:
REMARK  status: ('A' for Active; 'I' for Inactive)
REMARK    1  A    between atoms: C_7  and  C_24
REMARK    2  A    between atoms: C_7  and  O_26
REMARK    3  A    between atoms: O_26  and  C_28
REMARK                            x       y       z     vdW  Elec       q    Type
REMARK                         _______ _______ _______ _____ _____    ______ ____
ROOT
ATOM      1  O   UNL     1      27.832 -21.798 -16.346  0.00  0.00    -0.291 OA
ATOM      2  C   UNL     1      35.558 -24.651 -14.078  0.00  0.00    +0.044 C 
ATOM      3  C   UNL     1      35.263 -23.685 -15.261  0.00  0.00    +0.012 C 
ATOM      4  C   UNL     1      33.910 -23.973 -15.930  0.00  0.00    +0.022 C 
ATOM      5  C   UNL     1      32.794 -23.772 -14.864  0.00  0.00    +0.008 C 
ATOM      6  C   UNL     1      34.453 -24.452 -13.025  0.00  0.00    +0.004 C 
ATOM      7  C   UNL     1      36.988 -24.172 -13.688  0.00  0.00    +0.201 C 
ATOM      8  C   UNL     1      31.364 -23.886 -15.503  0.00  0.00    +0.019 C 
ATOM      9  C   UNL     1      33.043 -24.656 -13.617  0.00  0.00    +0.001 C 
ATOM     10  C   UNL     1      36.537 -23.757 -16.105  0.00  0.00    +0.026 C 
ATOM     11  C   UNL     1      37.612 -23.882 -15.044  0.00  0.00    -0.002 C 
ATOM     12  C   UNL     1      35.585 -26.151 -14.500  0.00  0.00    +0.004 C 
ATOM     13  C   UNL     1      33.644 -23.120 -17.139  0.00  0.00    -0.031 C 
ATOM     14  C   UNL     1      31.242 -22.840 -16.634  0.00  0.00    -0.024 C 
ATOM     15  C   UNL     1      30.300 -23.600 -14.408  0.00  0.00    +0.012 C 
ATOM     16  C   UNL     1      32.444 -22.594 -17.457  0.00  0.00    -0.030 C 
ATOM     17  C   UNL     1      31.111 -25.293 -16.096  0.00  0.00    +0.004 C 
ATOM     18  C   UNL     1      28.894 -23.426 -14.958  0.00  0.00    +0.069 C 
ATOM     19  C   UNL     1      30.095 -22.169 -16.856  0.00  0.00    +0.033 C 
ATOM     20  C   UNL     1      38.917 -23.729 -15.305  0.00  0.00    -0.005 C 
ATOM     21  C   UNL     1      28.864 -22.405 -16.061  0.00  0.00    +0.173 C 
ATOM     22  C   UNL     1      32.325 -21.763 -18.710  0.00  0.00    +0.030 C 
ENDROOT
BRANCH   7  24
ATOM     23  O   UNL     1      37.331 -25.688 -11.869  0.00  0.00    -0.292 OA
ATOM     24  C   UNL     1      37.786 -25.166 -12.886  0.00  0.00    +0.191 C 
ATOM     25  C   UNL     1      39.166 -25.491 -13.390  0.00  0.00    +0.076 C 
ENDBRANCH   7  24
BRANCH   7  26
ATOM     26  O   UNL     1      36.971 -22.955 -12.955  0.00  0.00    -0.445 OA
BRANCH  26  28
ATOM     27  O   UNL     1      38.852 -22.851 -11.617  0.00  0.00    -0.250 OA
ATOM     28  C   UNL     1      37.642 -22.968 -11.764  0.00  0.00    +0.318 C 
ATOM     29  C   UNL     1      36.674 -23.149 -10.636  0.00  0.00    +0.121 C 
ENDBRANCH  26  28
ENDBRANCH   7  26
TORSDOF 3
ENDMDL
MODEL 2
REMARK VINA RESULT:      -6.6      2.550      3.765
REMARK  Name = 250948
REMARK  3 active torsions:
REMARK  status: ('A' for Active; 'I' for Inactive)
REMARK    1  A    between atoms: C_7  and  C_24
REMARK    2  A    between atoms: C_7  and  O_26
REMARK    3  A    between atoms: O_26  and  C_28
REMARK                            x       y       z     vdW  Elec       q    Type
REMARK                         _______ _______ _______ _____ _____    ______ ____
ROOT
ATOM      1  O   UNL     1      32.947 -19.150 -21.358  0.00  0.00    -0.291 OA
ATOM      2  C   UNL     1      35.736 -24.138 -15.008  0.00  0.00    +0.044 C 
ATOM      3  C   UNL     1      36.610 -23.145 -15.828  0.00  0.00    +0.012 C 
ATOM      4  C   UNL     1      36.149 -23.027 -17.289  0.00  0.00    +0.022 C 
ATOM      5  C   UNL     1      34.689 -22.488 -17.291  0.00  0.00    +0.008 C 
ATOM      6  C   UNL     1      34.292 -23.603 -15.012  0.00  0.00    +0.004 C 
ATOM      7  C   UNL     1      36.490 -24.100 -13.645  0.00  0.00    +0.201 C 
ATOM      8  C   UNL     1      34.194 -22.181 -18.750  0.00  0.00    +0.019 C 
ATOM      9  C   UNL     1      33.757 -23.387 -16.443  0.00  0.00    +0.001 C 
ATOM     10  C   UNL     1      38.039 -23.605 -15.536  0.00  0.00    +0.026 C 
ATOM     11  C   UNL     1      37.944 -24.028 -14.084  0.00  0.00    -0.002 C 
ATOM     12  C   UNL     1      35.738 -25.583 -15.589  0.00  0.00    +0.004 C 
ATOM     13  C   UNL     1      37.036 -22.151 -18.130  0.00  0.00    -0.031 C 
ATOM     14  C   UNL     1      35.160 -21.163 -19.397  0.00  0.00    -0.024 C 
ATOM     15  C   UNL     1      32.766 -21.575 -18.678  0.00  0.00    +0.012 C 
ATOM     16  C   UNL     1      36.596 -21.297 -19.075  0.00  0.00    -0.030 C 
ATOM     17  C   UNL     1      34.157 -23.458 -19.624  0.00  0.00    +0.004 C 
ATOM     18  C   UNL     1      32.284 -20.999 -20.000  0.00  0.00    +0.069 C 
ATOM     19  C   UNL     1      34.715 -20.185 -20.210  0.00  0.00    +0.033 C 
ATOM     20  C   UNL     1      39.019 -24.274 -13.324  0.00  0.00    -0.005 C 
ATOM     21  C   UNL     1      33.284 -20.032 -20.568  0.00  0.00    +0.173 C 
ATOM     22  C   UNL     1      37.606 -20.487 -19.849  0.00  0.00    +0.030 C 
ENDROOT
BRANCH   7  24
ATOM     23  O   UNL     1      35.213 -25.320 -12.032  0.00  0.00    -0.292 OA
ATOM     24  C   UNL     1      36.216 -25.273 -12.744  0.00  0.00    +0.191 C 
ATOM     25  C   UNL     1      37.227 -26.388 -12.757  0.00  0.00    +0.076 C 
ENDBRANCH   7  24
BRANCH   7  26
ATOM     26  O   UNL     1      36.209 -22.921 -12.902  0.00  0.00    -0.445 OA
BRANCH  26  28
ATOM     27  O   UNL     1      38.124 -21.989 -12.008  0.00  0.00    -0.250 OA
ATOM     28  C   UNL     1      37.087 -22.629 -11.896  0.00  0.00    +0.318 C 
ATOM     29  C   UNL     1      36.597 -23.212 -10.607  0.00  0.00    +0.121 C 
ENDBRANCH  26  28
ENDBRANCH   7  26
TORSDOF 3
ENDMDL
MODEL 3
REMARK VINA RESULT:      -6.1     16.942     20.848
REMARK  Name = 250948
REMARK  3 active torsions:
REMARK  status: ('A' for Active; 'I' for Inactive)
REMARK    1  A    between atoms: C_7  and  C_24
REMARK    2  A    between atoms: C_7  and  O_26
REMARK    3  A    between atoms: O_26  and  C_28
REMARK                            x       y       z     vdW  Elec       q    Type
REMARK                         _______ _______ _______ _____ _____    ______ ____
ROOT
ATOM      1  O   UNL     1      31.985 -13.201 -22.492  0.00  0.00    -0.291 OA
ATOM      2  C   UNL     1      32.301  -5.042 -25.005  0.00  0.00    +0.044 C 
ATOM      3  C   UNL     1      33.336  -6.144 -25.377  0.00  0.00    +0.012 C 
ATOM      4  C   UNL     1      33.530  -7.171 -24.250  0.00  0.00    +0.022 C 
ATOM      5  C   UNL     1      32.162  -7.870 -23.997  0.00  0.00    +0.008 C 
ATOM      6  C   UNL     1      30.950  -5.737 -24.754  0.00  0.00    +0.004 C 
ATOM      7  C   UNL     1      32.398  -4.141 -26.272  0.00  0.00    +0.201 C 
ATOM      8  C   UNL     1      32.305  -9.052 -22.973  0.00  0.00    +0.019 C 
ATOM      9  C   UNL     1      31.054  -6.838 -23.678  0.00  0.00    +0.001 C 
ATOM     10  C   UNL     1      34.545  -5.345 -25.866  0.00  0.00    +0.026 C 
ATOM     11  C   UNL     1      33.886  -4.183 -26.584  0.00  0.00    -0.002 C 
ATOM     12  C   UNL     1      32.694  -4.234 -23.733  0.00  0.00    +0.004 C 
ATOM     13  C   UNL     1      34.597  -8.189 -24.542  0.00  0.00    -0.031 C 
ATOM     14  C   UNL     1      33.347 -10.056 -23.517  0.00  0.00    -0.024 C 
ATOM     15  C   UNL     1      30.928  -9.756 -22.824  0.00  0.00    +0.012 C 
ATOM     16  C   UNL     1      34.516  -9.496 -24.226  0.00  0.00    -0.030 C 
ATOM     17  C   UNL     1      32.770  -8.555 -21.583  0.00  0.00    +0.004 C 
ATOM     18  C   UNL     1      30.997 -11.070 -22.062  0.00  0.00    +0.069 C 
ATOM     19  C   UNL     1      33.193 -11.386 -23.365  0.00  0.00    +0.033 C 
ATOM     20  C   UNL     1      34.556  -3.347 -27.388  0.00  0.00    -0.005 C 
ATOM     21  C   UNL     1      32.042 -11.981 -22.643  0.00  0.00    +0.173 C 
ATOM     22  C   UNL     1      35.672 -10.400 -24.574  0.00  0.00    +0.030 C 
ENDROOT
BRANCH   7  24
ATOM     23  O   UNL     1      32.652  -1.786 -25.942  0.00  0.00    -0.292 OA
ATOM     24  C   UNL     1      31.887  -2.738 -26.084  0.00  0.00    +0.191 C 
ATOM     25  C   UNL     1      30.392  -2.557 -26.081  0.00  0.00    +0.076 C 
ENDBRANCH   7  24
BRANCH   7  26
ATOM     26  O   UNL     1      31.712  -4.696 -27.385  0.00  0.00    -0.445 OA
BRANCH  26  28
ATOM     27  O   UNL     1      31.768  -2.980 -28.931  0.00  0.00    -0.250 OA
ATOM     28  C   UNL     1      31.998  -4.135 -28.599  0.00  0.00    +0.318 C 
ATOM     29  C   UNL     1      32.647  -5.150 -29.489  0.00  0.00    +0.121 C 
ENDBRANCH  26  28
ENDBRANCH   7  26
TORSDOF 3
ENDMDL
MODEL 4
REMARK VINA RESULT:      -5.7      4.596      7.733
REMARK  Name = 250948
REMARK  3 active torsions:
REMARK  status: ('A' for Active; 'I' for Inactive)
REMARK    1  A    between atoms: C_7  and  C_24
REMARK    2  A    between atoms: C_7  and  O_26
REMARK    3  A    between atoms: O_26  and  C_28
REMARK                            x       y       z     vdW  Elec       q    Type
REMARK                         _______ _______ _______ _____ _____    ______ ____
ROOT
ATOM      1  O   UNL     1      34.026 -23.979 -12.418  0.00  0.00    -0.291 OA
ATOM      2  C   UNL     1      35.489 -20.727 -20.182  0.00  0.00    +0.044 C 
ATOM      3  C   UNL     1      34.091 -20.886 -19.517  0.00  0.00    +0.012 C 
ATOM      4  C   UNL     1      34.007 -22.129 -18.617  0.00  0.00    +0.022 C 
ATOM      5  C   UNL     1      35.059 -21.971 -17.479  0.00  0.00    +0.008 C 
ATOM      6  C   UNL     1      36.527 -20.573 -19.055  0.00  0.00    +0.004 C 
ATOM      7  C   UNL     1      35.226 -19.472 -21.066  0.00  0.00    +0.201 C 
ATOM      8  C   UNL     1      34.930 -23.120 -16.418  0.00  0.00    +0.019 C 
ATOM      9  C   UNL     1      36.478 -21.746 -18.055  0.00  0.00    +0.001 C 
ATOM     10  C   UNL     1      33.121 -20.756 -20.692  0.00  0.00    +0.026 C 
ATOM     11  C   UNL     1      33.806 -19.712 -21.552  0.00  0.00    -0.002 C 
ATOM     12  C   UNL     1      35.889 -21.943 -21.069  0.00  0.00    +0.004 C 
ATOM     13  C   UNL     1      32.638 -22.362 -18.040  0.00  0.00    -0.031 C 
ATOM     14  C   UNL     1      33.493 -23.110 -15.847  0.00  0.00    -0.024 C 
ATOM     15  C   UNL     1      35.949 -22.863 -15.274  0.00  0.00    +0.012 C 
ATOM     16  C   UNL     1      32.398 -22.793 -16.786  0.00  0.00    -0.030 C 
ATOM     17  C   UNL     1      35.210 -24.510 -17.038  0.00  0.00    +0.004 C 
ATOM     18  C   UNL     1      35.743 -23.761 -14.064  0.00  0.00    +0.069 C 
ATOM     19  C   UNL     1      33.247 -23.365 -14.547  0.00  0.00    +0.033 C 
ATOM     20  C   UNL     1      33.198 -19.096 -22.575  0.00  0.00    -0.005 C 
ATOM     21  C   UNL     1      34.320 -23.705 -13.581  0.00  0.00    +0.173 C 
ATOM     22  C   UNL     1      30.968 -22.991 -16.348  0.00  0.00    +0.030 C 
ENDROOT
BRANCH   7  24
ATOM     23  O   UNL     1      35.855 -19.406 -23.374  0.00  0.00    -0.292 OA
ATOM     24  C   UNL     1      36.201 -19.289 -22.199  0.00  0.00    +0.191 C 
ATOM     25  C   UNL     1      37.619 -18.951 -21.824  0.00  0.00    +0.076 C 
ENDBRANCH   7  24
BRANCH   7  26
ATOM     26  O   UNL     1      35.223 -18.268 -20.312  0.00  0.00    -0.445 OA
BRANCH  26  28
ATOM     27  O   UNL     1      35.541 -16.712 -21.990  0.00  0.00    -0.250 OA
ATOM     28  C   UNL     1      34.935 -17.129 -21.012  0.00  0.00    +0.318 C 
ATOM     29  C   UNL     1      33.750 -16.445 -20.404  0.00  0.00    +0.121 C 
ENDBRANCH  26  28
ENDBRANCH   7  26
TORSDOF 3
ENDMDL
