MODEL 1
REMARK VINA RESULT:     -10.3      0.000      0.000
REMARK  Name = 24963033
REMARK  8 active torsions:
REMARK  status: ('A' for Active; 'I' for Inactive)
REMARK    1  A    between atoms: N_2  and  C_19
REMARK    2  A    between atoms: C_4  and  C_11
REMARK    3  A    between atoms: N_9  and  C_15
REMARK    4  A    between atoms: C_18  and  S_24
REMARK    5  A    between atoms: S_24  and  N_27
REMARK    6  A    between atoms: N_27  and  C_29
REMARK    7  A    between atoms: C_29  and  C_30
REMARK    8  A    between atoms: C_30  and  O_31
REMARK                            x       y       z     vdW  Elec       q    Type
REMARK                         _______ _______ _______ _____ _____    ______ ____
ROOT
ATOM      1  N   UNL     1      34.478 -22.753 -17.167  0.00  0.00    -0.336 NA
ATOM      2  N   UNL     1      32.731 -22.008 -18.540  0.00  0.00    -0.247 N 
ATOM      3  N   UNL     1      32.201 -23.423 -16.748  0.00  0.00    -0.170 NA
ATOM      4  C   UNL     1      34.851 -23.487 -16.098  0.00  0.00    +0.161 C 
ATOM      5  C   UNL     1      33.970 -24.206 -15.317  0.00  0.00    +0.056 C 
ATOM      6  C   UNL     1      33.157 -22.765 -17.431  0.00  0.00    +0.149 C 
ATOM      7  C   UNL     1      32.644 -24.137 -15.692  0.00  0.00    +0.114 C 
ATOM      8  H   UNL     1      31.759 -22.046 -18.695  0.00  0.00    +0.165 HD
ENDROOT
BRANCH   4  11
ATOM      9  N   UNL     1      36.925 -24.446 -15.129  0.00  0.00    -0.274 N 
ATOM     10  N   UNL     1      38.461 -22.940 -15.680  0.00  0.00    -0.232 NA
ATOM     11  C   UNL     1      36.263 -23.472 -15.820  0.00  0.00    +0.103 C 
ATOM     12  C   UNL     1      38.242 -24.084 -15.070  0.00  0.00    +0.113 C 
ATOM     13  C   UNL     1      37.231 -22.553 -16.149  0.00  0.00    +0.117 C 
ATOM     14  C   UNL     1      39.259 -24.913 -14.391  0.00  0.00    +0.069 C 
BRANCH   9  15
ATOM     15  C   UNL     1      36.347 -25.644 -14.562  0.00  0.00    +0.078 C 
ATOM     16  C   UNL     1      36.633 -25.753 -13.062  0.00  0.00    +0.022 C 
ATOM     17  C   UNL     1      36.817 -26.900 -15.300  0.00  0.00    +0.022 C 
ENDBRANCH   9  15
ENDBRANCH   4  11
BRANCH   2  19
ATOM     18  C   UNL     1      34.789 -19.618 -21.314  0.00  0.00    +0.122 C 
ATOM     19  C   UNL     1      33.422 -21.206 -19.471  0.00  0.00    +0.058 C 
ATOM     20  C   UNL     1      35.480 -20.568 -20.564  0.00  0.00    +0.021 C 
ATOM     21  C   UNL     1      33.413 -19.462 -21.144  0.00  0.00    +0.021 C 
ATOM     22  C   UNL     1      34.798 -21.363 -19.642  0.00  0.00    +0.017 C 
ATOM     23  C   UNL     1      32.730 -20.255 -20.222  0.00  0.00    +0.017 C 
BRANCH  18  24
ATOM     24  S   UNL     1      35.643 -18.623 -22.466  0.00  0.00    +0.060 S 
ATOM     25  O   UNL     1      37.058 -18.611 -22.117  0.00  0.00    -0.153 OA
ATOM     26  O   UNL     1      35.242 -19.047 -23.802  0.00  0.00    -0.153 OA
BRANCH  24  27
ATOM     27  N   UNL     1      34.992 -17.071 -22.168  0.00  0.00    -0.177 NA
ATOM     28  H   UNL     1      35.492 -16.692 -21.364  0.00  0.00    +0.149 HD
BRANCH  27  29
ATOM     29  C   UNL     1      35.036 -16.045 -23.219  0.00  0.00    +0.123 C 
BRANCH  29  30
ATOM     30  C   UNL     1      33.721 -15.288 -23.246  0.00  0.00    +0.161 C 
BRANCH  30  31
ATOM     31  O   UNL     1      33.385 -14.974 -24.592  0.00  0.00    -0.350 OA
ATOM     32  C   UNL     1      33.805 -15.997 -25.485  0.00  0.00    +0.174 C 
ENDBRANCH  30  31
ENDBRANCH  29  30
ENDBRANCH  27  29
ENDBRANCH  24  27
ENDBRANCH  18  24
ENDBRANCH   2  19
TORSDOF 8
ENDMDL
MODEL 2
REMARK VINA RESULT:      -9.2      1.926      4.456
REMARK  Name = 24963033
REMARK  8 active torsions:
REMARK  status: ('A' for Active; 'I' for Inactive)
REMARK    1  A    between atoms: N_2  and  C_19
REMARK    2  A    between atoms: C_4  and  C_11
REMARK    3  A    between atoms: N_9  and  C_15
REMARK    4  A    between atoms: C_18  and  S_24
REMARK    5  A    between atoms: S_24  and  N_27
REMARK    6  A    between atoms: N_27  and  C_29
REMARK    7  A    between atoms: C_29  and  C_30
REMARK    8  A    between atoms: C_30  and  O_31
REMARK                            x       y       z     vdW  Elec       q    Type
REMARK                         _______ _______ _______ _____ _____    ______ ____
ROOT
ATOM      1  N   UNL     1      33.889 -22.766 -17.015  0.00  0.00    -0.336 NA
ATOM      2  N   UNL     1      36.082 -22.358 -17.731  0.00  0.00    -0.247 N 
ATOM      3  N   UNL     1      35.768 -23.783 -15.898  0.00  0.00    -0.170 NA
ATOM      4  C   UNL     1      33.077 -23.398 -16.143  0.00  0.00    +0.161 C 
ATOM      5  C   UNL     1      33.528 -24.226 -15.136  0.00  0.00    +0.056 C 
ATOM      6  C   UNL     1      35.204 -23.001 -16.838  0.00  0.00    +0.149 C 
ATOM      7  C   UNL     1      34.897 -24.383 -15.060  0.00  0.00    +0.114 C 
ATOM      8  H   UNL     1      37.033 -22.557 -17.564  0.00  0.00    +0.165 HD
ENDROOT
BRANCH   4  11
ATOM      9  N   UNL     1      30.678 -23.683 -15.569  0.00  0.00    -0.274 N 
ATOM     10  N   UNL     1      29.663 -22.407 -17.078  0.00  0.00    -0.232 NA
ATOM     11  C   UNL     1      31.673 -23.144 -16.335  0.00  0.00    +0.103 C 
ATOM     12  C   UNL     1      29.489 -23.212 -16.053  0.00  0.00    +0.113 C 
ATOM     13  C   UNL     1      31.022 -22.361 -17.259  0.00  0.00    +0.117 C 
ATOM     14  C   UNL     1      28.191 -23.591 -15.459  0.00  0.00    +0.069 C 
BRANCH   9  15
ATOM     15  C   UNL     1      30.844 -24.585 -14.452  0.00  0.00    +0.078 C 
ATOM     16  C   UNL     1      29.925 -25.804 -14.569  0.00  0.00    +0.022 C 
ATOM     17  C   UNL     1      30.633 -23.870 -13.115  0.00  0.00    +0.022 C 
ENDBRANCH   9  15
ENDBRANCH   4  11
BRANCH   2  19
ATOM     18  C   UNL     1      35.449 -19.756 -20.968  0.00  0.00    +0.122 C 
ATOM     19  C   UNL     1      35.870 -21.485 -18.818  0.00  0.00    +0.058 C 
ATOM     20  C   UNL     1      36.711 -19.846 -20.382  0.00  0.00    +0.021 C 
ATOM     21  C   UNL     1      34.397 -20.531 -20.480  0.00  0.00    +0.021 C 
ATOM     22  C   UNL     1      36.922 -20.710 -19.307  0.00  0.00    +0.017 C 
ATOM     23  C   UNL     1      34.607 -21.395 -19.404  0.00  0.00    +0.017 C 
BRANCH  18  24
ATOM     24  S   UNL     1      35.185 -18.675 -22.312  0.00  0.00    +0.060 S 
ATOM     25  O   UNL     1      36.459 -18.077 -22.691  0.00  0.00    -0.153 OA
ATOM     26  O   UNL     1      34.408 -19.392 -23.314  0.00  0.00    -0.153 OA
BRANCH  24  27
ATOM     27  N   UNL     1      34.197 -17.463 -21.622  0.00  0.00    -0.177 NA
ATOM     28  H   UNL     1      33.639 -17.915 -20.898  0.00  0.00    +0.149 HD
BRANCH  27  29
ATOM     29  C   UNL     1      34.814 -16.279 -21.007  0.00  0.00    +0.123 C 
BRANCH  29  30
ATOM     30  C   UNL     1      34.447 -15.041 -21.806  0.00  0.00    +0.161 C 
BRANCH  30  31
ATOM     31  O   UNL     1      34.910 -15.189 -23.143  0.00  0.00    -0.350 OA
ATOM     32  C   UNL     1      33.871 -14.947 -24.083  0.00  0.00    +0.174 C 
ENDBRANCH  30  31
ENDBRANCH  29  30
ENDBRANCH  27  29
ENDBRANCH  24  27
ENDBRANCH  18  24
ENDBRANCH   2  19
TORSDOF 8
ENDMDL
MODEL 3
REMARK VINA RESULT:      -9.0      4.003     11.507
REMARK  Name = 24963033
REMARK  8 active torsions:
REMARK  status: ('A' for Active; 'I' for Inactive)
REMARK    1  A    between atoms: N_2  and  C_19
REMARK    2  A    between atoms: C_4  and  C_11
REMARK    3  A    between atoms: N_9  and  C_15
REMARK    4  A    between atoms: C_18  and  S_24
REMARK    5  A    between atoms: S_24  and  N_27
REMARK    6  A    between atoms: N_27  and  C_29
REMARK    7  A    between atoms: C_29  and  C_30
REMARK    8  A    between atoms: C_30  and  O_31
REMARK                            x       y       z     vdW  Elec       q    Type
REMARK                         _______ _______ _______ _____ _____    ______ ____
ROOT
ATOM      1  N   UNL     1      33.533 -14.909 -24.232  0.00  0.00    -0.336 NA
ATOM      2  N   UNL     1      34.483 -16.785 -25.264  0.00  0.00    -0.247 N 
ATOM      3  N   UNL     1      33.733 -15.035 -26.631  0.00  0.00    -0.170 NA
ATOM      4  C   UNL     1      32.967 -13.693 -24.382  0.00  0.00    +0.161 C 
ATOM      5  C   UNL     1      32.753 -13.092 -25.605  0.00  0.00    +0.056 C 
ATOM      6  C   UNL     1      33.888 -15.515 -25.382  0.00  0.00    +0.149 C 
ATOM      7  C   UNL     1      33.160 -13.816 -26.706  0.00  0.00    +0.114 C 
ATOM      8  H   UNL     1      34.726 -17.190 -26.130  0.00  0.00    +0.165 HD
ENDROOT
BRANCH   4  11
ATOM      9  N   UNL     1      32.572 -11.697 -22.959  0.00  0.00    -0.274 N 
ATOM     10  N   UNL     1      31.916 -12.594 -21.036  0.00  0.00    -0.232 NA
ATOM     11  C   UNL     1      32.589 -13.050 -23.151  0.00  0.00    +0.103 C 
ATOM     12  C   UNL     1      32.161 -11.471 -21.675  0.00  0.00    +0.113 C 
ATOM     13  C   UNL     1      32.180 -13.581 -21.951  0.00  0.00    +0.117 C 
ATOM     14  C   UNL     1      32.026 -10.109 -21.119  0.00  0.00    +0.069 C 
BRANCH   9  15
ATOM     15  C   UNL     1      32.921 -10.686 -23.931  0.00  0.00    +0.078 C 
ATOM     16  C   UNL     1      34.428 -10.413 -23.945  0.00  0.00    +0.022 C 
ATOM     17  C   UNL     1      32.135  -9.392 -23.705  0.00  0.00    +0.022 C 
ENDBRANCH   9  15
ENDBRANCH   4  11
BRANCH   2  19
ATOM     18  C   UNL     1      35.433 -19.190 -21.954  0.00  0.00    +0.122 C 
ATOM     19  C   UNL     1      34.801 -17.593 -24.153  0.00  0.00    +0.058 C 
ATOM     20  C   UNL     1      35.638 -17.812 -21.897  0.00  0.00    +0.021 C 
ATOM     21  C   UNL     1      34.912 -19.770 -23.111  0.00  0.00    +0.021 C 
ATOM     22  C   UNL     1      35.322 -17.013 -22.996  0.00  0.00    +0.017 C 
ATOM     23  C   UNL     1      34.597 -18.971 -24.211  0.00  0.00    +0.017 C 
BRANCH  18  24
ATOM     24  S   UNL     1      35.829 -20.190 -20.580  0.00  0.00    +0.060 S 
ATOM     25  O   UNL     1      36.138 -21.535 -21.050  0.00  0.00    -0.153 OA
ATOM     26  O   UNL     1      36.810 -19.473 -19.776  0.00  0.00    -0.153 OA
BRANCH  24  27
ATOM     27  N   UNL     1      34.351 -20.239 -19.721  0.00  0.00    -0.177 NA
ATOM     28  H   UNL     1      33.840 -19.391 -19.967  0.00  0.00    +0.149 HD
BRANCH  27  29
ATOM     29  C   UNL     1      33.428 -21.365 -19.917  0.00  0.00    +0.123 C 
BRANCH  29  30
ATOM     30  C   UNL     1      33.595 -22.363 -18.785  0.00  0.00    +0.161 C 
BRANCH  30  31
ATOM     31  O   UNL     1      32.356 -22.514 -18.103  0.00  0.00    -0.350 OA
ATOM     32  C   UNL     1      32.520 -23.211 -16.874  0.00  0.00    +0.174 C 
ENDBRANCH  30  31
ENDBRANCH  29  30
ENDBRANCH  27  29
ENDBRANCH  24  27
ENDBRANCH  18  24
ENDBRANCH   2  19
TORSDOF 8
ENDMDL
MODEL 4
REMARK VINA RESULT:      -8.9      3.455     10.345
REMARK  Name = 24963033
REMARK  8 active torsions:
REMARK  status: ('A' for Active; 'I' for Inactive)
REMARK    1  A    between atoms: N_2  and  C_19
REMARK    2  A    between atoms: C_4  and  C_11
REMARK    3  A    between atoms: N_9  and  C_15
REMARK    4  A    between atoms: C_18  and  S_24
REMARK    5  A    between atoms: S_24  and  N_27
REMARK    6  A    between atoms: N_27  and  C_29
REMARK    7  A    between atoms: C_29  and  C_30
REMARK    8  A    between atoms: C_30  and  O_31
REMARK                            x       y       z     vdW  Elec       q    Type
REMARK                         _______ _______ _______ _____ _____    ______ ____
ROOT
ATOM      1  N   UNL     1      33.603 -15.326 -24.184  0.00  0.00    -0.336 NA
ATOM      2  N   UNL     1      34.588 -17.228 -25.134  0.00  0.00    -0.247 N 
ATOM      3  N   UNL     1      33.838 -15.539 -26.574  0.00  0.00    -0.170 NA
ATOM      4  C   UNL     1      33.026 -14.123 -24.387  0.00  0.00    +0.161 C 
ATOM      5  C   UNL     1      32.822 -13.570 -25.634  0.00  0.00    +0.056 C 
ATOM      6  C   UNL     1      33.981 -15.970 -25.306  0.00  0.00    +0.149 C 
ATOM      7  C   UNL     1      33.252 -14.330 -26.702  0.00  0.00    +0.114 C 
ATOM      8  H   UNL     1      34.847 -17.662 -25.980  0.00  0.00    +0.165 HD
ENDROOT
BRANCH   4  11
ATOM      9  N   UNL     1      32.756 -13.949 -21.925  0.00  0.00    -0.274 N 
ATOM     10  N   UNL     1      31.834 -11.943 -21.679  0.00  0.00    -0.232 NA
ATOM     11  C   UNL     1      32.624 -13.439 -23.186  0.00  0.00    +0.103 C 
ATOM     12  C   UNL     1      32.268 -13.015 -21.053  0.00  0.00    +0.113 C 
ATOM     13  C   UNL     1      32.053 -12.202 -23.008  0.00  0.00    +0.117 C 
ATOM     14  C   UNL     1      32.254 -13.233 -19.592  0.00  0.00    +0.069 C 
BRANCH   9  15
ATOM     15  C   UNL     1      33.309 -15.236 -21.571  0.00  0.00    +0.078 C 
ATOM     16  C   UNL     1      32.279 -16.116 -20.857  0.00  0.00    +0.022 C 
ATOM     17  C   UNL     1      34.579 -15.091 -20.728  0.00  0.00    +0.022 C 
ENDBRANCH   9  15
ENDBRANCH   4  11
BRANCH   2  19
ATOM     18  C   UNL     1      35.518 -19.496 -21.722  0.00  0.00    +0.122 C 
ATOM     19  C   UNL     1      34.901 -17.990 -23.989  0.00  0.00    +0.058 C 
ATOM     20  C   UNL     1      34.507 -19.916 -22.585  0.00  0.00    +0.021 C 
ATOM     21  C   UNL     1      36.221 -18.322 -21.992  0.00  0.00    +0.021 C 
ATOM     22  C   UNL     1      34.198 -19.164 -23.718  0.00  0.00    +0.017 C 
ATOM     23  C   UNL     1      35.912 -17.568 -23.125  0.00  0.00    +0.017 C 
BRANCH  18  24
ATOM     24  S   UNL     1      35.904 -20.436 -20.303  0.00  0.00    +0.060 S 
ATOM     25  O   UNL     1      36.338 -21.763 -20.723  0.00  0.00    -0.153 OA
ATOM     26  O   UNL     1      36.781 -19.632 -19.462  0.00  0.00    -0.153 OA
BRANCH  24  27
ATOM     27  N   UNL     1      34.386 -20.577 -19.530  0.00  0.00    -0.177 NA
ATOM     28  H   UNL     1      33.816 -19.798 -19.858  0.00  0.00    +0.149 HD
BRANCH  27  29
ATOM     29  C   UNL     1      33.584 -21.796 -19.709  0.00  0.00    +0.123 C 
BRANCH  29  30
ATOM     30  C   UNL     1      33.391 -22.479 -18.367  0.00  0.00    +0.161 C 
BRANCH  30  31
ATOM     31  O   UNL     1      34.662 -22.783 -17.805  0.00  0.00    -0.350 OA
ATOM     32  C   UNL     1      34.554 -23.124 -16.429  0.00  0.00    +0.174 C 
ENDBRANCH  30  31
ENDBRANCH  29  30
ENDBRANCH  27  29
ENDBRANCH  24  27
ENDBRANCH  18  24
ENDBRANCH   2  19
TORSDOF 8
ENDMDL
MODEL 5
REMARK VINA RESULT:      -8.7      8.523     14.564
REMARK  Name = 24963033
REMARK  8 active torsions:
REMARK  status: ('A' for Active; 'I' for Inactive)
REMARK    1  A    between atoms: N_2  and  C_19
REMARK    2  A    between atoms: C_4  and  C_11
REMARK    3  A    between atoms: N_9  and  C_15
REMARK    4  A    between atoms: C_18  and  S_24
REMARK    5  A    between atoms: S_24  and  N_27
REMARK    6  A    between atoms: N_27  and  C_29
REMARK    7  A    between atoms: C_29  and  C_30
REMARK    8  A    between atoms: C_30  and  O_31
REMARK                            x       y       z     vdW  Elec       q    Type
REMARK                         _______ _______ _______ _____ _____    ______ ____
ROOT
ATOM      1  N   UNL     1      32.900  -9.141 -22.748  0.00  0.00    -0.336 NA
ATOM      2  N   UNL     1      32.335 -11.215 -21.815  0.00  0.00    -0.247 N 
ATOM      3  N   UNL     1      32.086  -9.302 -20.484  0.00  0.00    -0.170 NA
ATOM      4  C   UNL     1      32.993  -7.806 -22.579  0.00  0.00    +0.161 C 
ATOM      5  C   UNL     1      32.656  -7.155 -21.410  0.00  0.00    +0.056 C 
ATOM      6  C   UNL     1      32.445  -9.818 -21.675  0.00  0.00    +0.149 C 
ATOM      7  C   UNL     1      32.204  -7.962 -20.386  0.00  0.00    +0.114 C 
ATOM      8  H   UNL     1      31.999 -11.668 -21.007  0.00  0.00    +0.165 HD
ENDROOT
BRANCH   4  11
ATOM      9  N   UNL     1      32.709  -6.289 -24.523  0.00  0.00    -0.274 N 
ATOM     10  N   UNL     1      34.757  -6.206 -25.378  0.00  0.00    -0.232 NA
ATOM     11  C   UNL     1      33.480  -7.087 -23.727  0.00  0.00    +0.103 C 
ATOM     12  C   UNL     1      33.518  -5.782 -25.501  0.00  0.00    +0.113 C 
ATOM     13  C   UNL     1      34.739  -7.020 -24.274  0.00  0.00    +0.117 C 
ATOM     14  C   UNL     1      33.014  -4.869 -26.548  0.00  0.00    +0.069 C 
BRANCH   9  15
ATOM     15  C   UNL     1      31.296  -6.024 -24.366  0.00  0.00    +0.078 C 
ATOM     16  C   UNL     1      31.031  -5.039 -23.224  0.00  0.00    +0.022 C 
ATOM     17  C   UNL     1      30.499  -7.315 -24.169  0.00  0.00    +0.022 C 
ENDBRANCH   9  15
ENDBRANCH   4  11
BRANCH   2  19
ATOM     18  C   UNL     1      33.151 -13.831 -24.998  0.00  0.00    +0.122 C 
ATOM     19  C   UNL     1      32.609 -12.094 -22.884  0.00  0.00    +0.058 C 
ATOM     20  C   UNL     1      33.539 -12.494 -25.078  0.00  0.00    +0.021 C 
ATOM     21  C   UNL     1      32.492 -14.300 -23.862  0.00  0.00    +0.021 C 
ATOM     22  C   UNL     1      33.268 -11.625 -24.020  0.00  0.00    +0.017 C 
ATOM     23  C   UNL     1      32.221 -13.431 -22.805  0.00  0.00    +0.017 C 
BRANCH  18  24
ATOM     24  S   UNL     1      33.488 -14.919 -26.321  0.00  0.00    +0.060 S 
ATOM     25  O   UNL     1      32.306 -15.733 -26.573  0.00  0.00    -0.153 OA
ATOM     26  O   UNL     1      34.057 -14.132 -27.409  0.00  0.00    -0.153 OA
BRANCH  24  27
ATOM     27  N   UNL     1      34.713 -15.919 -25.674  0.00  0.00    -0.177 NA
ATOM     28  H   UNL     1      35.049 -15.462 -24.826  0.00  0.00    +0.149 HD
BRANCH  27  29
ATOM     29  C   UNL     1      34.407 -17.311 -25.314  0.00  0.00    +0.123 C 
BRANCH  29  30
ATOM     30  C   UNL     1      34.878 -17.586 -23.898  0.00  0.00    +0.161 C 
BRANCH  30  31
ATOM     31  O   UNL     1      35.265 -16.363 -23.283  0.00  0.00    -0.350 OA
ATOM     32  C   UNL     1      34.886 -16.327 -21.914  0.00  0.00    +0.174 C 
ENDBRANCH  30  31
ENDBRANCH  29  30
ENDBRANCH  27  29
ENDBRANCH  24  27
ENDBRANCH  18  24
ENDBRANCH   2  19
TORSDOF 8
ENDMDL
MODEL 6
REMARK VINA RESULT:      -8.7      6.155     13.223
REMARK  Name = 24963033
REMARK  8 active torsions:
REMARK  status: ('A' for Active; 'I' for Inactive)
REMARK    1  A    between atoms: N_2  and  C_19
REMARK    2  A    between atoms: C_4  and  C_11
REMARK    3  A    between atoms: N_9  and  C_15
REMARK    4  A    between atoms: C_18  and  S_24
REMARK    5  A    between atoms: S_24  and  N_27
REMARK    6  A    between atoms: N_27  and  C_29
REMARK    7  A    between atoms: C_29  and  C_30
REMARK    8  A    between atoms: C_30  and  O_31
REMARK                            x       y       z     vdW  Elec       q    Type
REMARK                         _______ _______ _______ _____ _____    ______ ____
ROOT
ATOM      1  N   UNL     1      32.569 -10.978 -21.995  0.00  0.00    -0.336 NA
ATOM      2  N   UNL     1      31.973 -13.077 -21.140  0.00  0.00    -0.247 N 
ATOM      3  N   UNL     1      31.257 -11.170 -19.982  0.00  0.00    -0.170 NA
ATOM      4  C   UNL     1      32.506  -9.637 -21.862  0.00  0.00    +0.161 C 
ATOM      5  C   UNL     1      31.849  -8.998 -20.832  0.00  0.00    +0.056 C 
ATOM      6  C   UNL     1      31.930 -11.674 -21.033  0.00  0.00    +0.149 C 
ATOM      7  C   UNL     1      31.236  -9.823 -19.911  0.00  0.00    +0.114 C 
ATOM      8  H   UNL     1      31.494 -13.544 -20.416  0.00  0.00    +0.165 HD
ENDROOT
BRANCH   4  11
ATOM      9  N   UNL     1      32.766  -7.701 -23.395  0.00  0.00    -0.274 N 
ATOM     10  N   UNL     1      34.641  -8.189 -24.481  0.00  0.00    -0.232 NA
ATOM     11  C   UNL     1      33.190  -8.898 -22.891  0.00  0.00    +0.103 C 
ATOM     12  C   UNL     1      33.668  -7.315 -24.346  0.00  0.00    +0.113 C 
ATOM     13  C   UNL     1      34.348  -9.179 -23.577  0.00  0.00    +0.117 C 
ATOM     14  C   UNL     1      33.524  -6.055 -25.105  0.00  0.00    +0.069 C 
BRANCH   9  15
ATOM     15  C   UNL     1      31.582  -6.972 -22.999  0.00  0.00    +0.078 C 
ATOM     16  C   UNL     1      30.647  -6.728 -24.186  0.00  0.00    +0.022 C 
ATOM     17  C   UNL     1      31.938  -5.654 -22.306  0.00  0.00    +0.022 C 
ENDBRANCH   9  15
ENDBRANCH   4  11
BRANCH   2  19
ATOM     18  C   UNL     1      33.740 -15.666 -23.936  0.00  0.00    +0.122 C 
ATOM     19  C   UNL     1      32.566 -13.947 -22.078  0.00  0.00    +0.058 C 
ATOM     20  C   UNL     1      33.846 -15.936 -22.572  0.00  0.00    +0.021 C 
ATOM     21  C   UNL     1      33.047 -14.537 -24.372  0.00  0.00    +0.021 C 
ATOM     22  C   UNL     1      33.259 -15.076 -21.642  0.00  0.00    +0.017 C 
ATOM     23  C   UNL     1      32.461 -13.677 -23.443  0.00  0.00    +0.017 C 
BRANCH  18  24
ATOM     24  S   UNL     1      34.476 -16.741 -25.098  0.00  0.00    +0.060 S 
ATOM     25  O   UNL     1      33.433 -17.553 -25.712  0.00  0.00    -0.153 OA
ATOM     26  O   UNL     1      35.352 -15.944 -25.948  0.00  0.00    -0.153 OA
BRANCH  24  27
ATOM     27  N   UNL     1      35.442 -17.748 -24.110  0.00  0.00    -0.177 NA
ATOM     28  H   UNL     1      35.559 -17.262 -23.221  0.00  0.00    +0.149 HD
BRANCH  27  29
ATOM     29  C   UNL     1      34.993 -19.111 -23.796  0.00  0.00    +0.123 C 
BRANCH  29  30
ATOM     30  C   UNL     1      35.066 -19.337 -22.296  0.00  0.00    +0.161 C 
BRANCH  30  31
ATOM     31  O   UNL     1      33.750 -19.456 -21.772  0.00  0.00    -0.350 OA
ATOM     32  C   UNL     1      33.737 -20.201 -20.561  0.00  0.00    +0.174 C 
ENDBRANCH  30  31
ENDBRANCH  29  30
ENDBRANCH  27  29
ENDBRANCH  24  27
ENDBRANCH  18  24
ENDBRANCH   2  19
TORSDOF 8
ENDMDL
MODEL 7
REMARK VINA RESULT:      -8.6      4.159     11.914
REMARK  Name = 24963033
REMARK  8 active torsions:
REMARK  status: ('A' for Active; 'I' for Inactive)
REMARK    1  A    between atoms: N_2  and  C_19
REMARK    2  A    between atoms: C_4  and  C_11
REMARK    3  A    between atoms: N_9  and  C_15
REMARK    4  A    between atoms: C_18  and  S_24
REMARK    5  A    between atoms: S_24  and  N_27
REMARK    6  A    between atoms: N_27  and  C_29
REMARK    7  A    between atoms: C_29  and  C_30
REMARK    8  A    between atoms: C_30  and  O_31
REMARK                            x       y       z     vdW  Elec       q    Type
REMARK                         _______ _______ _______ _____ _____    ______ ____
ROOT
ATOM      1  N   UNL     1      32.905 -12.219 -22.574  0.00  0.00    -0.336 NA
ATOM      2  N   UNL     1      32.026 -13.654 -20.943  0.00  0.00    -0.247 N 
ATOM      3  N   UNL     1      31.076 -11.523 -21.166  0.00  0.00    -0.170 NA
ATOM      4  C   UNL     1      32.852 -11.012 -23.175  0.00  0.00    +0.161 C 
ATOM      5  C   UNL     1      31.953 -10.023 -22.831  0.00  0.00    +0.056 C 
ATOM      6  C   UNL     1      32.000 -12.405 -21.593  0.00  0.00    +0.149 C 
ATOM      7  C   UNL     1      31.080 -10.338 -21.810  0.00  0.00    +0.114 C 
ATOM      8  H   UNL     1      31.348 -13.745 -20.234  0.00  0.00    +0.165 HD
ENDROOT
BRANCH   4  11
ATOM      9  N   UNL     1      33.949 -11.627 -25.315  0.00  0.00    -0.274 N 
ATOM     10  N   UNL     1      35.495 -10.047 -25.540  0.00  0.00    -0.232 NA
ATOM     11  C   UNL     1      33.820 -10.818 -24.222  0.00  0.00    +0.103 C 
ATOM     12  C   UNL     1      34.967 -11.125 -26.077  0.00  0.00    +0.113 C 
ATOM     13  C   UNL     1      34.784  -9.851 -24.383  0.00  0.00    +0.117 C 
ATOM     14  C   UNL     1      35.385 -11.755 -27.347  0.00  0.00    +0.069 C 
BRANCH   9  15
ATOM     15  C   UNL     1      33.158 -12.798 -25.617  0.00  0.00    +0.078 C 
ATOM     16  C   UNL     1      33.801 -14.072 -25.060  0.00  0.00    +0.022 C 
ATOM     17  C   UNL     1      32.898 -12.931 -27.119  0.00  0.00    +0.022 C 
ENDBRANCH   9  15
ENDBRANCH   4  11
BRANCH   2  19
ATOM     18  C   UNL     1      34.420 -17.070 -21.436  0.00  0.00    +0.122 C 
ATOM     19  C   UNL     1      32.829 -14.801 -21.109  0.00  0.00    +0.058 C 
ATOM     20  C   UNL     1      33.100 -17.200 -21.004  0.00  0.00    +0.021 C 
ATOM     21  C   UNL     1      34.945 -15.806 -21.704  0.00  0.00    +0.021 C 
ATOM     22  C   UNL     1      32.304 -16.065 -20.841  0.00  0.00    +0.017 C 
ATOM     23  C   UNL     1      34.150 -14.671 -21.540  0.00  0.00    +0.017 C 
BRANCH  18  24
ATOM     24  S   UNL     1      35.416 -18.489 -21.639  0.00  0.00    +0.060 S 
ATOM     25  O   UNL     1      35.875 -18.547 -23.021  0.00  0.00    -0.153 OA
ATOM     26  O   UNL     1      36.397 -18.502 -20.561  0.00  0.00    -0.153 OA
BRANCH  24  27
ATOM     27  N   UNL     1      34.304 -19.761 -21.379  0.00  0.00    -0.177 NA
ATOM     28  H   UNL     1      34.322 -20.344 -22.215  0.00  0.00    +0.149 HD
BRANCH  27  29
ATOM     29  C   UNL     1      34.477 -20.660 -20.229  0.00  0.00    +0.123 C 
BRANCH  29  30
ATOM     30  C   UNL     1      33.119 -21.004 -19.643  0.00  0.00    +0.161 C 
BRANCH  30  31
ATOM     31  O   UNL     1      33.029 -22.410 -19.453  0.00  0.00    -0.350 OA
ATOM     32  C   UNL     1      33.411 -22.782 -18.135  0.00  0.00    +0.174 C 
ENDBRANCH  30  31
ENDBRANCH  29  30
ENDBRANCH  27  29
ENDBRANCH  24  27
ENDBRANCH  18  24
ENDBRANCH   2  19
TORSDOF 8
ENDMDL
MODEL 8
REMARK VINA RESULT:      -8.3      1.980      2.974
REMARK  Name = 24963033
REMARK  8 active torsions:
REMARK  status: ('A' for Active; 'I' for Inactive)
REMARK    1  A    between atoms: N_2  and  C_19
REMARK    2  A    between atoms: C_4  and  C_11
REMARK    3  A    between atoms: N_9  and  C_15
REMARK    4  A    between atoms: C_18  and  S_24
REMARK    5  A    between atoms: S_24  and  N_27
REMARK    6  A    between atoms: N_27  and  C_29
REMARK    7  A    between atoms: C_29  and  C_30
REMARK    8  A    between atoms: C_30  and  O_31
REMARK                            x       y       z     vdW  Elec       q    Type
REMARK                         _______ _______ _______ _____ _____    ______ ____
ROOT
ATOM      1  N   UNL     1      33.361 -23.758 -14.987  0.00  0.00    -0.336 NA
ATOM      2  N   UNL     1      32.154 -23.322 -16.947  0.00  0.00    -0.247 N 
ATOM      3  N   UNL     1      31.053 -24.421 -15.195  0.00  0.00    -0.170 NA
ATOM      4  C   UNL     1      33.360 -24.282 -13.744  0.00  0.00    +0.161 C 
ATOM      5  C   UNL     1      32.262 -24.884 -13.166  0.00  0.00    +0.056 C 
ATOM      6  C   UNL     1      32.190 -23.859 -15.646  0.00  0.00    +0.149 C 
ATOM      7  C   UNL     1      31.124 -24.925 -13.945  0.00  0.00    +0.114 C 
ATOM      8  H   UNL     1      31.279 -23.419 -17.391  0.00  0.00    +0.165 HD
ENDROOT
BRANCH   4  11
ATOM      9  N   UNL     1      35.836 -24.411 -13.604  0.00  0.00    -0.274 N 
ATOM     10  N   UNL     1      36.233 -23.848 -11.492  0.00  0.00    -0.232 NA
ATOM     11  C   UNL     1      34.613 -24.172 -13.043  0.00  0.00    +0.103 C 
ATOM     12  C   UNL     1      36.777 -24.204 -12.635  0.00  0.00    +0.113 C 
ATOM     13  C   UNL     1      34.884 -23.826 -11.741  0.00  0.00    +0.117 C 
ATOM     14  C   UNL     1      38.223 -24.373 -12.891  0.00  0.00    +0.069 C 
BRANCH   9  15
ATOM     15  C   UNL     1      36.093 -24.809 -14.969  0.00  0.00    +0.078 C 
ATOM     16  C   UNL     1      36.424 -26.301 -15.069  0.00  0.00    +0.022 C 
ATOM     17  C   UNL     1      37.199 -23.962 -15.604  0.00  0.00    +0.022 C 
ENDBRANCH   9  15
ENDBRANCH   4  11
BRANCH   2  19
ATOM     18  C   UNL     1      35.037 -21.385 -19.310  0.00  0.00    +0.122 C 
ATOM     19  C   UNL     1      33.122 -22.671 -17.740  0.00  0.00    +0.058 C 
ATOM     20  C   UNL     1      33.682 -21.239 -19.604  0.00  0.00    +0.021 C 
ATOM     21  C   UNL     1      35.435 -22.174 -18.231  0.00  0.00    +0.021 C 
ATOM     22  C   UNL     1      32.724 -21.882 -18.820  0.00  0.00    +0.017 C 
ATOM     23  C   UNL     1      34.478 -22.817 -17.446  0.00  0.00    +0.017 C 
BRANCH  18  24
ATOM     24  S   UNL     1      36.236 -20.582 -20.292  0.00  0.00    +0.060 S 
ATOM     25  O   UNL     1      36.955 -19.622 -19.464  0.00  0.00    -0.153 OA
ATOM     26  O   UNL     1      36.984 -21.608 -21.007  0.00  0.00    -0.153 OA
BRANCH  24  27
ATOM     27  N   UNL     1      35.276 -19.723 -21.416  0.00  0.00    -0.177 NA
ATOM     28  H   UNL     1      34.465 -19.375 -20.906  0.00  0.00    +0.149 HD
BRANCH  27  29
ATOM     29  C   UNL     1      35.847 -18.579 -22.142  0.00  0.00    +0.123 C 
BRANCH  29  30
ATOM     30  C   UNL     1      34.789 -17.971 -23.044  0.00  0.00    +0.161 C 
BRANCH  30  31
ATOM     31  O   UNL     1      35.347 -17.730 -24.330  0.00  0.00    -0.350 OA
ATOM     32  C   UNL     1      34.528 -16.859 -25.099  0.00  0.00    +0.174 C 
ENDBRANCH  30  31
ENDBRANCH  29  30
ENDBRANCH  27  29
ENDBRANCH  24  27
ENDBRANCH  18  24
ENDBRANCH   2  19
TORSDOF 8
ENDMDL
MODEL 9
REMARK VINA RESULT:      -8.1      4.762      9.164
REMARK  Name = 24963033
REMARK  8 active torsions:
REMARK  status: ('A' for Active; 'I' for Inactive)
REMARK    1  A    between atoms: N_2  and  C_19
REMARK    2  A    between atoms: C_4  and  C_11
REMARK    3  A    between atoms: N_9  and  C_15
REMARK    4  A    between atoms: C_18  and  S_24
REMARK    5  A    between atoms: S_24  and  N_27
REMARK    6  A    between atoms: N_27  and  C_29
REMARK    7  A    between atoms: C_29  and  C_30
REMARK    8  A    between atoms: C_30  and  O_31
REMARK                            x       y       z     vdW  Elec       q    Type
REMARK                         _______ _______ _______ _____ _____    ______ ____
ROOT
ATOM      1  N   UNL     1      34.841 -22.029 -18.354  0.00  0.00    -0.336 NA
ATOM      2  N   UNL     1      34.087 -23.508 -16.700  0.00  0.00    -0.247 N 
ATOM      3  N   UNL     1      32.494 -22.526 -18.111  0.00  0.00    -0.170 NA
ATOM      4  C   UNL     1      34.522 -21.212 -19.380  0.00  0.00    +0.161 C 
ATOM      5  C   UNL     1      33.233 -21.003 -19.822  0.00  0.00    +0.056 C 
ATOM      6  C   UNL     1      33.792 -22.646 -17.774  0.00  0.00    +0.149 C 
ATOM      7  C   UNL     1      32.249 -21.693 -19.144  0.00  0.00    +0.114 C 
ATOM      8  H   UNL     1      33.291 -23.936 -16.307  0.00  0.00    +0.165 HD
ENDROOT
BRANCH   4  11
ATOM      9  N   UNL     1      35.545 -19.621 -20.988  0.00  0.00    -0.274 N 
ATOM     10  N   UNL     1      37.717 -19.855 -20.589  0.00  0.00    -0.232 NA
ATOM     11  C   UNL     1      35.645 -20.555 -19.996  0.00  0.00    +0.103 C 
ATOM     12  C   UNL     1      36.814 -19.230 -21.312  0.00  0.00    +0.113 C 
ATOM     13  C   UNL     1      36.994 -20.682 -19.767  0.00  0.00    +0.117 C 
ATOM     14  C   UNL     1      37.086 -18.222 -22.357  0.00  0.00    +0.069 C 
BRANCH   9  15
ATOM     15  C   UNL     1      34.324 -19.132 -21.589  0.00  0.00    +0.078 C 
ATOM     16  C   UNL     1      34.347 -19.279 -23.113  0.00  0.00    +0.022 C 
ATOM     17  C   UNL     1      34.040 -17.682 -21.186  0.00  0.00    +0.022 C 
ENDBRANCH   9  15
ENDBRANCH   4  11
BRANCH   2  19
ATOM     18  C   UNL     1      37.689 -24.615 -14.843  0.00  0.00    +0.122 C 
ATOM     19  C   UNL     1      35.296 -23.879 -16.076  0.00  0.00    +0.058 C 
ATOM     20  C   UNL     1      37.548 -23.339 -15.388  0.00  0.00    +0.021 C 
ATOM     21  C   UNL     1      36.633 -25.524 -14.915  0.00  0.00    +0.021 C 
ATOM     22  C   UNL     1      36.352 -22.970 -16.004  0.00  0.00    +0.017 C 
ATOM     23  C   UNL     1      35.437 -25.156 -15.532  0.00  0.00    +0.017 C 
BRANCH  18  24
ATOM     24  S   UNL     1      39.185 -25.076 -14.073  0.00  0.00    +0.060 S 
ATOM     25  O   UNL     1      39.121 -26.491 -13.731  0.00  0.00    -0.153 OA
ATOM     26  O   UNL     1      40.280 -24.593 -14.905  0.00  0.00    -0.153 OA
BRANCH  24  27
ATOM     27  N   UNL     1      39.154 -24.162 -12.629  0.00  0.00    -0.177 NA
ATOM     28  H   UNL     1      39.204 -23.181 -12.900  0.00  0.00    +0.149 HD
BRANCH  27  29
ATOM     29  C   UNL     1      38.018 -24.292 -11.706  0.00  0.00    +0.123 C 
BRANCH  29  30
ATOM     30  C   UNL     1      37.225 -22.997 -11.690  0.00  0.00    +0.161 C 
BRANCH  30  31
ATOM     31  O   UNL     1      35.920 -23.236 -12.200  0.00  0.00    -0.350 OA
ATOM     32  C   UNL     1      35.375 -24.446 -11.688  0.00  0.00    +0.174 C 
ENDBRANCH  30  31
ENDBRANCH  29  30
ENDBRANCH  27  29
ENDBRANCH  24  27
ENDBRANCH  18  24
ENDBRANCH   2  19
TORSDOF 8
ENDMDL
