MODEL 1
REMARK VINA RESULT:     -11.2      0.000      0.000
REMARK  Name = 107706
REMARK  10 active torsions:
REMARK  status: ('A' for Active; 'I' for Inactive)
REMARK    1  A    between atoms: N_1  and  C_3
REMARK    2  A    between atoms: N_1  and  S_18
REMARK    3  A    between atoms: C_4  and  C_11
REMARK    4  A    between atoms: N_10  and  C_13
REMARK    5  A    between atoms: C_13  and  C_15
REMARK    6  A    between atoms: C_15  and  O_16
REMARK    7  A    between atoms: S_18  and  C_21
REMARK    8  A    between atoms: C_22  and  O_27
REMARK    9  A    between atoms: O_27  and  C_29
REMARK   10  A    between atoms: C_29  and  C_30
REMARK                            x       y       z     vdW  Elec       q    Type
REMARK                         _______ _______ _______ _____ _____    ______ ____
ROOT
ATOM      1  N   UNL     1      34.856 -22.566 -17.413  0.00  0.00    -0.215 N 
ATOM      2  H   UNL     1      35.726 -22.121 -17.531  0.00  0.00    +0.174 HD
ENDROOT
BRANCH   1   3
ATOM      3  C   UNL     1      34.493 -23.156 -16.153  0.00  0.00    +0.069 C 
ATOM      4  C   UNL     1      35.468 -23.566 -15.243  0.00  0.00    +0.068 C 
ATOM      5  C   UNL     1      33.141 -23.317 -15.846  0.00  0.00    +0.016 C 
ATOM      6  C   UNL     1      35.092 -24.135 -14.027  0.00  0.00    +0.006 C 
ATOM      7  C   UNL     1      32.766 -23.887 -14.629  0.00  0.00    +0.001 C 
ATOM      8  C   UNL     1      33.741 -24.298 -13.720  0.00  0.00    +0.000 C 
BRANCH   4  11
ATOM      9  O   UNL     1      37.304 -22.386 -16.102  0.00  0.00    -0.270 OA
ATOM     10  N   UNL     1      37.735 -24.443 -15.121  0.00  0.00    -0.291 N 
ATOM     11  C   UNL     1      36.888 -23.410 -15.533  0.00  0.00    +0.247 C 
ATOM     12  H   UNL     1      37.335 -25.225 -14.677  0.00  0.00    +0.150 HD
BRANCH  10  13
ATOM     13  C   UNL     1      39.167 -24.424 -15.315  0.00  0.00    +0.201 C 
BRANCH  13  15
ATOM     14  O   UNL     1      41.045 -25.832 -14.780  0.00  0.00    -0.248 OA
ATOM     15  C   UNL     1      39.832 -25.712 -14.902  0.00  0.00    +0.334 C 
BRANCH  15  16
ATOM     16  O   UNL     1      38.961 -26.724 -14.679  0.00  0.00    -0.479 OA
ATOM     17  H   UNL     1      39.174 -27.398 -14.064  0.00  0.00    +0.295 HD
ENDBRANCH  15  16
ENDBRANCH  13  15
ENDBRANCH  10  13
ENDBRANCH   4  11
ENDBRANCH   1   3
BRANCH   1  18
ATOM     18  S   UNL     1      33.725 -22.661 -18.709  0.00  0.00    +0.074 S 
ATOM     19  O   UNL     1      34.055 -23.833 -19.512  0.00  0.00    -0.150 OA
ATOM     20  O   UNL     1      32.372 -22.525 -18.187  0.00  0.00    -0.150 OA
BRANCH  18  21
ATOM     21  C   UNL     1      34.104 -21.244 -19.658  0.00  0.00    +0.125 C 
ATOM     22  C   UNL     1      34.707 -18.981 -21.173  0.00  0.00    +0.149 C 
ATOM     23  C   UNL     1      33.075 -20.447 -20.160  0.00  0.00    +0.023 C 
ATOM     24  C   UNL     1      35.433 -20.910 -19.913  0.00  0.00    +0.023 C 
ATOM     25  C   UNL     1      33.377 -19.315 -20.918  0.00  0.00    +0.039 C 
ATOM     26  C   UNL     1      35.735 -19.778 -20.670  0.00  0.00    +0.039 C 
BRANCH  22  27
ATOM     27  O   UNL     1      35.009 -17.847 -21.930  0.00  0.00    -0.424 OA
BRANCH  27  29
ATOM     28  O   UNL     1      35.303 -16.404 -20.121  0.00  0.00    -0.250 OA
ATOM     29  C   UNL     1      34.839 -16.655 -21.227  0.00  0.00    +0.320 C 
BRANCH  29  30
ATOM     30  C   UNL     1      33.979 -15.688 -22.051  0.00  0.00    +0.090 C 
ATOM     31  C   UNL     1      33.958 -16.144 -23.515  0.00  0.00    +0.011 C 
ATOM     32  C   UNL     1      32.556 -15.652 -21.479  0.00  0.00    +0.011 C 
ATOM     33  C   UNL     1      34.584 -14.277 -21.975  0.00  0.00    +0.011 C 
ENDBRANCH  29  30
ENDBRANCH  27  29
ENDBRANCH  22  27
ENDBRANCH  18  21
ENDBRANCH   1  18
TORSDOF 10
ENDMDL
MODEL 2
REMARK VINA RESULT:     -11.2      2.761      5.607
REMARK  Name = 107706
REMARK  10 active torsions:
REMARK  status: ('A' for Active; 'I' for Inactive)
REMARK    1  A    between atoms: N_1  and  C_3
REMARK    2  A    between atoms: N_1  and  S_18
REMARK    3  A    between atoms: C_4  and  C_11
REMARK    4  A    between atoms: N_10  and  C_13
REMARK    5  A    between atoms: C_13  and  C_15
REMARK    6  A    between atoms: C_15  and  O_16
REMARK    7  A    between atoms: S_18  and  C_21
REMARK    8  A    between atoms: C_22  and  O_27
REMARK    9  A    between atoms: O_27  and  C_29
REMARK   10  A    between atoms: C_29  and  C_30
REMARK                            x       y       z     vdW  Elec       q    Type
REMARK                         _______ _______ _______ _____ _____    ______ ____
ROOT
ATOM      1  N   UNL     1      32.786 -22.472 -17.549  0.00  0.00    -0.215 N 
ATOM      2  H   UNL     1      32.129 -21.789 -17.815  0.00  0.00    +0.174 HD
ENDROOT
BRANCH   1   3
ATOM      3  C   UNL     1      32.623 -23.220 -16.331  0.00  0.00    +0.069 C 
ATOM      4  C   UNL     1      31.355 -23.497 -15.822  0.00  0.00    +0.068 C 
ATOM      5  C   UNL     1      33.759 -23.668 -15.656  0.00  0.00    +0.016 C 
ATOM      6  C   UNL     1      31.221 -24.224 -14.639  0.00  0.00    +0.006 C 
ATOM      7  C   UNL     1      33.625 -24.395 -14.473  0.00  0.00    +0.001 C 
ATOM      8  C   UNL     1      32.356 -24.672 -13.963  0.00  0.00    +0.000 C 
BRANCH   4  11
ATOM      9  O   UNL     1      30.148 -21.971 -17.130  0.00  0.00    -0.270 OA
ATOM     10  N   UNL     1      29.030 -23.879 -16.434  0.00  0.00    -0.291 N 
ATOM     11  C   UNL     1      30.149 -23.044 -16.504  0.00  0.00    +0.247 C 
ATOM     12  H   UNL     1      29.103 -24.715 -15.919  0.00  0.00    +0.150 HD
BRANCH  10  13
ATOM     13  C   UNL     1      27.771 -23.580 -17.077  0.00  0.00    +0.201 C 
BRANCH  13  15
ATOM     14  O   UNL     1      26.498 -22.388 -15.417  0.00  0.00    -0.248 OA
ATOM     15  C   UNL     1      27.086 -22.372 -16.492  0.00  0.00    +0.334 C 
BRANCH  15  16
ATOM     16  O   UNL     1      27.181 -21.266 -17.267  0.00  0.00    -0.479 OA
ATOM     17  H   UNL     1      27.927 -21.147 -17.822  0.00  0.00    +0.295 HD
ENDBRANCH  15  16
ENDBRANCH  13  15
ENDBRANCH  10  13
ENDBRANCH   4  11
ENDBRANCH   1   3
BRANCH   1  18
ATOM     18  S   UNL     1      34.163 -22.807 -18.528  0.00  0.00    +0.074 S 
ATOM     19  O   UNL     1      35.339 -22.812 -17.667  0.00  0.00    -0.150 OA
ATOM     20  O   UNL     1      33.897 -23.972 -19.362  0.00  0.00    -0.150 OA
BRANCH  18  21
ATOM     21  C   UNL     1      34.261 -21.396 -19.554  0.00  0.00    +0.125 C 
ATOM     22  C   UNL     1      34.415 -19.144 -21.192  0.00  0.00    +0.149 C 
ATOM     23  C   UNL     1      33.100 -20.702 -19.896  0.00  0.00    +0.023 C 
ATOM     24  C   UNL     1      35.498 -20.965 -20.031  0.00  0.00    +0.023 C 
ATOM     25  C   UNL     1      33.178 -19.575 -20.715  0.00  0.00    +0.039 C 
ATOM     26  C   UNL     1      35.575 -19.839 -20.850  0.00  0.00    +0.039 C 
BRANCH  22  27
ATOM     27  O   UNL     1      34.493 -18.016 -22.012  0.00  0.00    -0.424 OA
BRANCH  27  29
ATOM     28  O   UNL     1      35.369 -16.707 -20.291  0.00  0.00    -0.250 OA
ATOM     29  C   UNL     1      34.685 -16.832 -21.300  0.00  0.00    +0.320 C 
BRANCH  29  30
ATOM     30  C   UNL     1      33.912 -15.693 -21.975  0.00  0.00    +0.090 C 
ATOM     31  C   UNL     1      33.828 -15.955 -23.483  0.00  0.00    +0.011 C 
ATOM     32  C   UNL     1      32.506 -15.597 -21.367  0.00  0.00    +0.011 C 
ATOM     33  C   UNL     1      34.649 -14.365 -21.738  0.00  0.00    +0.011 C 
ENDBRANCH  29  30
ENDBRANCH  27  29
ENDBRANCH  22  27
ENDBRANCH  18  21
ENDBRANCH   1  18
TORSDOF 10
ENDMDL
MODEL 3
REMARK VINA RESULT:     -10.9      2.379      3.523
REMARK  Name = 107706
REMARK  10 active torsions:
REMARK  status: ('A' for Active; 'I' for Inactive)
REMARK    1  A    between atoms: N_1  and  C_3
REMARK    2  A    between atoms: N_1  and  S_18
REMARK    3  A    between atoms: C_4  and  C_11
REMARK    4  A    between atoms: N_10  and  C_13
REMARK    5  A    between atoms: C_13  and  C_15
REMARK    6  A    between atoms: C_15  and  O_16
REMARK    7  A    between atoms: S_18  and  C_21
REMARK    8  A    between atoms: C_22  and  O_27
REMARK    9  A    between atoms: O_27  and  C_29
REMARK   10  A    between atoms: C_29  and  C_30
REMARK                            x       y       z     vdW  Elec       q    Type
REMARK                         _______ _______ _______ _____ _____    ______ ____
ROOT
ATOM      1  N   UNL     1      34.679 -22.466 -14.888  0.00  0.00    -0.215 N 
ATOM      2  H   UNL     1      34.705 -21.550 -14.530  0.00  0.00    +0.174 HD
ENDROOT
BRANCH   1   3
ATOM      3  C   UNL     1      33.542 -23.317 -14.659  0.00  0.00    +0.069 C 
ATOM      4  C   UNL     1      33.516 -24.211 -13.589  0.00  0.00    +0.068 C 
ATOM      5  C   UNL     1      32.453 -23.238 -15.528  0.00  0.00    +0.016 C 
ATOM      6  C   UNL     1      32.403 -25.026 -13.387  0.00  0.00    +0.006 C 
ATOM      7  C   UNL     1      31.339 -24.053 -15.326  0.00  0.00    +0.001 C 
ATOM      8  C   UNL     1      31.314 -24.948 -14.255  0.00  0.00    +0.000 C 
BRANCH   4  11
ATOM      9  O   UNL     1      34.626 -23.689 -11.590  0.00  0.00    -0.270 OA
ATOM     10  N   UNL     1      35.687 -25.162 -13.033  0.00  0.00    -0.291 N 
ATOM     11  C   UNL     1      34.637 -24.316 -12.663  0.00  0.00    +0.247 C 
ATOM     12  H   UNL     1      35.628 -25.627 -13.899  0.00  0.00    +0.150 HD
BRANCH  10  13
ATOM     13  C   UNL     1      36.854 -25.390 -12.212  0.00  0.00    +0.201 C 
BRANCH  13  15
ATOM     14  O   UNL     1      38.033 -23.441 -11.433  0.00  0.00    -0.248 OA
ATOM     15  C   UNL     1      37.867 -24.278 -12.312  0.00  0.00    +0.334 C 
BRANCH  15  16
ATOM     16  O   UNL     1      38.576 -24.293 -13.465  0.00  0.00    -0.479 OA
ATOM     17  H   UNL     1      39.040 -25.067 -13.719  0.00  0.00    +0.295 HD
ENDBRANCH  15  16
ENDBRANCH  13  15
ENDBRANCH  10  13
ENDBRANCH   4  11
ENDBRANCH   1   3
BRANCH   1  18
ATOM     18  S   UNL     1      35.993 -23.098 -15.806  0.00  0.00    +0.074 S 
ATOM     19  O   UNL     1      37.228 -22.540 -15.269  0.00  0.00    -0.150 OA
ATOM     20  O   UNL     1      35.863 -24.545 -15.911  0.00  0.00    -0.150 OA
BRANCH  18  21
ATOM     21  C   UNL     1      35.734 -22.397 -17.385  0.00  0.00    +0.125 C 
ATOM     22  C   UNL     1      35.322 -21.277 -19.905  0.00  0.00    +0.149 C 
ATOM     23  C   UNL     1      36.727 -21.609 -17.968  0.00  0.00    +0.023 C 
ATOM     24  C   UNL     1      34.536 -22.625 -18.061  0.00  0.00    +0.023 C 
ATOM     25  C   UNL     1      36.520 -21.049 -19.229  0.00  0.00    +0.039 C 
ATOM     26  C   UNL     1      34.331 -22.065 -19.322  0.00  0.00    +0.039 C 
BRANCH  22  27
ATOM     27  O   UNL     1      35.115 -20.717 -21.168  0.00  0.00    -0.424 OA
BRANCH  27  29
ATOM     28  O   UNL     1      33.214 -19.511 -20.558  0.00  0.00    -0.250 OA
ATOM     29  C   UNL     1      34.287 -19.595 -21.144  0.00  0.00    +0.320 C 
BRANCH  29  30
ATOM     30  C   UNL     1      34.924 -18.465 -21.962  0.00  0.00    +0.090 C 
ATOM     31  C   UNL     1      34.341 -17.119 -21.514  0.00  0.00    +0.011 C 
ATOM     32  C   UNL     1      36.445 -18.484 -21.764  0.00  0.00    +0.011 C 
ATOM     33  C   UNL     1      34.612 -18.676 -23.452  0.00  0.00    +0.011 C 
ENDBRANCH  29  30
ENDBRANCH  27  29
ENDBRANCH  22  27
ENDBRANCH  18  21
ENDBRANCH   1  18
TORSDOF 10
ENDMDL
MODEL 4
REMARK VINA RESULT:     -10.5      2.091      3.078
REMARK  Name = 107706
REMARK  10 active torsions:
REMARK  status: ('A' for Active; 'I' for Inactive)
REMARK    1  A    between atoms: N_1  and  C_3
REMARK    2  A    between atoms: N_1  and  S_18
REMARK    3  A    between atoms: C_4  and  C_11
REMARK    4  A    between atoms: N_10  and  C_13
REMARK    5  A    between atoms: C_13  and  C_15
REMARK    6  A    between atoms: C_15  and  O_16
REMARK    7  A    between atoms: S_18  and  C_21
REMARK    8  A    between atoms: C_22  and  O_27
REMARK    9  A    between atoms: O_27  and  C_29
REMARK   10  A    between atoms: C_29  and  C_30
REMARK                            x       y       z     vdW  Elec       q    Type
REMARK                         _______ _______ _______ _____ _____    ______ ____
ROOT
ATOM      1  N   UNL     1      33.213 -22.578 -16.032  0.00  0.00    -0.215 N 
ATOM      2  H   UNL     1      33.310 -21.643 -15.739  0.00  0.00    +0.174 HD
ENDROOT
BRANCH   1   3
ATOM      3  C   UNL     1      32.186 -23.422 -15.483  0.00  0.00    +0.069 C 
ATOM      4  C   UNL     1      32.462 -24.299 -14.434  0.00  0.00    +0.068 C 
ATOM      5  C   UNL     1      30.899 -23.355 -16.015  0.00  0.00    +0.016 C 
ATOM      6  C   UNL     1      31.451 -25.108 -13.916  0.00  0.00    +0.006 C 
ATOM      7  C   UNL     1      29.887 -24.164 -15.498  0.00  0.00    +0.001 C 
ATOM      8  C   UNL     1      30.163 -25.042 -14.449  0.00  0.00    +0.000 C 
BRANCH   4  11
ATOM      9  O   UNL     1      34.052 -23.836 -12.773  0.00  0.00    -0.270 OA
ATOM     10  N   UNL     1      34.741 -25.146 -14.558  0.00  0.00    -0.291 N 
ATOM     11  C   UNL     1      33.796 -24.392 -13.855  0.00  0.00    +0.247 C 
ATOM     12  H   UNL     1      34.468 -25.558 -15.410  0.00  0.00    +0.150 HD
BRANCH  10  13
ATOM     13  C   UNL     1      36.097 -25.352 -14.102  0.00  0.00    +0.201 C 
BRANCH  13  15
ATOM     14  O   UNL     1      36.437 -26.893 -15.919  0.00  0.00    -0.248 OA
ATOM     15  C   UNL     1      36.794 -26.476 -14.824  0.00  0.00    +0.334 C 
BRANCH  15  16
ATOM     16  O   UNL     1      37.852 -26.980 -14.147  0.00  0.00    -0.479 OA
ATOM     17  H   UNL     1      38.715 -26.656 -14.319  0.00  0.00    +0.295 HD
ENDBRANCH  15  16
ENDBRANCH  13  15
ENDBRANCH  10  13
ENDBRANCH   4  11
ENDBRANCH   1   3
BRANCH   1  18
ATOM     18  S   UNL     1      34.268 -23.250 -17.217  0.00  0.00    +0.074 S 
ATOM     19  O   UNL     1      35.632 -23.157 -16.712  0.00  0.00    -0.150 OA
ATOM     20  O   UNL     1      33.762 -24.549 -17.639  0.00  0.00    -0.150 OA
BRANCH  18  21
ATOM     21  C   UNL     1      34.116 -22.131 -18.549  0.00  0.00    +0.125 C 
ATOM     22  C   UNL     1      33.875 -20.342 -20.676  0.00  0.00    +0.149 C 
ATOM     23  C   UNL     1      35.251 -21.729 -19.255  0.00  0.00    +0.023 C 
ATOM     24  C   UNL     1      32.862 -21.638 -18.907  0.00  0.00    +0.023 C 
ATOM     25  C   UNL     1      35.130 -20.835 -20.319  0.00  0.00    +0.039 C 
ATOM     26  C   UNL     1      32.741 -20.745 -19.971  0.00  0.00    +0.039 C 
BRANCH  22  27
ATOM     27  O   UNL     1      33.754 -19.448 -21.742  0.00  0.00    -0.424 OA
BRANCH  27  29
ATOM     28  O   UNL     1      34.407 -17.536 -20.576  0.00  0.00    -0.250 OA
ATOM     29  C   UNL     1      34.475 -18.270 -21.556  0.00  0.00    +0.320 C 
BRANCH  29  30
ATOM     30  C   UNL     1      35.383 -18.023 -22.767  0.00  0.00    +0.090 C 
ATOM     31  C   UNL     1      35.284 -16.552 -23.189  0.00  0.00    +0.011 C 
ATOM     32  C   UNL     1      36.830 -18.382 -22.405  0.00  0.00    +0.011 C 
ATOM     33  C   UNL     1      34.926 -18.911 -23.936  0.00  0.00    +0.011 C 
ENDBRANCH  29  30
ENDBRANCH  27  29
ENDBRANCH  22  27
ENDBRANCH  18  21
ENDBRANCH   1  18
TORSDOF 10
ENDMDL
MODEL 5
REMARK VINA RESULT:     -10.3      4.566      8.476
REMARK  Name = 107706
REMARK  10 active torsions:
REMARK  status: ('A' for Active; 'I' for Inactive)
REMARK    1  A    between atoms: N_1  and  C_3
REMARK    2  A    between atoms: N_1  and  S_18
REMARK    3  A    between atoms: C_4  and  C_11
REMARK    4  A    between atoms: N_10  and  C_13
REMARK    5  A    between atoms: C_13  and  C_15
REMARK    6  A    between atoms: C_15  and  O_16
REMARK    7  A    between atoms: S_18  and  C_21
REMARK    8  A    between atoms: C_22  and  O_27
REMARK    9  A    between atoms: O_27  and  C_29
REMARK   10  A    between atoms: C_29  and  C_30
REMARK                            x       y       z     vdW  Elec       q    Type
REMARK                         _______ _______ _______ _____ _____    ______ ____
ROOT
ATOM      1  N   UNL     1      35.351 -16.287 -22.225  0.00  0.00    -0.215 N 
ATOM      2  H   UNL     1      36.271 -15.945 -22.163  0.00  0.00    +0.174 HD
ENDROOT
BRANCH   1   3
ATOM      3  C   UNL     1      34.981 -17.232 -23.245  0.00  0.00    +0.069 C 
ATOM      4  C   UNL     1      35.049 -18.606 -23.011  0.00  0.00    +0.068 C 
ATOM      5  C   UNL     1      34.550 -16.756 -24.484  0.00  0.00    +0.016 C 
ATOM      6  C   UNL     1      34.685 -19.503 -24.014  0.00  0.00    +0.006 C 
ATOM      7  C   UNL     1      34.186 -17.654 -25.488  0.00  0.00    +0.001 C 
ATOM      8  C   UNL     1      34.255 -19.028 -25.254  0.00  0.00    +0.000 C 
BRANCH   4  11
ATOM      9  O   UNL     1      36.496 -18.661 -21.167  0.00  0.00    -0.270 OA
ATOM     10  N   UNL     1      34.729 -20.163 -21.168  0.00  0.00    -0.291 N 
ATOM     11  C   UNL     1      35.493 -19.134 -21.728  0.00  0.00    +0.247 C 
ATOM     12  H   UNL     1      33.948 -20.489 -21.669  0.00  0.00    +0.150 HD
BRANCH  10  13
ATOM     13  C   UNL     1      35.027 -20.773 -19.892  0.00  0.00    +0.201 C 
BRANCH  13  15
ATOM     14  O   UNL     1      32.834 -21.410 -19.131  0.00  0.00    -0.248 OA
ATOM     15  C   UNL     1      33.969 -21.749 -19.447  0.00  0.00    +0.334 C 
BRANCH  15  16
ATOM     16  O   UNL     1      34.390 -23.035 -19.430  0.00  0.00    -0.479 OA
ATOM     17  H   UNL     1      34.321 -23.540 -18.643  0.00  0.00    +0.295 HD
ENDBRANCH  15  16
ENDBRANCH  13  15
ENDBRANCH  10  13
ENDBRANCH   4  11
ENDBRANCH   1   3
BRANCH   1  18
ATOM     18  S   UNL     1      34.136 -15.773 -21.117  0.00  0.00    +0.074 S 
ATOM     19  O   UNL     1      33.036 -16.728 -21.177  0.00  0.00    -0.150 OA
ATOM     20  O   UNL     1      34.746 -15.484 -19.826  0.00  0.00    -0.150 OA
BRANCH  18  21
ATOM     21  C   UNL     1      33.579 -14.275 -21.821  0.00  0.00    +0.125 C 
ATOM     22  C   UNL     1      32.689 -11.883 -22.946  0.00  0.00    +0.149 C 
ATOM     23  C   UNL     1      32.576 -13.539 -21.190  0.00  0.00    +0.023 C 
ATOM     24  C   UNL     1      34.136 -13.816 -23.014  0.00  0.00    +0.023 C 
ATOM     25  C   UNL     1      32.131 -12.342 -21.753  0.00  0.00    +0.039 C 
ATOM     26  C   UNL     1      33.691 -12.619 -23.576  0.00  0.00    +0.039 C 
BRANCH  22  27
ATOM     27  O   UNL     1      32.244 -10.684 -23.508  0.00  0.00    -0.424 OA
BRANCH  27  29
ATOM     28  O   UNL     1      34.343  -9.719 -23.828  0.00  0.00    -0.250 OA
ATOM     29  C   UNL     1      33.185  -9.658 -23.431  0.00  0.00    +0.320 C 
BRANCH  29  30
ATOM     30  C   UNL     1      32.553  -8.425 -22.775  0.00  0.00    +0.090 C 
ATOM     31  C   UNL     1      33.445  -7.202 -23.017  0.00  0.00    +0.011 C 
ATOM     32  C   UNL     1      31.153  -8.194 -23.359  0.00  0.00    +0.011 C 
ATOM     33  C   UNL     1      32.428  -8.661 -21.261  0.00  0.00    +0.011 C 
ENDBRANCH  29  30
ENDBRANCH  27  29
ENDBRANCH  22  27
ENDBRANCH  18  21
ENDBRANCH   1  18
TORSDOF 10
ENDMDL
MODEL 6
REMARK VINA RESULT:     -10.0      5.063      9.180
REMARK  Name = 107706
REMARK  10 active torsions:
REMARK  status: ('A' for Active; 'I' for Inactive)
REMARK    1  A    between atoms: N_1  and  C_3
REMARK    2  A    between atoms: N_1  and  S_18
REMARK    3  A    between atoms: C_4  and  C_11
REMARK    4  A    between atoms: N_10  and  C_13
REMARK    5  A    between atoms: C_13  and  C_15
REMARK    6  A    between atoms: C_15  and  O_16
REMARK    7  A    between atoms: S_18  and  C_21
REMARK    8  A    between atoms: C_22  and  O_27
REMARK    9  A    between atoms: O_27  and  C_29
REMARK   10  A    between atoms: C_29  and  C_30
REMARK                            x       y       z     vdW  Elec       q    Type
REMARK                         _______ _______ _______ _____ _____    ______ ____
ROOT
ATOM      1  N   UNL     1      34.422 -15.360 -21.770  0.00  0.00    -0.215 N 
ATOM      2  H   UNL     1      35.236 -14.919 -21.437  0.00  0.00    +0.174 HD
ENDROOT
BRANCH   1   3
ATOM      3  C   UNL     1      34.453 -16.170 -22.958  0.00  0.00    +0.069 C 
ATOM      4  C   UNL     1      34.721 -17.537 -22.889  0.00  0.00    +0.068 C 
ATOM      5  C   UNL     1      34.211 -15.569 -24.194  0.00  0.00    +0.016 C 
ATOM      6  C   UNL     1      34.747 -18.304 -24.053  0.00  0.00    +0.006 C 
ATOM      7  C   UNL     1      34.237 -16.336 -25.359  0.00  0.00    +0.001 C 
ATOM      8  C   UNL     1      34.506 -17.703 -25.290  0.00  0.00    +0.000 C 
BRANCH   4  11
ATOM      9  O   UNL     1      35.511 -17.571 -20.681  0.00  0.00    -0.270 OA
ATOM     10  N   UNL     1      34.573 -19.529 -21.497  0.00  0.00    -0.291 N 
ATOM     11  C   UNL     1      34.977 -18.195 -21.614  0.00  0.00    +0.247 C 
ATOM     12  H   UNL     1      34.157 -19.960 -22.278  0.00  0.00    +0.150 HD
BRANCH  10  13
ATOM     13  C   UNL     1      34.736 -20.308 -20.291  0.00  0.00    +0.201 C 
BRANCH  13  15
ATOM     14  O   UNL     1      32.397 -20.397 -19.729  0.00  0.00    -0.248 OA
ATOM     15  C   UNL     1      33.463 -20.988 -19.856  0.00  0.00    +0.334 C 
BRANCH  15  16
ATOM     16  O   UNL     1      33.609 -22.312 -19.617  0.00  0.00    -0.479 OA
ATOM     17  H   UNL     1      33.796 -22.613 -18.749  0.00  0.00    +0.295 HD
ENDBRANCH  15  16
ENDBRANCH  13  15
ENDBRANCH  10  13
ENDBRANCH   4  11
ENDBRANCH   1   3
BRANCH   1  18
ATOM     18  S   UNL     1      32.918 -15.183 -20.949  0.00  0.00    +0.074 S 
ATOM     19  O   UNL     1      31.946 -16.060 -21.591  0.00  0.00    -0.150 OA
ATOM     20  O   UNL     1      33.130 -15.301 -19.512  0.00  0.00    -0.150 OA
BRANCH  18  21
ATOM     21  C   UNL     1      32.469 -13.535 -21.314  0.00  0.00    +0.125 C 
ATOM     22  C   UNL     1      31.751 -10.903 -21.897  0.00  0.00    +0.149 C 
ATOM     23  C   UNL     1      31.839 -12.753 -20.345  0.00  0.00    +0.023 C 
ATOM     24  C   UNL     1      32.740 -13.001 -22.574  0.00  0.00    +0.023 C 
ATOM     25  C   UNL     1      31.481 -11.437 -20.638  0.00  0.00    +0.039 C 
ATOM     26  C   UNL     1      32.381 -11.685 -22.865  0.00  0.00    +0.039 C 
BRANCH  22  27
ATOM     27  O   UNL     1      31.394  -9.585 -22.189  0.00  0.00    -0.424 OA
BRANCH  27  29
ATOM     28  O   UNL     1      32.683  -8.681 -20.468  0.00  0.00    -0.250 OA
ATOM     29  C   UNL     1      32.245  -8.644 -21.612  0.00  0.00    +0.320 C 
BRANCH  29  30
ATOM     30  C   UNL     1      32.564  -7.542 -22.631  0.00  0.00    +0.090 C 
ATOM     31  C   UNL     1      31.751  -7.778 -23.910  0.00  0.00    +0.011 C 
ATOM     32  C   UNL     1      32.230  -6.172 -22.026  0.00  0.00    +0.011 C 
ATOM     33  C   UNL     1      34.061  -7.584 -22.975  0.00  0.00    +0.011 C 
ENDBRANCH  29  30
ENDBRANCH  27  29
ENDBRANCH  22  27
ENDBRANCH  18  21
ENDBRANCH   1  18
TORSDOF 10
ENDMDL
MODEL 7
REMARK VINA RESULT:      -9.7      7.904     11.401
REMARK  Name = 107706
REMARK  10 active torsions:
REMARK  status: ('A' for Active; 'I' for Inactive)
REMARK    1  A    between atoms: N_1  and  C_3
REMARK    2  A    between atoms: N_1  and  S_18
REMARK    3  A    between atoms: C_4  and  C_11
REMARK    4  A    between atoms: N_10  and  C_13
REMARK    5  A    between atoms: C_13  and  C_15
REMARK    6  A    between atoms: C_15  and  O_16
REMARK    7  A    between atoms: S_18  and  C_21
REMARK    8  A    between atoms: C_22  and  O_27
REMARK    9  A    between atoms: O_27  and  C_29
REMARK   10  A    between atoms: C_29  and  C_30
REMARK                            x       y       z     vdW  Elec       q    Type
REMARK                         _______ _______ _______ _____ _____    ______ ____
ROOT
ATOM      1  N   UNL     1      34.226 -15.112 -22.970  0.00  0.00    -0.215 N 
ATOM      2  H   UNL     1      34.485 -14.374 -23.568  0.00  0.00    +0.174 HD
ENDROOT
BRANCH   1   3
ATOM      3  C   UNL     1      34.565 -16.474 -23.287  0.00  0.00    +0.069 C 
ATOM      4  C   UNL     1      34.187 -17.044 -24.502  0.00  0.00    +0.068 C 
ATOM      5  C   UNL     1      35.282 -17.226 -22.356  0.00  0.00    +0.016 C 
ATOM      6  C   UNL     1      34.526 -18.366 -24.788  0.00  0.00    +0.006 C 
ATOM      7  C   UNL     1      35.621 -18.549 -22.642  0.00  0.00    +0.001 C 
ATOM      8  C   UNL     1      35.242 -19.120 -23.857  0.00  0.00    +0.000 C 
BRANCH   4  11
ATOM      9  O   UNL     1      32.802 -16.872 -26.386  0.00  0.00    -0.270 OA
ATOM     10  N   UNL     1      33.457 -14.892 -25.373  0.00  0.00    -0.291 N 
ATOM     11  C   UNL     1      33.438 -16.285 -25.495  0.00  0.00    +0.247 C 
ATOM     12  H   UNL     1      33.984 -14.495 -24.642  0.00  0.00    +0.150 HD
BRANCH  10  13
ATOM     13  C   UNL     1      32.746 -14.004 -26.265  0.00  0.00    +0.201 C 
BRANCH  13  15
ATOM     14  O   UNL     1      33.827 -11.856 -26.365  0.00  0.00    -0.248 OA
ATOM     15  C   UNL     1      33.635 -12.952 -26.877  0.00  0.00    +0.334 C 
BRANCH  15  16
ATOM     16  O   UNL     1      34.200 -13.334 -28.046  0.00  0.00    -0.479 OA
ATOM     17  H   UNL     1      34.539 -14.203 -28.140  0.00  0.00    +0.295 HD
ENDBRANCH  15  16
ENDBRANCH  13  15
ENDBRANCH  10  13
ENDBRANCH   4  11
ENDBRANCH   1   3
BRANCH   1  18
ATOM     18  S   UNL     1      33.355 -14.810 -21.515  0.00  0.00    +0.074 S 
ATOM     19  O   UNL     1      32.224 -15.730 -21.466  0.00  0.00    -0.150 OA
ATOM     20  O   UNL     1      34.281 -14.774 -20.390  0.00  0.00    -0.150 OA
BRANCH  18  21
ATOM     21  C   UNL     1      32.721 -13.202 -21.770  0.00  0.00    +0.125 C 
ATOM     22  C   UNL     1      31.709 -10.635 -22.176  0.00  0.00    +0.149 C 
ATOM     23  C   UNL     1      31.850 -12.641 -20.836  0.00  0.00    +0.023 C 
ATOM     24  C   UNL     1      33.086 -12.482 -22.906  0.00  0.00    +0.023 C 
ATOM     25  C   UNL     1      31.344 -11.356 -21.040  0.00  0.00    +0.039 C 
ATOM     26  C   UNL     1      32.580 -11.198 -23.109  0.00  0.00    +0.039 C 
BRANCH  22  27
ATOM     27  O   UNL     1      31.203  -9.349 -22.380  0.00  0.00    -0.424 OA
BRANCH  27  29
ATOM     28  O   UNL     1      32.413  -8.355 -20.651  0.00  0.00    -0.250 OA
ATOM     29  C   UNL     1      31.988  -8.353 -21.800  0.00  0.00    +0.320 C 
BRANCH  29  30
ATOM     30  C   UNL     1      32.249  -7.241 -22.824  0.00  0.00    +0.090 C 
ATOM     31  C   UNL     1      33.700  -7.327 -23.314  0.00  0.00    +0.011 C 
ATOM     32  C   UNL     1      31.276  -7.388 -24.001  0.00  0.00    +0.011 C 
ATOM     33  C   UNL     1      32.025  -5.873 -22.160  0.00  0.00    +0.011 C 
ENDBRANCH  29  30
ENDBRANCH  27  29
ENDBRANCH  22  27
ENDBRANCH  18  21
ENDBRANCH   1  18
TORSDOF 10
ENDMDL
MODEL 8
REMARK VINA RESULT:      -9.5      7.989     14.395
REMARK  Name = 107706
REMARK  10 active torsions:
REMARK  status: ('A' for Active; 'I' for Inactive)
REMARK    1  A    between atoms: N_1  and  C_3
REMARK    2  A    between atoms: N_1  and  S_18
REMARK    3  A    between atoms: C_4  and  C_11
REMARK    4  A    between atoms: N_10  and  C_13
REMARK    5  A    between atoms: C_13  and  C_15
REMARK    6  A    between atoms: C_15  and  O_16
REMARK    7  A    between atoms: S_18  and  C_21
REMARK    8  A    between atoms: C_22  and  O_27
REMARK    9  A    between atoms: O_27  and  C_29
REMARK   10  A    between atoms: C_29  and  C_30
REMARK                            x       y       z     vdW  Elec       q    Type
REMARK                         _______ _______ _______ _____ _____    ______ ____
ROOT
ATOM      1  N   UNL     1      31.549 -10.574 -23.042  0.00  0.00    -0.215 N 
ATOM      2  H   UNL     1      30.809 -10.748 -23.666  0.00  0.00    +0.174 HD
ENDROOT
BRANCH   1   3
ATOM      3  C   UNL     1      32.734  -9.882 -23.474  0.00  0.00    +0.069 C 
ATOM      4  C   UNL     1      32.783  -8.488 -23.502  0.00  0.00    +0.068 C 
ATOM      5  C   UNL     1      33.845 -10.627 -23.871  0.00  0.00    +0.016 C 
ATOM      6  C   UNL     1      33.942  -7.839 -23.925  0.00  0.00    +0.006 C 
ATOM      7  C   UNL     1      35.005  -9.977 -24.295  0.00  0.00    +0.001 C 
ATOM      8  C   UNL     1      35.053  -8.583 -24.323  0.00  0.00    +0.000 C 
BRANCH   4  11
ATOM      9  O   UNL     1      30.489  -8.008 -23.430  0.00  0.00    -0.270 OA
ATOM     10  N   UNL     1      31.906  -6.563 -22.298  0.00  0.00    -0.291 N 
ATOM     11  C   UNL     1      31.640  -7.682 -23.093  0.00  0.00    +0.247 C 
ATOM     12  H   UNL     1      32.844  -6.366 -22.070  0.00  0.00    +0.150 HD
BRANCH  10  13
ATOM     13  C   UNL     1      30.879  -5.681 -21.794  0.00  0.00    +0.201 C 
BRANCH  13  15
ATOM     14  O   UNL     1      30.690  -4.575 -23.924  0.00  0.00    -0.248 OA
ATOM     15  C   UNL     1      30.616  -4.507 -22.703  0.00  0.00    +0.334 C 
BRANCH  15  16
ATOM     16  O   UNL     1      30.290  -3.372 -22.041  0.00  0.00    -0.479 OA
ATOM     17  H   UNL     1      30.230  -2.560 -22.507  0.00  0.00    +0.295 HD
ENDBRANCH  15  16
ENDBRANCH  13  15
ENDBRANCH  10  13
ENDBRANCH   4  11
ENDBRANCH   1   3
BRANCH   1  18
ATOM     18  S   UNL     1      31.464 -11.088 -21.399  0.00  0.00    +0.074 S 
ATOM     19  O   UNL     1      32.399 -10.281 -20.624  0.00  0.00    -0.150 OA
ATOM     20  O   UNL     1      30.071 -11.148 -20.979  0.00  0.00    -0.150 OA
BRANCH  18  21
ATOM     21  C   UNL     1      32.098 -12.714 -21.470  0.00  0.00    +0.125 C 
ATOM     22  C   UNL     1      33.108 -15.312 -21.584  0.00  0.00    +0.149 C 
ATOM     23  C   UNL     1      32.262 -13.345 -22.704  0.00  0.00    +0.023 C 
ATOM     24  C   UNL     1      32.438 -13.382 -20.294  0.00  0.00    +0.023 C 
ATOM     25  C   UNL     1      32.768 -14.644 -22.760  0.00  0.00    +0.039 C 
ATOM     26  C   UNL     1      32.944 -14.680 -20.351  0.00  0.00    +0.039 C 
BRANCH  22  27
ATOM     27  O   UNL     1      33.615 -16.612 -21.640  0.00  0.00    -0.424 OA
BRANCH  27  29
ATOM     28  O   UNL     1      35.327 -15.806 -23.005  0.00  0.00    -0.250 OA
ATOM     29  C   UNL     1      34.724 -16.733 -22.478  0.00  0.00    +0.320 C 
BRANCH  29  30
ATOM     30  C   UNL     1      35.087 -18.214 -22.642  0.00  0.00    +0.090 C 
ATOM     31  C   UNL     1      34.882 -18.632 -24.103  0.00  0.00    +0.011 C 
ATOM     32  C   UNL     1      36.545 -18.434 -22.220  0.00  0.00    +0.011 C 
ATOM     33  C   UNL     1      34.174 -19.066 -21.745  0.00  0.00    +0.011 C 
ENDBRANCH  29  30
ENDBRANCH  27  29
ENDBRANCH  22  27
ENDBRANCH  18  21
ENDBRANCH   1  18
TORSDOF 10
ENDMDL
MODEL 9
REMARK VINA RESULT:      -9.5      9.486     13.083
REMARK  Name = 107706
REMARK  10 active torsions:
REMARK  status: ('A' for Active; 'I' for Inactive)
REMARK    1  A    between atoms: N_1  and  C_3
REMARK    2  A    between atoms: N_1  and  S_18
REMARK    3  A    between atoms: C_4  and  C_11
REMARK    4  A    between atoms: N_10  and  C_13
REMARK    5  A    between atoms: C_13  and  C_15
REMARK    6  A    between atoms: C_15  and  O_16
REMARK    7  A    between atoms: S_18  and  C_21
REMARK    8  A    between atoms: C_22  and  O_27
REMARK    9  A    between atoms: O_27  and  C_29
REMARK   10  A    between atoms: C_29  and  C_30
REMARK                            x       y       z     vdW  Elec       q    Type
REMARK                         _______ _______ _______ _____ _____    ______ ____
ROOT
ATOM      1  N   UNL     1      31.600 -12.675 -22.077  0.00  0.00    -0.215 N 
ATOM      2  H   UNL     1      31.119 -12.620 -22.934  0.00  0.00    +0.174 HD
ENDROOT
BRANCH   1   3
ATOM      3  C   UNL     1      32.596 -13.688 -21.852  0.00  0.00    +0.069 C 
ATOM      4  C   UNL     1      33.511 -14.029 -22.848  0.00  0.00    +0.068 C 
ATOM      5  C   UNL     1      32.638 -14.332 -20.616  0.00  0.00    +0.016 C 
ATOM      6  C   UNL     1      34.469 -15.013 -22.608  0.00  0.00    +0.006 C 
ATOM      7  C   UNL     1      33.596 -15.318 -20.376  0.00  0.00    +0.001 C 
ATOM      8  C   UNL     1      34.511 -15.659 -21.372  0.00  0.00    +0.000 C 
BRANCH   4  11
ATOM      9  O   UNL     1      32.929 -13.911 -25.117  0.00  0.00    -0.270 OA
ATOM     10  N   UNL     1      34.114 -12.122 -24.237  0.00  0.00    -0.291 N 
ATOM     11  C   UNL     1      33.494 -13.373 -24.150  0.00  0.00    +0.247 C 
ATOM     12  H   UNL     1      34.542 -11.757 -23.429  0.00  0.00    +0.150 HD
BRANCH  10  13
ATOM     13  C   UNL     1      34.159 -11.338 -25.450  0.00  0.00    +0.201 C 
BRANCH  13  15
ATOM     14  O   UNL     1      35.923 -10.049 -26.461  0.00  0.00    -0.248 OA
ATOM     15  C   UNL     1      35.282 -10.332 -25.456  0.00  0.00    +0.334 C 
BRANCH  15  16
ATOM     16  O   UNL     1      35.514  -9.771 -24.246  0.00  0.00    -0.479 OA
ATOM     17  H   UNL     1      35.661 -10.317 -23.498  0.00  0.00    +0.295 HD
ENDBRANCH  15  16
ENDBRANCH  13  15
ENDBRANCH  10  13
ENDBRANCH   4  11
ENDBRANCH   1   3
BRANCH   1  18
ATOM     18  S   UNL     1      31.273 -11.562 -20.803  0.00  0.00    +0.074 S 
ATOM     19  O   UNL     1      29.826 -11.460 -20.653  0.00  0.00    -0.150 OA
ATOM     20  O   UNL     1      32.078 -11.904 -19.638  0.00  0.00    -0.150 OA
BRANCH  18  21
ATOM     21  C   UNL     1      31.848 -10.047 -21.456  0.00  0.00    +0.125 C 
ATOM     22  C   UNL     1      32.765  -7.628 -22.497  0.00  0.00    +0.149 C 
ATOM     23  C   UNL     1      32.319  -9.053 -20.598  0.00  0.00    +0.023 C 
ATOM     24  C   UNL     1      31.835  -9.832 -22.833  0.00  0.00    +0.023 C 
ATOM     25  C   UNL     1      32.778  -7.843 -21.119  0.00  0.00    +0.039 C 
ATOM     26  C   UNL     1      32.294  -8.622 -23.354  0.00  0.00    +0.039 C 
BRANCH  22  27
ATOM     27  O   UNL     1      33.226  -6.417 -23.019  0.00  0.00    -0.424 OA
BRANCH  27  29
ATOM     28  O   UNL     1      31.630  -4.934 -22.184  0.00  0.00    -0.250 OA
ATOM     29  C   UNL     1      32.228  -5.448 -23.122  0.00  0.00    +0.320 C 
BRANCH  29  30
ATOM     30  C   UNL     1      31.989  -5.109 -24.599  0.00  0.00    +0.090 C 
ATOM     31  C   UNL     1      30.728  -5.830 -25.091  0.00  0.00    +0.011 C 
ATOM     32  C   UNL     1      31.836  -3.591 -24.758  0.00  0.00    +0.011 C 
ATOM     33  C   UNL     1      33.192  -5.579 -25.432  0.00  0.00    +0.011 C 
ENDBRANCH  29  30
ENDBRANCH  27  29
ENDBRANCH  22  27
ENDBRANCH  18  21
ENDBRANCH   1  18
TORSDOF 10
ENDMDL
