MODEL 1
REMARK VINA RESULT:      -8.2      0.000      0.000
REMARK  Name = 24856357
REMARK  6 active torsions:
REMARK  status: ('A' for Active; 'I' for Inactive)
REMARK    1  A    between atoms: S_1  and  N_5
REMARK    2  A    between atoms: S_1  and  C_14
REMARK    3  A    between atoms: N_6  and  C_10
REMARK    4  A    between atoms: C_10  and  C_11
REMARK    5  A    between atoms: C_11  and  S_12
REMARK    6  A    between atoms: C_17  and  N_20
REMARK                            x       y       z     vdW  Elec       q    Type
REMARK                         _______ _______ _______ _____ _____    ______ ____
ROOT
ATOM      1  S   UNL     1      34.064 -22.682 -18.757  0.00  0.00    +0.077 S 
ATOM      2  O   UNL     1      35.025 -22.600 -17.674  0.00  0.00    -0.150 OA
ATOM      3  O   UNL     1      34.073 -23.814 -19.664  0.00  0.00    -0.150 OA
ENDROOT
BRANCH   1   5
ATOM      4  O   UNL     1      32.725 -23.640 -16.125  0.00  0.00    -0.251 OA
ATOM      5  N   UNL     1      32.487 -22.472 -18.132  0.00  0.00    -0.169 N 
ATOM      6  N   UNL     1      30.696 -22.660 -16.637  0.00  0.00    -0.287 N 
ATOM      7  C   UNL     1      32.016 -22.986 -16.883  0.00  0.00    +0.319 C 
ATOM      8  H   UNL     1      31.850 -21.954 -18.676  0.00  0.00    +0.178 HD
ATOM      9  H   UNL     1      30.211 -22.130 -17.311  0.00  0.00    +0.151 HD
BRANCH   6  10
ATOM     10  C   UNL     1      29.997 -23.060 -15.440  0.00  0.00    +0.102 C 
BRANCH  10  11
ATOM     11  C   UNL     1      28.614 -23.632 -15.721  0.00  0.00    +0.075 C 
BRANCH  11  12
ATOM     12  S   UNL     1      27.621 -22.539 -16.783  0.00  0.00    -0.166 S 
ATOM     13  H   UNL     1      28.363 -22.154 -17.856  0.00  0.00    +0.102 HD
ENDBRANCH  11  12
ENDBRANCH  10  11
ENDBRANCH   6  10
ENDBRANCH   1   5
BRANCH   1  14
ATOM     14  C   UNL     1      34.230 -21.229 -19.751  0.00  0.00    +0.125 C 
ATOM     15  C   UNL     1      33.095 -20.526 -20.154  0.00  0.00    +0.021 C 
ATOM     16  C   UNL     1      35.497 -20.787 -20.132  0.00  0.00    +0.021 C 
ATOM     17  C   UNL     1      34.493 -18.938 -21.321  0.00  0.00    +0.042 C 
ATOM     18  C   UNL     1      33.227 -19.381 -20.939  0.00  0.00    +0.015 C 
ATOM     19  C   UNL     1      35.629 -19.642 -20.917  0.00  0.00    +0.015 C 
BRANCH  17  20
ATOM     20  N   UNL     1      34.627 -17.780 -22.114  0.00  0.00    -0.357 N 
ATOM     21  H   UNL     1      35.425 -17.658 -22.678  0.00  0.00    +0.142 HD
ATOM     22  H   UNL     1      33.921 -17.093 -22.104  0.00  0.00    +0.142 HD
ENDBRANCH  17  20
ENDBRANCH   1  14
TORSDOF 6
ENDMDL
MODEL 2
REMARK VINA RESULT:      -7.9      4.782      7.917
REMARK  Name = 24856357
REMARK  6 active torsions:
REMARK  status: ('A' for Active; 'I' for Inactive)
REMARK    1  A    between atoms: S_1  and  N_5
REMARK    2  A    between atoms: S_1  and  C_14
REMARK    3  A    between atoms: N_6  and  C_10
REMARK    4  A    between atoms: C_10  and  C_11
REMARK    5  A    between atoms: C_11  and  S_12
REMARK    6  A    between atoms: C_17  and  N_20
REMARK                            x       y       z     vdW  Elec       q    Type
REMARK                         _______ _______ _______ _____ _____    ______ ____
ROOT
ATOM      1  S   UNL     1      35.552 -18.705 -22.137  0.00  0.00    +0.077 S 
ATOM      2  O   UNL     1      35.281 -19.145 -23.492  0.00  0.00    -0.150 OA
ATOM      3  O   UNL     1      36.918 -18.551 -21.674  0.00  0.00    -0.150 OA
ENDROOT
BRANCH   1   5
ATOM      4  O   UNL     1      35.520 -15.945 -23.560  0.00  0.00    -0.251 OA
ATOM      5  N   UNL     1      34.684 -17.266 -21.825  0.00  0.00    -0.169 N 
ATOM      6  N   UNL     1      33.963 -15.056 -22.101  0.00  0.00    -0.287 N 
ATOM      7  C   UNL     1      34.784 -16.057 -22.584  0.00  0.00    +0.319 C 
ATOM      8  H   UNL     1      34.065 -17.269 -21.060  0.00  0.00    +0.178 HD
ATOM      9  H   UNL     1      33.409 -15.246 -21.309  0.00  0.00    +0.151 HD
BRANCH   6  10
ATOM     10  C   UNL     1      33.883 -13.747 -22.701  0.00  0.00    +0.102 C 
BRANCH  10  11
ATOM     11  C   UNL     1      32.672 -13.581 -23.609  0.00  0.00    +0.075 C 
BRANCH  11  12
ATOM     12  S   UNL     1      33.030 -14.060 -25.326  0.00  0.00    -0.166 S 
ATOM     13  H   UNL     1      32.244 -13.338 -26.171  0.00  0.00    +0.102 HD
ENDBRANCH  11  12
ENDBRANCH  10  11
ENDBRANCH   6  10
ENDBRANCH   1   5
BRANCH   1  14
ATOM     14  C   UNL     1      34.758 -19.827 -21.025  0.00  0.00    +0.125 C 
ATOM     15  C   UNL     1      35.514 -20.768 -20.326  0.00  0.00    +0.021 C 
ATOM     16  C   UNL     1      33.376 -19.772 -20.849  0.00  0.00    +0.021 C 
ATOM     17  C   UNL     1      33.504 -21.600 -19.274  0.00  0.00    +0.042 C 
ATOM     18  C   UNL     1      34.887 -21.654 -19.451  0.00  0.00    +0.015 C 
ATOM     19  C   UNL     1      32.749 -20.657 -19.972  0.00  0.00    +0.015 C 
BRANCH  17  20
ATOM     20  N   UNL     1      32.870 -22.495 -18.388  0.00  0.00    -0.357 N 
ATOM     21  H   UNL     1      31.909 -22.401 -18.198  0.00  0.00    +0.142 HD
ATOM     22  H   UNL     1      33.390 -23.213 -17.959  0.00  0.00    +0.142 HD
ENDBRANCH  17  20
ENDBRANCH   1  14
TORSDOF 6
ENDMDL
MODEL 3
REMARK VINA RESULT:      -7.9      3.094      4.442
REMARK  Name = 24856357
REMARK  6 active torsions:
REMARK  status: ('A' for Active; 'I' for Inactive)
REMARK    1  A    between atoms: S_1  and  N_5
REMARK    2  A    between atoms: S_1  and  C_14
REMARK    3  A    between atoms: N_6  and  C_10
REMARK    4  A    between atoms: C_10  and  C_11
REMARK    5  A    between atoms: C_11  and  S_12
REMARK    6  A    between atoms: C_17  and  N_20
REMARK                            x       y       z     vdW  Elec       q    Type
REMARK                         _______ _______ _______ _____ _____    ______ ____
ROOT
ATOM      1  S   UNL     1      33.829 -22.607 -18.733  0.00  0.00    +0.077 S 
ATOM      2  O   UNL     1      34.130 -23.790 -19.515  0.00  0.00    -0.150 OA
ATOM      3  O   UNL     1      32.528 -22.447 -18.112  0.00  0.00    -0.150 OA
ENDROOT
BRANCH   1   5
ATOM      4  O   UNL     1      34.588 -24.220 -16.191  0.00  0.00    -0.251 OA
ATOM      5  N   UNL     1      35.048 -22.382 -17.555  0.00  0.00    -0.169 N 
ATOM      6  N   UNL     1      36.327 -22.800 -15.641  0.00  0.00    -0.287 N 
ATOM      7  C   UNL     1      35.271 -23.226 -16.422  0.00  0.00    +0.319 C 
ATOM      8  H   UNL     1      35.645 -21.608 -17.666  0.00  0.00    +0.178 HD
ATOM      9  H   UNL     1      36.813 -21.988 -15.912  0.00  0.00    +0.151 HD
BRANCH   6  10
ATOM     10  C   UNL     1      36.750 -23.490 -14.446  0.00  0.00    +0.102 C 
BRANCH  10  11
ATOM     11  C   UNL     1      37.864 -24.497 -14.703  0.00  0.00    +0.075 C 
BRANCH  11  12
ATOM     12  S   UNL     1      37.269 -26.214 -14.626  0.00  0.00    -0.166 S 
ATOM     13  H   UNL     1      37.091 -26.574 -13.327  0.00  0.00    +0.102 HD
ENDBRANCH  11  12
ENDBRANCH  10  11
ENDBRANCH   6  10
ENDBRANCH   1   5
BRANCH   1  14
ATOM     14  C   UNL     1      34.084 -21.190 -19.758  0.00  0.00    +0.125 C 
ATOM     15  C   UNL     1      35.378 -20.812 -20.117  0.00  0.00    +0.021 C 
ATOM     16  C   UNL     1      32.991 -20.449 -20.207  0.00  0.00    +0.021 C 
ATOM     17  C   UNL     1      34.486 -18.952 -21.375  0.00  0.00    +0.042 C 
ATOM     18  C   UNL     1      35.578 -19.693 -20.924  0.00  0.00    +0.015 C 
ATOM     19  C   UNL     1      33.191 -19.331 -21.016  0.00  0.00    +0.015 C 
BRANCH  17  20
ATOM     20  N   UNL     1      34.688 -17.821 -22.192  0.00  0.00    -0.357 N 
ATOM     21  H   UNL     1      34.921 -17.935 -23.142  0.00  0.00    +0.142 HD
ATOM     22  H   UNL     1      34.598 -16.917 -21.812  0.00  0.00    +0.142 HD
ENDBRANCH  17  20
ENDBRANCH   1  14
TORSDOF 6
ENDMDL
MODEL 4
REMARK VINA RESULT:      -7.5      5.064      7.792
REMARK  Name = 24856357
REMARK  6 active torsions:
REMARK  status: ('A' for Active; 'I' for Inactive)
REMARK    1  A    between atoms: S_1  and  N_5
REMARK    2  A    between atoms: S_1  and  C_14
REMARK    3  A    between atoms: N_6  and  C_10
REMARK    4  A    between atoms: C_10  and  C_11
REMARK    5  A    between atoms: C_11  and  S_12
REMARK    6  A    between atoms: C_17  and  N_20
REMARK                            x       y       z     vdW  Elec       q    Type
REMARK                         _______ _______ _______ _____ _____    ______ ____
ROOT
ATOM      1  S   UNL     1      35.223 -18.502 -22.137  0.00  0.00    +0.077 S 
ATOM      2  O   UNL     1      35.007 -18.977 -23.490  0.00  0.00    -0.150 OA
ATOM      3  O   UNL     1      36.562 -18.197 -21.670  0.00  0.00    -0.150 OA
ENDROOT
BRANCH   1   5
ATOM      4  O   UNL     1      35.172 -15.624 -23.303  0.00  0.00    -0.251 OA
ATOM      5  N   UNL     1      34.203 -17.163 -21.838  0.00  0.00    -0.169 N 
ATOM      6  N   UNL     1      33.350 -14.992 -22.028  0.00  0.00    -0.287 N 
ATOM      7  C   UNL     1      34.312 -15.882 -22.466  0.00  0.00    +0.319 C 
ATOM      8  H   UNL     1      33.481 -17.284 -21.180  0.00  0.00    +0.178 HD
ATOM      9  H   UNL     1      32.704 -15.296 -21.351  0.00  0.00    +0.151 HD
BRANCH   6  10
ATOM     10  C   UNL     1      33.251 -13.638 -22.519  0.00  0.00    +0.102 C 
BRANCH  10  11
ATOM     11  C   UNL     1      32.185 -12.822 -21.800  0.00  0.00    +0.075 C 
BRANCH  11  12
ATOM     12  S   UNL     1      32.119 -11.105 -22.394  0.00  0.00    -0.166 S 
ATOM     13  H   UNL     1      31.395 -11.050 -23.544  0.00  0.00    +0.102 HD
ENDBRANCH  11  12
ENDBRANCH  10  11
ENDBRANCH   6  10
ENDBRANCH   1   5
BRANCH   1  14
ATOM     14  C   UNL     1      34.551 -19.696 -21.020  0.00  0.00    +0.125 C 
ATOM     15  C   UNL     1      33.176 -19.735 -20.786  0.00  0.00    +0.021 C 
ATOM     16  C   UNL     1      35.395 -20.597 -20.373  0.00  0.00    +0.021 C 
ATOM     17  C   UNL     1      33.490 -21.578 -19.255  0.00  0.00    +0.042 C 
ATOM     18  C   UNL     1      32.647 -20.676 -19.904  0.00  0.00    +0.015 C 
ATOM     19  C   UNL     1      34.865 -21.539 -19.491  0.00  0.00    +0.015 C 
BRANCH  17  20
ATOM     20  N   UNL     1      32.955 -22.530 -18.364  0.00  0.00    -0.357 N 
ATOM     21  H   UNL     1      33.506 -23.288 -18.063  0.00  0.00    +0.142 HD
ATOM     22  H   UNL     1      32.028 -22.437 -18.044  0.00  0.00    +0.142 HD
ENDBRANCH  17  20
ENDBRANCH   1  14
TORSDOF 6
ENDMDL
MODEL 5
REMARK VINA RESULT:      -7.4      5.127      8.255
REMARK  Name = 24856357
REMARK  6 active torsions:
REMARK  status: ('A' for Active; 'I' for Inactive)
REMARK    1  A    between atoms: S_1  and  N_5
REMARK    2  A    between atoms: S_1  and  C_14
REMARK    3  A    between atoms: N_6  and  C_10
REMARK    4  A    between atoms: C_10  and  C_11
REMARK    5  A    between atoms: C_11  and  S_12
REMARK    6  A    between atoms: C_17  and  N_20
REMARK                            x       y       z     vdW  Elec       q    Type
REMARK                         _______ _______ _______ _____ _____    ______ ____
ROOT
ATOM      1  S   UNL     1      35.640 -17.932 -21.567  0.00  0.00    +0.077 S 
ATOM      2  O   UNL     1      36.984 -18.303 -21.967  0.00  0.00    -0.150 OA
ATOM      3  O   UNL     1      35.424 -16.821 -20.660  0.00  0.00    -0.150 OA
ENDROOT
BRANCH   1   5
ATOM      4  O   UNL     1      35.409 -15.598 -23.602  0.00  0.00    -0.251 OA
ATOM      5  N   UNL     1      34.673 -17.719 -22.961  0.00  0.00    -0.169 N 
ATOM      6  N   UNL     1      33.795 -16.672 -24.861  0.00  0.00    -0.287 N 
ATOM      7  C   UNL     1      34.681 -16.565 -23.806  0.00  0.00    +0.319 C 
ATOM      8  H   UNL     1      34.061 -18.451 -23.202  0.00  0.00    +0.178 HD
ATOM      9  H   UNL     1      33.254 -17.492 -24.937  0.00  0.00    +0.151 HD
BRANCH   6  10
ATOM     10  C   UNL     1      33.626 -15.639 -25.853  0.00  0.00    +0.102 C 
BRANCH  10  11
ATOM     11  C   UNL     1      32.852 -14.435 -25.333  0.00  0.00    +0.075 C 
BRANCH  11  12
ATOM     12  S   UNL     1      33.453 -12.873 -26.042  0.00  0.00    -0.166 S 
ATOM     13  H   UNL     1      34.575 -12.478 -25.382  0.00  0.00    +0.102 HD
ENDBRANCH  11  12
ENDBRANCH  10  11
ENDBRANCH   6  10
ENDBRANCH   1   5
BRANCH   1  14
ATOM     14  C   UNL     1      34.873 -19.347 -20.836  0.00  0.00    +0.125 C 
ATOM     15  C   UNL     1      33.483 -19.463 -20.832  0.00  0.00    +0.021 C 
ATOM     16  C   UNL     1      35.659 -20.346 -20.261  0.00  0.00    +0.021 C 
ATOM     17  C   UNL     1      33.664 -21.578 -19.678  0.00  0.00    +0.042 C 
ATOM     18  C   UNL     1      32.879 -20.578 -20.254  0.00  0.00    +0.015 C 
ATOM     19  C   UNL     1      35.054 -21.462 -19.683  0.00  0.00    +0.015 C 
BRANCH  17  20
ATOM     20  N   UNL     1      33.053 -22.707 -19.094  0.00  0.00    -0.357 N 
ATOM     21  H   UNL     1      32.275 -22.593 -18.499  0.00  0.00    +0.142 HD
ATOM     22  H   UNL     1      33.403 -23.608 -19.280  0.00  0.00    +0.142 HD
ENDBRANCH  17  20
ENDBRANCH   1  14
TORSDOF 6
ENDMDL
MODEL 6
REMARK VINA RESULT:      -7.3      3.546      6.636
REMARK  Name = 24856357
REMARK  6 active torsions:
REMARK  status: ('A' for Active; 'I' for Inactive)
REMARK    1  A    between atoms: S_1  and  N_5
REMARK    2  A    between atoms: S_1  and  C_14
REMARK    3  A    between atoms: N_6  and  C_10
REMARK    4  A    between atoms: C_10  and  C_11
REMARK    5  A    between atoms: C_11  and  S_12
REMARK    6  A    between atoms: C_17  and  N_20
REMARK                            x       y       z     vdW  Elec       q    Type
REMARK                         _______ _______ _______ _____ _____    ______ ____
ROOT
ATOM      1  S   UNL     1      33.688 -22.721 -18.547  0.00  0.00    +0.077 S 
ATOM      2  O   UNL     1      32.335 -22.345 -18.184  0.00  0.00    -0.150 OA
ATOM      3  O   UNL     1      33.933 -23.913 -19.337  0.00  0.00    -0.150 OA
ENDROOT
BRANCH   1   5
ATOM      4  O   UNL     1      32.744 -20.671 -20.679  0.00  0.00    -0.251 OA
ATOM      5  N   UNL     1      34.469 -21.388 -19.278  0.00  0.00    -0.169 N 
ATOM      6  N   UNL     1      34.755 -19.532 -20.675  0.00  0.00    -0.287 N 
ATOM      7  C   UNL     1      33.889 -20.527 -20.263  0.00  0.00    +0.319 C 
ATOM      8  H   UNL     1      35.393 -21.197 -18.999  0.00  0.00    +0.178 HD
ATOM      9  H   UNL     1      35.657 -19.502 -20.280  0.00  0.00    +0.151 HD
BRANCH   6  10
ATOM     10  C   UNL     1      34.399 -18.537 -21.657  0.00  0.00    +0.102 C 
BRANCH  10  11
ATOM     11  C   UNL     1      34.724 -18.964 -23.082  0.00  0.00    +0.075 C 
BRANCH  11  12
ATOM     12  S   UNL     1      34.808 -17.550 -24.221  0.00  0.00    -0.166 S 
ATOM     13  H   UNL     1      33.886 -16.619 -23.857  0.00  0.00    +0.102 HD
ENDBRANCH  11  12
ENDBRANCH  10  11
ENDBRANCH   6  10
ENDBRANCH   1   5
BRANCH   1  14
ATOM     14  C   UNL     1      34.629 -22.891 -17.060  0.00  0.00    +0.125 C 
ATOM     15  C   UNL     1      34.061 -23.500 -15.941  0.00  0.00    +0.021 C 
ATOM     16  C   UNL     1      35.938 -22.414 -17.006  0.00  0.00    +0.021 C 
ATOM     17  C   UNL     1      36.113 -23.155 -14.712  0.00  0.00    +0.042 C 
ATOM     18  C   UNL     1      34.803 -23.632 -14.768  0.00  0.00    +0.015 C 
ATOM     19  C   UNL     1      36.681 -22.546 -15.833  0.00  0.00    +0.015 C 
BRANCH  17  20
ATOM     20  N   UNL     1      36.864 -23.289 -13.527  0.00  0.00    -0.357 N 
ATOM     21  H   UNL     1      36.618 -22.769 -12.727  0.00  0.00    +0.142 HD
ATOM     22  H   UNL     1      37.634 -23.902 -13.499  0.00  0.00    +0.142 HD
ENDBRANCH  17  20
ENDBRANCH   1  14
TORSDOF 6
ENDMDL
MODEL 7
REMARK VINA RESULT:      -7.0      7.071      9.769
REMARK  Name = 24856357
REMARK  6 active torsions:
REMARK  status: ('A' for Active; 'I' for Inactive)
REMARK    1  A    between atoms: S_1  and  N_5
REMARK    2  A    between atoms: S_1  and  C_14
REMARK    3  A    between atoms: N_6  and  C_10
REMARK    4  A    between atoms: C_10  and  C_11
REMARK    5  A    between atoms: C_11  and  S_12
REMARK    6  A    between atoms: C_17  and  N_20
REMARK                            x       y       z     vdW  Elec       q    Type
REMARK                         _______ _______ _______ _____ _____    ______ ____
ROOT
ATOM      1  S   UNL     1      34.031 -15.383 -21.467  0.00  0.00    +0.077 S 
ATOM      2  O   UNL     1      34.934 -15.450 -20.333  0.00  0.00    -0.150 OA
ATOM      3  O   UNL     1      32.597 -15.314 -21.261  0.00  0.00    -0.150 OA
ENDROOT
BRANCH   1   5
ATOM      4  O   UNL     1      32.416 -13.208 -22.985  0.00  0.00    -0.251 OA
ATOM      5  N   UNL     1      34.514 -14.111 -22.501  0.00  0.00    -0.169 N 
ATOM      6  N   UNL     1      34.306 -12.258 -23.915  0.00  0.00    -0.287 N 
ATOM      7  C   UNL     1      33.634 -13.178 -23.135  0.00  0.00    +0.319 C 
ATOM      8  H   UNL     1      35.478 -14.011 -22.674  0.00  0.00    +0.178 HD
ATOM      9  H   UNL     1      35.288 -12.318 -23.972  0.00  0.00    +0.151 HD
BRANCH   6  10
ATOM     10  C   UNL     1      33.637 -11.213 -24.651  0.00  0.00    +0.102 C 
BRANCH  10  11
ATOM     11  C   UNL     1      33.712  -9.857 -23.962  0.00  0.00    +0.075 C 
BRANCH  11  12
ATOM     12  S   UNL     1      32.258  -9.534 -22.920  0.00  0.00    -0.166 S 
ATOM     13  H   UNL     1      32.226  -8.216 -22.582  0.00  0.00    +0.102 HD
ENDBRANCH  11  12
ENDBRANCH  10  11
ENDBRANCH   6  10
ENDBRANCH   1   5
BRANCH   1  14
ATOM     14  C   UNL     1      34.333 -16.789 -22.494  0.00  0.00    +0.125 C 
ATOM     15  C   UNL     1      34.474 -16.627 -23.873  0.00  0.00    +0.021 C 
ATOM     16  C   UNL     1      34.430 -18.059 -21.927  0.00  0.00    +0.021 C 
ATOM     17  C   UNL     1      34.808 -19.008 -24.117  0.00  0.00    +0.042 C 
ATOM     18  C   UNL     1      34.711 -17.737 -24.683  0.00  0.00    +0.015 C 
ATOM     19  C   UNL     1      34.667 -19.169 -22.738  0.00  0.00    +0.015 C 
BRANCH  17  20
ATOM     20  N   UNL     1      35.048 -20.130 -24.936  0.00  0.00    -0.357 N 
ATOM     21  H   UNL     1      34.864 -20.083 -25.903  0.00  0.00    +0.142 HD
ATOM     22  H   UNL     1      35.399 -20.961 -24.542  0.00  0.00    +0.142 HD
ENDBRANCH  17  20
ENDBRANCH   1  14
TORSDOF 6
ENDMDL
MODEL 8
REMARK VINA RESULT:      -6.8      2.452      6.665
REMARK  Name = 24856357
REMARK  6 active torsions:
REMARK  status: ('A' for Active; 'I' for Inactive)
REMARK    1  A    between atoms: S_1  and  N_5
REMARK    2  A    between atoms: S_1  and  C_14
REMARK    3  A    between atoms: N_6  and  C_10
REMARK    4  A    between atoms: C_10  and  C_11
REMARK    5  A    between atoms: C_11  and  S_12
REMARK    6  A    between atoms: C_17  and  N_20
REMARK                            x       y       z     vdW  Elec       q    Type
REMARK                         _______ _______ _______ _____ _____    ______ ____
ROOT
ATOM      1  S   UNL     1      34.285 -22.780 -18.636  0.00  0.00    +0.077 S 
ATOM      2  O   UNL     1      34.038 -23.894 -19.531  0.00  0.00    -0.150 OA
ATOM      3  O   UNL     1      35.618 -22.533 -18.120  0.00  0.00    -0.150 OA
ENDROOT
BRANCH   1   5
ATOM      4  O   UNL     1      35.488 -20.801 -20.703  0.00  0.00    -0.251 OA
ATOM      5  N   UNL     1      33.676 -21.345 -19.336  0.00  0.00    -0.169 N 
ATOM      6  N   UNL     1      33.627 -19.430 -20.681  0.00  0.00    -0.287 N 
ATOM      7  C   UNL     1      34.365 -20.531 -20.289  0.00  0.00    +0.319 C 
ATOM      8  H   UNL     1      32.776 -21.056 -19.061  0.00  0.00    +0.178 HD
ATOM      9  H   UNL     1      32.733 -19.301 -20.288  0.00  0.00    +0.151 HD
BRANCH   6  10
ATOM     10  C   UNL     1      34.107 -18.463 -21.637  0.00  0.00    +0.102 C 
BRANCH  10  11
ATOM     11  C   UNL     1      35.106 -17.480 -21.041  0.00  0.00    +0.075 C 
BRANCH  11  12
ATOM     12  S   UNL     1      34.468 -15.778 -21.022  0.00  0.00    -0.166 S 
ATOM     13  H   UNL     1      35.293 -14.976 -21.748  0.00  0.00    +0.102 HD
ENDBRANCH  11  12
ENDBRANCH  10  11
ENDBRANCH   6  10
ENDBRANCH   1   5
BRANCH   1  14
ATOM     14  C   UNL     1      33.219 -22.954 -17.236  0.00  0.00    +0.125 C 
ATOM     15  C   UNL     1      33.750 -23.302 -15.994  0.00  0.00    +0.021 C 
ATOM     16  C   UNL     1      31.847 -22.744 -17.375  0.00  0.00    +0.021 C 
ATOM     17  C   UNL     1      31.536 -23.231 -15.029  0.00  0.00    +0.042 C 
ATOM     18  C   UNL     1      32.908 -23.441 -14.891  0.00  0.00    +0.015 C 
ATOM     19  C   UNL     1      31.006 -22.881 -16.271  0.00  0.00    +0.015 C 
BRANCH  17  20
ATOM     20  N   UNL     1      30.685 -23.370 -13.913  0.00  0.00    -0.357 N 
ATOM     21  H   UNL     1      29.717 -23.495 -14.044  0.00  0.00    +0.142 HD
ATOM     22  H   UNL     1      31.059 -23.341 -13.003  0.00  0.00    +0.142 HD
ENDBRANCH  17  20
ENDBRANCH   1  14
TORSDOF 6
ENDMDL
MODEL 9
REMARK VINA RESULT:      -6.8      2.975      6.894
REMARK  Name = 24856357
REMARK  6 active torsions:
REMARK  status: ('A' for Active; 'I' for Inactive)
REMARK    1  A    between atoms: S_1  and  N_5
REMARK    2  A    between atoms: S_1  and  C_14
REMARK    3  A    between atoms: N_6  and  C_10
REMARK    4  A    between atoms: C_10  and  C_11
REMARK    5  A    between atoms: C_11  and  S_12
REMARK    6  A    between atoms: C_17  and  N_20
REMARK                            x       y       z     vdW  Elec       q    Type
REMARK                         _______ _______ _______ _____ _____    ______ ____
ROOT
ATOM      1  S   UNL     1      34.805 -23.436 -15.766  0.00  0.00    +0.077 S 
ATOM      2  O   UNL     1      35.601 -24.638 -15.924  0.00  0.00    -0.150 OA
ATOM      3  O   UNL     1      35.216 -22.398 -14.840  0.00  0.00    -0.150 OA
ENDROOT
BRANCH   1   5
ATOM      4  O   UNL     1      36.659 -21.916 -17.740  0.00  0.00    -0.251 OA
ATOM      5  N   UNL     1      34.519 -22.741 -17.302  0.00  0.00    -0.169 N 
ATOM      6  N   UNL     1      34.977 -21.604 -19.295  0.00  0.00    -0.287 N 
ATOM      7  C   UNL     1      35.494 -22.062 -18.098  0.00  0.00    +0.319 C 
ATOM      8  H   UNL     1      33.608 -22.816 -17.668  0.00  0.00    +0.178 HD
ATOM      9  H   UNL     1      34.027 -21.771 -19.490  0.00  0.00    +0.151 HD
BRANCH   6  10
ATOM     10  C   UNL     1      35.767 -20.893 -20.271  0.00  0.00    +0.102 C 
BRANCH  10  11
ATOM     11  C   UNL     1      34.958 -19.875 -21.064  0.00  0.00    +0.075 C 
BRANCH  11  12
ATOM     12  S   UNL     1      33.180 -19.977 -20.701  0.00  0.00    -0.166 S 
ATOM     13  H   UNL     1      32.922 -21.123 -20.015  0.00  0.00    +0.102 HD
ENDBRANCH  11  12
ENDBRANCH  10  11
ENDBRANCH   6  10
ENDBRANCH   1   5
BRANCH   1  14
ATOM     14  C   UNL     1      33.169 -23.917 -15.302  0.00  0.00    +0.125 C 
ATOM     15  C   UNL     1      32.084 -23.567 -16.107  0.00  0.00    +0.021 C 
ATOM     16  C   UNL     1      32.963 -24.645 -14.130  0.00  0.00    +0.021 C 
ATOM     17  C   UNL     1      30.586 -24.674 -14.567  0.00  0.00    +0.042 C 
ATOM     18  C   UNL     1      30.794 -23.946 -15.739  0.00  0.00    +0.015 C 
ATOM     19  C   UNL     1      31.672 -25.024 -13.763  0.00  0.00    +0.015 C 
BRANCH  17  20
ATOM     20  N   UNL     1      29.281 -25.058 -14.196  0.00  0.00    -0.357 N 
ATOM     21  H   UNL     1      29.147 -25.701 -13.463  0.00  0.00    +0.142 HD
ATOM     22  H   UNL     1      28.504 -24.682 -14.670  0.00  0.00    +0.142 HD
ENDBRANCH  17  20
ENDBRANCH   1  14
TORSDOF 6
ENDMDL
