MODEL 1
REMARK VINA RESULT:      -7.6      0.000      0.000
REMARK  Name = 5287550
REMARK  4 active torsions:
REMARK  status: ('A' for Active; 'I' for Inactive)
REMARK    1  A    between atoms: C_7  and  O_12
REMARK    2  A    between atoms: O_12  and  P_13
REMARK    3  A    between atoms: P_13  and  O_15
REMARK    4  A    between atoms: P_13  and  O_17
REMARK                            x       y       z     vdW  Elec       q    Type
REMARK                         _______ _______ _______ _____ _____    ______ ____
ROOT
ATOM      1  N   UNL     1      36.779 -20.246 -19.963  0.00  0.00    -0.331 N 
ATOM      2  C   UNL     1      34.493 -19.093 -21.315  0.00  0.00    +0.029 C 
ATOM      3  C   UNL     1      35.787 -18.312 -21.080  0.00  0.00    +0.026 C 
ATOM      4  C   UNL     1      34.368 -20.248 -20.352  0.00  0.00    -0.006 C 
ATOM      5  C   UNL     1      36.974 -19.266 -21.014  0.00  0.00    +0.087 C 
ATOM      6  C   UNL     1      35.517 -20.786 -19.737  0.00  0.00    +0.076 C 
ATOM      7  C   UNL     1      35.364 -21.856 -18.843  0.00  0.00    +0.162 C 
ATOM      8  C   UNL     1      33.109 -20.812 -20.105  0.00  0.00    -0.003 C 
ATOM      9  C   UNL     1      34.105 -22.403 -18.591  0.00  0.00    +0.039 C 
ATOM     10  C   UNL     1      32.979 -21.884 -19.225  0.00  0.00    +0.003 C 
ATOM     11  H   UNL     1      37.540 -20.531 -19.408  0.00  0.00    +0.147 HD
ENDROOT
BRANCH   7  12
ATOM     12  O   UNL     1      36.448 -22.387 -18.208  0.00  0.00    -0.401 OA
BRANCH  12  13
ATOM     13  P   UNL     1      36.893 -22.051 -16.690  0.00  0.00    +0.528 P 
ATOM     14  O   UNL     1      35.810 -22.183 -15.659  0.00  0.00    -0.216 OA
BRANCH  13  15
ATOM     15  O   UNL     1      38.205 -22.965 -16.450  0.00  0.00    -0.293 OA
ATOM     16  H   UNL     1      38.531 -22.833 -15.546  0.00  0.00    +0.223 HD
ENDBRANCH  13  15
BRANCH  13  17
ATOM     17  O   UNL     1      37.510 -20.561 -16.824  0.00  0.00    -0.293 OA
ATOM     18  H   UNL     1      38.257 -20.464 -16.213  0.00  0.00    +0.223 HD
ENDBRANCH  13  17
ENDBRANCH  12  13
ENDBRANCH   7  12
TORSDOF 4
ENDMDL
MODEL 2
REMARK VINA RESULT:      -7.4      5.992      7.406
REMARK  Name = 5287550
REMARK  4 active torsions:
REMARK  status: ('A' for Active; 'I' for Inactive)
REMARK    1  A    between atoms: C_7  and  O_12
REMARK    2  A    between atoms: O_12  and  P_13
REMARK    3  A    between atoms: P_13  and  O_15
REMARK    4  A    between atoms: P_13  and  O_17
REMARK                            x       y       z     vdW  Elec       q    Type
REMARK                         _______ _______ _______ _____ _____    ______ ____
ROOT
ATOM      1  N   UNL     1      31.909 -22.595 -17.824  0.00  0.00    -0.331 N 
ATOM      2  C   UNL     1      33.958 -23.421 -15.954  0.00  0.00    +0.029 C 
ATOM      3  C   UNL     1      34.116 -23.582 -17.466  0.00  0.00    +0.026 C 
ATOM      4  C   UNL     1      32.505 -23.299 -15.564  0.00  0.00    -0.006 C 
ATOM      5  C   UNL     1      33.308 -22.515 -18.197  0.00  0.00    +0.087 C 
ATOM      6  C   UNL     1      31.551 -22.872 -16.509  0.00  0.00    +0.076 C 
ATOM      7  C   UNL     1      30.208 -22.775 -16.114  0.00  0.00    +0.162 C 
ATOM      8  C   UNL     1      32.115 -23.572 -14.245  0.00  0.00    -0.003 C 
ATOM      9  C   UNL     1      29.826 -23.063 -14.804  0.00  0.00    +0.039 C 
ATOM     10  C   UNL     1      30.779 -23.457 -13.869  0.00  0.00    +0.003 C 
ATOM     11  H   UNL     1      31.210 -22.452 -18.503  0.00  0.00    +0.147 HD
ENDROOT
BRANCH   7  12
ATOM     12  O   UNL     1      29.251 -22.390 -17.007  0.00  0.00    -0.401 OA
BRANCH  12  13
ATOM     13  P   UNL     1      27.724 -22.922 -17.019  0.00  0.00    +0.528 P 
ATOM     14  O   UNL     1      26.918 -22.589 -15.797  0.00  0.00    -0.216 OA
BRANCH  13  15
ATOM     15  O   UNL     1      27.127 -22.381 -18.422  0.00  0.00    -0.293 OA
ATOM     16  H   UNL     1      27.762 -21.770 -18.829  0.00  0.00    +0.223 HD
ENDBRANCH  13  15
BRANCH  13  17
ATOM     17  O   UNL     1      27.903 -24.507 -17.290  0.00  0.00    -0.293 OA
ATOM     18  H   UNL     1      27.962 -24.667 -18.246  0.00  0.00    +0.223 HD
ENDBRANCH  13  17
ENDBRANCH  12  13
ENDBRANCH   7  12
TORSDOF 4
ENDMDL
MODEL 3
REMARK VINA RESULT:      -7.3      2.196      3.214
REMARK  Name = 5287550
REMARK  4 active torsions:
REMARK  status: ('A' for Active; 'I' for Inactive)
REMARK    1  A    between atoms: C_7  and  O_12
REMARK    2  A    between atoms: O_12  and  P_13
REMARK    3  A    between atoms: P_13  and  O_15
REMARK    4  A    between atoms: P_13  and  O_17
REMARK                            x       y       z     vdW  Elec       q    Type
REMARK                         _______ _______ _______ _____ _____    ______ ____
ROOT
ATOM      1  N   UNL     1      36.421 -21.875 -17.751  0.00  0.00    -0.331 N 
ATOM      2  C   UNL     1      34.063 -22.136 -19.408  0.00  0.00    +0.029 C 
ATOM      3  C   UNL     1      35.163 -21.115 -19.703  0.00  0.00    +0.026 C 
ATOM      4  C   UNL     1      34.091 -22.571 -17.964  0.00  0.00    -0.006 C 
ATOM      5  C   UNL     1      36.502 -21.617 -19.175  0.00  0.00    +0.087 C 
ATOM      6  C   UNL     1      35.273 -22.441 -17.207  0.00  0.00    +0.076 C 
ATOM      7  C   UNL     1      35.262 -22.850 -15.865  0.00  0.00    +0.162 C 
ATOM      8  C   UNL     1      32.948 -23.144 -17.389  0.00  0.00    -0.003 C 
ATOM      9  C   UNL     1      34.116 -23.407 -15.296  0.00  0.00    +0.039 C 
ATOM     10  C   UNL     1      32.961 -23.558 -16.059  0.00  0.00    +0.003 C 
ATOM     11  H   UNL     1      37.181 -21.650 -17.166  0.00  0.00    +0.147 HD
ENDROOT
BRANCH   7  12
ATOM     12  O   UNL     1      36.379 -22.717 -15.092  0.00  0.00    -0.401 OA
BRANCH  12  13
ATOM     13  P   UNL     1      37.519 -23.848 -14.904  0.00  0.00    +0.528 P 
ATOM     14  O   UNL     1      38.051 -23.998 -13.508  0.00  0.00    -0.216 OA
BRANCH  13  15
ATOM     15  O   UNL     1      36.868 -25.178 -15.554  0.00  0.00    -0.293 OA
ATOM     16  H   UNL     1      37.575 -25.785 -15.826  0.00  0.00    +0.223 HD
ENDBRANCH  13  15
BRANCH  13  17
ATOM     17  O   UNL     1      38.629 -23.416 -15.999  0.00  0.00    -0.293 OA
ATOM     18  H   UNL     1      39.329 -22.903 -15.566  0.00  0.00    +0.223 HD
ENDBRANCH  13  17
ENDBRANCH  12  13
ENDBRANCH   7  12
TORSDOF 4
ENDMDL
MODEL 4
REMARK VINA RESULT:      -7.3      7.534      8.585
REMARK  Name = 5287550
REMARK  4 active torsions:
REMARK  status: ('A' for Active; 'I' for Inactive)
REMARK    1  A    between atoms: C_7  and  O_12
REMARK    2  A    between atoms: O_12  and  P_13
REMARK    3  A    between atoms: P_13  and  O_15
REMARK    4  A    between atoms: P_13  and  O_17
REMARK                            x       y       z     vdW  Elec       q    Type
REMARK                         _______ _______ _______ _____ _____    ______ ____
ROOT
ATOM      1  N   UNL     1      34.327 -15.003 -23.120  0.00  0.00    -0.331 N 
ATOM      2  C   UNL     1      34.418 -16.979 -21.007  0.00  0.00    +0.029 C 
ATOM      3  C   UNL     1      34.806 -15.517 -20.780  0.00  0.00    +0.026 C 
ATOM      4  C   UNL     1      34.505 -17.349 -22.468  0.00  0.00    -0.006 C 
ATOM      5  C   UNL     1      34.052 -14.615 -21.751  0.00  0.00    +0.087 C 
ATOM      6  C   UNL     1      34.435 -16.348 -23.458  0.00  0.00    +0.076 C 
ATOM      7  C   UNL     1      34.525 -16.726 -24.805  0.00  0.00    +0.162 C 
ATOM      8  C   UNL     1      34.616 -18.696 -22.837  0.00  0.00    -0.003 C 
ATOM      9  C   UNL     1      34.649 -18.069 -25.165  0.00  0.00    +0.039 C 
ATOM     10  C   UNL     1      34.689 -19.054 -24.181  0.00  0.00    +0.003 C 
ATOM     11  H   UNL     1      34.437 -14.313 -23.815  0.00  0.00    +0.147 HD
ENDROOT
BRANCH   7  12
ATOM     12  O   UNL     1      34.486 -15.785 -25.793  0.00  0.00    -0.401 OA
BRANCH  12  13
ATOM     13  P   UNL     1      33.177 -14.937 -26.218  0.00  0.00    +0.528 P 
ATOM     14  O   UNL     1      32.555 -14.122 -25.122  0.00  0.00    -0.216 OA
BRANCH  13  15
ATOM     15  O   UNL     1      33.648 -14.111 -27.526  0.00  0.00    -0.293 OA
ATOM     16  H   UNL     1      33.988 -13.244 -27.256  0.00  0.00    +0.223 HD
ENDBRANCH  13  15
BRANCH  13  17
ATOM     17  O   UNL     1      32.206 -16.074 -26.838  0.00  0.00    -0.293 OA
ATOM     18  H   UNL     1      32.476 -16.267 -27.750  0.00  0.00    +0.223 HD
ENDBRANCH  13  17
ENDBRANCH  12  13
ENDBRANCH   7  12
TORSDOF 4
ENDMDL
MODEL 5
REMARK VINA RESULT:      -7.1      5.219      7.022
REMARK  Name = 5287550
REMARK  4 active torsions:
REMARK  status: ('A' for Active; 'I' for Inactive)
REMARK    1  A    between atoms: C_7  and  O_12
REMARK    2  A    between atoms: O_12  and  P_13
REMARK    3  A    between atoms: P_13  and  O_15
REMARK    4  A    between atoms: P_13  and  O_17
REMARK                            x       y       z     vdW  Elec       q    Type
REMARK                         _______ _______ _______ _____ _____    ______ ____
ROOT
ATOM      1  N   UNL     1      36.130 -25.778 -13.907  0.00  0.00    -0.331 N 
ATOM      2  C   UNL     1      38.796 -24.784 -14.438  0.00  0.00    +0.029 C 
ATOM      3  C   UNL     1      38.465 -25.625 -13.205  0.00  0.00    +0.026 C 
ATOM      4  C   UNL     1      37.559 -24.129 -15.003  0.00  0.00    -0.006 C 
ATOM      5  C   UNL     1      37.287 -26.548 -13.497  0.00  0.00    +0.087 C 
ATOM      6  C   UNL     1      36.285 -24.667 -14.730  0.00  0.00    +0.076 C 
ATOM      7  C   UNL     1      35.156 -24.030 -15.266  0.00  0.00    +0.162 C 
ATOM      8  C   UNL     1      37.685 -23.008 -15.835  0.00  0.00    -0.003 C 
ATOM      9  C   UNL     1      35.289 -22.906 -16.082  0.00  0.00    +0.039 C 
ATOM     10  C   UNL     1      36.553 -22.398 -16.370  0.00  0.00    +0.003 C 
ATOM     11  H   UNL     1      35.231 -26.040 -13.603  0.00  0.00    +0.147 HD
ENDROOT
BRANCH   7  12
ATOM     12  O   UNL     1      33.904 -24.505 -15.004  0.00  0.00    -0.401 OA
BRANCH  12  13
ATOM     13  P   UNL     1      32.923 -23.948 -13.845  0.00  0.00    +0.528 P 
ATOM     14  O   UNL     1      32.014 -22.827 -14.257  0.00  0.00    -0.216 OA
BRANCH  13  15
ATOM     15  O   UNL     1      32.189 -25.273 -13.277  0.00  0.00    -0.293 OA
ATOM     16  H   UNL     1      32.445 -25.414 -12.352  0.00  0.00    +0.223 HD
ENDBRANCH  13  15
BRANCH  13  17
ATOM     17  O   UNL     1      33.956 -23.570 -12.659  0.00  0.00    -0.293 OA
ATOM     18  H   UNL     1      33.780 -22.666 -12.352  0.00  0.00    +0.223 HD
ENDBRANCH  13  17
ENDBRANCH  12  13
ENDBRANCH   7  12
TORSDOF 4
ENDMDL
MODEL 6
REMARK VINA RESULT:      -7.1      5.465      6.772
REMARK  Name = 5287550
REMARK  4 active torsions:
REMARK  status: ('A' for Active; 'I' for Inactive)
REMARK    1  A    between atoms: C_7  and  O_12
REMARK    2  A    between atoms: O_12  and  P_13
REMARK    3  A    between atoms: P_13  and  O_15
REMARK    4  A    between atoms: P_13  and  O_17
REMARK                            x       y       z     vdW  Elec       q    Type
REMARK                         _______ _______ _______ _____ _____    ______ ____
ROOT
ATOM      1  N   UNL     1      31.771 -24.100 -13.649  0.00  0.00    -0.331 N 
ATOM      2  C   UNL     1      31.480 -23.240 -16.397  0.00  0.00    +0.029 C 
ATOM      3  C   UNL     1      30.395 -24.033 -15.667  0.00  0.00    +0.026 C 
ATOM      4  C   UNL     1      32.827 -23.423 -15.744  0.00  0.00    -0.006 C 
ATOM      5  C   UNL     1      30.461 -23.760 -14.169  0.00  0.00    +0.087 C 
ATOM      6  C   UNL     1      32.912 -23.824 -14.395  0.00  0.00    +0.076 C 
ATOM      7  C   UNL     1      34.181 -23.991 -13.820  0.00  0.00    +0.162 C 
ATOM      8  C   UNL     1      33.995 -23.153 -16.471  0.00  0.00    -0.003 C 
ATOM      9  C   UNL     1      35.339 -23.733 -14.556  0.00  0.00    +0.039 C 
ATOM     10  C   UNL     1      35.245 -23.310 -15.879  0.00  0.00    +0.003 C 
ATOM     11  H   UNL     1      31.854 -24.527 -12.766  0.00  0.00    +0.147 HD
ENDROOT
BRANCH   7  12
ATOM     12  O   UNL     1      34.305 -24.403 -12.525  0.00  0.00    -0.401 OA
BRANCH  12  13
ATOM     13  P   UNL     1      35.699 -24.498 -11.710  0.00  0.00    +0.528 P 
ATOM     14  O   UNL     1      36.546 -23.260 -11.739  0.00  0.00    -0.216 OA
BRANCH  13  15
ATOM     15  O   UNL     1      35.263 -25.017 -10.241  0.00  0.00    -0.293 OA
ATOM     16  H   UNL     1      34.721 -24.340  -9.807  0.00  0.00    +0.223 HD
ENDBRANCH  13  15
BRANCH  13  17
ATOM     17  O   UNL     1      36.400 -25.803 -12.361  0.00  0.00    -0.293 OA
ATOM     18  H   UNL     1      36.167 -25.861 -13.301  0.00  0.00    +0.223 HD
ENDBRANCH  13  17
ENDBRANCH  12  13
ENDBRANCH   7  12
TORSDOF 4
ENDMDL
MODEL 7
REMARK VINA RESULT:      -7.0      7.206      8.280
REMARK  Name = 5287550
REMARK  4 active torsions:
REMARK  status: ('A' for Active; 'I' for Inactive)
REMARK    1  A    between atoms: C_7  and  O_12
REMARK    2  A    between atoms: O_12  and  P_13
REMARK    3  A    between atoms: P_13  and  O_15
REMARK    4  A    between atoms: P_13  and  O_17
REMARK                            x       y       z     vdW  Elec       q    Type
REMARK                         _______ _______ _______ _____ _____    ______ ____
ROOT
ATOM      1  N   UNL     1      34.598 -16.343 -24.676  0.00  0.00    -0.331 N 
ATOM      2  C   UNL     1      34.851 -18.863 -23.275  0.00  0.00    +0.029 C 
ATOM      3  C   UNL     1      34.289 -18.767 -24.694  0.00  0.00    +0.026 C 
ATOM      4  C   UNL     1      34.749 -17.542 -22.554  0.00  0.00    -0.006 C 
ATOM      5  C   UNL     1      34.879 -17.559 -25.413  0.00  0.00    +0.087 C 
ATOM      6  C   UNL     1      34.648 -16.341 -23.286  0.00  0.00    +0.076 C 
ATOM      7  C   UNL     1      34.550 -15.131 -22.584  0.00  0.00    +0.162 C 
ATOM      8  C   UNL     1      34.796 -17.509 -21.153  0.00  0.00    -0.003 C 
ATOM      9  C   UNL     1      34.583 -15.108 -21.189  0.00  0.00    +0.039 C 
ATOM     10  C   UNL     1      34.712 -16.296 -20.475  0.00  0.00    +0.003 C 
ATOM     11  H   UNL     1      34.370 -15.516 -25.159  0.00  0.00    +0.147 HD
ENDROOT
BRANCH   7  12
ATOM     12  O   UNL     1      34.425 -13.949 -23.255  0.00  0.00    -0.401 OA
BRANCH  12  13
ATOM     13  P   UNL     1      33.055 -13.393 -23.910  0.00  0.00    +0.528 P 
ATOM     14  O   UNL     1      32.631 -14.068 -25.182  0.00  0.00    -0.216 OA
BRANCH  13  15
ATOM     15  O   UNL     1      31.987 -13.446 -22.697  0.00  0.00    -0.293 OA
ATOM     16  H   UNL     1      31.395 -14.205 -22.819  0.00  0.00    +0.223 HD
ENDBRANCH  13  15
BRANCH  13  17
ATOM     17  O   UNL     1      33.353 -11.810 -24.061  0.00  0.00    -0.293 OA
ATOM     18  H   UNL     1      34.311 -11.657 -24.042  0.00  0.00    +0.223 HD
ENDBRANCH  13  17
ENDBRANCH  12  13
ENDBRANCH   7  12
TORSDOF 4
ENDMDL
MODEL 8
REMARK VINA RESULT:      -7.0      4.481      6.138
REMARK  Name = 5287550
REMARK  4 active torsions:
REMARK  status: ('A' for Active; 'I' for Inactive)
REMARK    1  A    between atoms: C_7  and  O_12
REMARK    2  A    between atoms: O_12  and  P_13
REMARK    3  A    between atoms: P_13  and  O_15
REMARK    4  A    between atoms: P_13  and  O_17
REMARK                            x       y       z     vdW  Elec       q    Type
REMARK                         _______ _______ _______ _____ _____    ______ ____
ROOT
ATOM      1  N   UNL     1      35.708 -24.184 -13.460  0.00  0.00    -0.331 N 
ATOM      2  C   UNL     1      33.597 -23.291 -15.227  0.00  0.00    +0.029 C 
ATOM      3  C   UNL     1      33.398 -24.424 -14.220  0.00  0.00    +0.026 C 
ATOM      4  C   UNL     1      35.059 -23.087 -15.542  0.00  0.00    -0.006 C 
ATOM      5  C   UNL     1      34.326 -24.236 -13.025  0.00  0.00    +0.087 C 
ATOM      6  C   UNL     1      36.047 -23.523 -14.636  0.00  0.00    +0.076 C 
ATOM      7  C   UNL     1      37.396 -23.323 -14.963  0.00  0.00    +0.162 C 
ATOM      8  C   UNL     1      35.430 -22.425 -16.721  0.00  0.00    -0.003 C 
ATOM      9  C   UNL     1      37.757 -22.675 -16.145  0.00  0.00    +0.039 C 
ATOM     10  C   UNL     1      36.774 -22.222 -17.021  0.00  0.00    +0.003 C 
ATOM     11  H   UNL     1      36.410 -24.617 -12.922  0.00  0.00    +0.147 HD
ENDROOT
BRANCH   7  12
ATOM     12  O   UNL     1      38.382 -23.754 -14.124  0.00  0.00    -0.401 OA
BRANCH  12  13
ATOM     13  P   UNL     1      38.949 -25.267 -14.055  0.00  0.00    +0.528 P 
ATOM     14  O   UNL     1      38.464 -26.082 -12.892  0.00  0.00    -0.216 OA
BRANCH  13  15
ATOM     15  O   UNL     1      38.631 -25.875 -15.520  0.00  0.00    -0.293 OA
ATOM     16  H   UNL     1      38.123 -26.696 -15.426  0.00  0.00    +0.223 HD
ENDBRANCH  13  15
BRANCH  13  17
ATOM     17  O   UNL     1      40.551 -25.046 -14.095  0.00  0.00    -0.293 OA
ATOM     18  H   UNL     1      40.748 -24.157 -14.430  0.00  0.00    +0.223 HD
ENDBRANCH  13  17
ENDBRANCH  12  13
ENDBRANCH   7  12
TORSDOF 4
ENDMDL
MODEL 9
REMARK VINA RESULT:      -6.9     10.287     11.542
REMARK  Name = 5287550
REMARK  4 active torsions:
REMARK  status: ('A' for Active; 'I' for Inactive)
REMARK    1  A    between atoms: C_7  and  O_12
REMARK    2  A    between atoms: O_12  and  P_13
REMARK    3  A    between atoms: P_13  and  O_15
REMARK    4  A    between atoms: P_13  and  O_17
REMARK                            x       y       z     vdW  Elec       q    Type
REMARK                         _______ _______ _______ _____ _____    ______ ____
ROOT
ATOM      1  N   UNL     1      32.332  -9.649 -23.295  0.00  0.00    -0.331 N 
ATOM      2  C   UNL     1      32.211  -7.791 -21.078  0.00  0.00    +0.029 C 
ATOM      3  C   UNL     1      32.972  -7.481 -22.368  0.00  0.00    +0.026 C 
ATOM      4  C   UNL     1      32.013  -9.277 -20.903  0.00  0.00    -0.006 C 
ATOM      5  C   UNL     1      32.342  -8.221 -23.543  0.00  0.00    +0.087 C 
ATOM      6  C   UNL     1      32.061 -10.135 -22.020  0.00  0.00    +0.076 C 
ATOM      7  C   UNL     1      31.879 -11.512 -21.820  0.00  0.00    +0.162 C 
ATOM      8  C   UNL     1      31.739  -9.795 -19.629  0.00  0.00    -0.003 C 
ATOM      9  C   UNL     1      31.621 -12.022 -20.547  0.00  0.00    +0.039 C 
ATOM     10  C   UNL     1      31.546 -11.163 -19.453  0.00  0.00    +0.003 C 
ATOM     11  H   UNL     1      32.517 -10.278 -24.030  0.00  0.00    +0.147 HD
ENDROOT
BRANCH   7  12
ATOM     12  O   UNL     1      31.944 -12.378 -22.872  0.00  0.00    -0.401 OA
BRANCH  12  13
ATOM     13  P   UNL     1      33.264 -13.195 -23.323  0.00  0.00    +0.528 P 
ATOM     14  O   UNL     1      33.905 -14.025 -22.248  0.00  0.00    -0.216 OA
BRANCH  13  15
ATOM     15  O   UNL     1      32.800 -13.999 -24.647  0.00  0.00    -0.293 OA
ATOM     16  H   UNL     1      33.524 -14.007 -25.292  0.00  0.00    +0.223 HD
ENDBRANCH  13  15
BRANCH  13  17
ATOM     17  O   UNL     1      34.213 -12.029 -23.922  0.00  0.00    -0.293 OA
ATOM     18  H   UNL     1      33.756 -11.583 -24.653  0.00  0.00    +0.223 HD
ENDBRANCH  13  17
ENDBRANCH  12  13
ENDBRANCH   7  12
TORSDOF 4
ENDMDL
