MODEL 1
REMARK VINA RESULT:      -7.6      0.000      0.000
REMARK  Name = 446054
REMARK  5 active torsions:
REMARK  status: ('A' for Active; 'I' for Inactive)
REMARK    1  A    between atoms: CA_1  and  N_3
REMARK    2  A    between atoms: CA_1  and  C_10
REMARK    3  A    between atoms: CA_1  and  CB_13
REMARK    4  A    between atoms: C_10  and  O_11
REMARK    5  A    between atoms: CB_13  and  CG_14
REMARK                            x       y       z     vdW  Elec       q    Type
REMARK                         _______ _______ _______ _____ _____    ______ ____
ROOT
ATOM      1  CA  UNL     1      34.519 -17.718 -21.709  0.00  0.00    +0.177 C 
ENDROOT
BRANCH   1   3
ATOM      2  O   UNL     1      35.020 -15.310 -20.172  0.00  0.00    -0.253 OA
ATOM      3  N   UNL     1      33.585 -16.664 -21.404  0.00  0.00    -0.281 N 
ATOM      4  N   UNL     1      32.838 -14.681 -20.509  0.00  0.00    -0.313 N 
ATOM      5  C   ACE A   0      33.914 -15.540 -20.656  0.00  0.00    +0.298 C 
ATOM      6  H   UNL     1      32.665 -16.744 -21.745  0.00  0.00    +0.151 HD
ATOM      7  H   UNL     1      32.941 -13.846 -19.997  0.00  0.00    +0.146 HD
ATOM      8  H   UNL     1      31.970 -14.905 -20.914  0.00  0.00    +0.146 HD
ENDBRANCH   1   3
BRANCH   1  10
ATOM      9  OXT UNL     1      35.305 -18.344 -23.909  0.00  0.00    -0.248 OA
ATOM     10  C   UNL     1      35.202 -17.476 -23.048  0.00  0.00    +0.332 C 
BRANCH  10  11
ATOM     11  O   UNL     1      35.683 -16.223 -23.223  0.00  0.00    -0.479 OA
ATOM     12  H   UNL     1      35.237 -15.624 -23.788  0.00  0.00    +0.295 HD
ENDBRANCH  10  11
ENDBRANCH   1  10
BRANCH   1  13
ATOM     13  CB  UNL     1      33.827 -19.087 -21.712  0.00  0.00    +0.057 C 
BRANCH  13  14
ATOM     14  CG  UNL     1      34.443 -20.061 -20.736  0.00  0.00    -0.020 C 
ATOM     15  CD1 UNL     1      33.621 -20.902 -20.006  0.00  0.00    -0.004 C 
ATOM     16  CD2 UNL     1      35.821 -20.095 -20.590  0.00  0.00    -0.004 C 
ATOM     17  CE1 UNL     1      34.190 -21.802 -19.105  0.00  0.00    -0.000 C 
ATOM     18  CE2 UNL     1      36.391 -20.994 -19.689  0.00  0.00    -0.000 C 
ATOM     19  CZ  UNL     1      35.575 -21.848 -18.946  0.00  0.00    -0.000 C 
ENDBRANCH  13  14
ENDBRANCH   1  13
TORSDOF 5
ENDMDL
MODEL 2
REMARK VINA RESULT:      -7.5      1.620      3.265
REMARK  Name = 446054
REMARK  5 active torsions:
REMARK  status: ('A' for Active; 'I' for Inactive)
REMARK    1  A    between atoms: CA_1  and  N_3
REMARK    2  A    between atoms: CA_1  and  C_10
REMARK    3  A    between atoms: CA_1  and  CB_13
REMARK    4  A    between atoms: C_10  and  O_11
REMARK    5  A    between atoms: CB_13  and  CG_14
REMARK                            x       y       z     vdW  Elec       q    Type
REMARK                         _______ _______ _______ _____ _____    ______ ____
ROOT
ATOM      1  CA  UNL     1      34.484 -17.463 -21.923  0.00  0.00    +0.177 C 
ENDROOT
BRANCH   1   3
ATOM      2  O   UNL     1      34.266 -18.770 -24.503  0.00  0.00    -0.253 OA
ATOM      3  N   UNL     1      34.854 -16.928 -23.209  0.00  0.00    -0.281 N 
ATOM      4  N   UNL     1      35.144 -16.893 -25.491  0.00  0.00    -0.313 N 
ATOM      5  C   ACE A   0      34.715 -17.630 -24.400  0.00  0.00    +0.298 C 
ATOM      6  H   UNL     1      35.226 -16.017 -23.245  0.00  0.00    +0.151 HD
ATOM      7  H   UNL     1      35.098 -17.279 -26.395  0.00  0.00    +0.146 HD
ATOM      8  H   UNL     1      35.496 -15.982 -25.362  0.00  0.00    +0.146 HD
ENDBRANCH   1   3
BRANCH   1  10
ATOM      9  OXT UNL     1      35.024 -15.801 -20.251  0.00  0.00    -0.248 OA
ATOM     10  C   UNL     1      34.166 -16.348 -20.936  0.00  0.00    +0.332 C 
BRANCH  10  11
ATOM     11  O   UNL     1      32.860 -15.998 -20.875  0.00  0.00    -0.479 OA
ATOM     12  H   UNL     1      32.209 -16.543 -21.271  0.00  0.00    +0.295 HD
ENDBRANCH  10  11
ENDBRANCH   1  10
BRANCH   1  13
ATOM     13  CB  UNL     1      35.590 -18.364 -21.359  0.00  0.00    +0.057 C 
BRANCH  13  14
ATOM     14  CG  UNL     1      35.053 -19.610 -20.696  0.00  0.00    -0.020 C 
ATOM     15  CD1 UNL     1      35.939 -20.519 -20.142  0.00  0.00    -0.004 C 
ATOM     16  CD2 UNL     1      33.684 -19.821 -20.653  0.00  0.00    -0.004 C 
ATOM     17  CE1 UNL     1      35.444 -21.670 -19.529  0.00  0.00    -0.000 C 
ATOM     18  CE2 UNL     1      33.189 -20.971 -20.041  0.00  0.00    -0.000 C 
ATOM     19  CZ  UNL     1      34.069 -21.897 -19.479  0.00  0.00    -0.000 C 
ENDBRANCH  13  14
ENDBRANCH   1  13
TORSDOF 5
ENDMDL
MODEL 3
REMARK VINA RESULT:      -7.4      3.287      4.846
REMARK  Name = 446054
REMARK  5 active torsions:
REMARK  status: ('A' for Active; 'I' for Inactive)
REMARK    1  A    between atoms: CA_1  and  N_3
REMARK    2  A    between atoms: CA_1  and  C_10
REMARK    3  A    between atoms: CA_1  and  CB_13
REMARK    4  A    between atoms: C_10  and  O_11
REMARK    5  A    between atoms: CB_13  and  CG_14
REMARK                            x       y       z     vdW  Elec       q    Type
REMARK                         _______ _______ _______ _____ _____    ______ ____
ROOT
ATOM      1  CA  UNL     1      33.230 -14.806 -23.619  0.00  0.00    +0.177 C 
ENDROOT
BRANCH   1   3
ATOM      2  O   UNL     1      33.019 -15.697 -26.371  0.00  0.00    -0.253 OA
ATOM      3  N   UNL     1      33.272 -13.992 -24.808  0.00  0.00    -0.281 N 
ATOM      4  N   UNL     1      33.234 -13.516 -27.058  0.00  0.00    -0.313 N 
ATOM      5  C   ACE A   0      33.163 -14.507 -26.094  0.00  0.00    +0.298 C 
ATOM      6  H   UNL     1      33.384 -13.020 -24.703  0.00  0.00    +0.151 HD
ATOM      7  H   UNL     1      33.170 -13.752 -28.012  0.00  0.00    +0.146 HD
ATOM      8  H   UNL     1      33.350 -12.576 -26.790  0.00  0.00    +0.146 HD
ENDBRANCH   1   3
BRANCH   1  10
ATOM      9  OXT UNL     1      32.497 -14.500 -21.334  0.00  0.00    -0.248 OA
ATOM     10  C   UNL     1      32.499 -14.091 -22.491  0.00  0.00    +0.332 C 
BRANCH  10  11
ATOM     11  O   UNL     1      31.853 -12.960 -22.859  0.00  0.00    -0.479 OA
ATOM     12  H   UNL     1      31.500 -12.881 -23.724  0.00  0.00    +0.295 HD
ENDBRANCH  10  11
ENDBRANCH   1  10
BRANCH   1  13
ATOM     13  CB  UNL     1      34.642 -15.196 -23.165  0.00  0.00    +0.057 C 
BRANCH  13  14
ATOM     14  CG  UNL     1      34.781 -16.670 -22.872  0.00  0.00    -0.020 C 
ATOM     15  CD1 UNL     1      34.873 -17.096 -21.557  0.00  0.00    -0.004 C 
ATOM     16  CD2 UNL     1      34.813 -17.571 -23.924  0.00  0.00    -0.004 C 
ATOM     17  CE1 UNL     1      35.000 -18.458 -21.286  0.00  0.00    -0.000 C 
ATOM     18  CE2 UNL     1      34.941 -18.933 -23.654  0.00  0.00    -0.000 C 
ATOM     19  CZ  UNL     1      35.035 -19.377 -22.334  0.00  0.00    -0.000 C 
ENDBRANCH  13  14
ENDBRANCH   1  13
TORSDOF 5
ENDMDL
MODEL 4
REMARK VINA RESULT:      -7.4      8.710     10.729
REMARK  Name = 446054
REMARK  5 active torsions:
REMARK  status: ('A' for Active; 'I' for Inactive)
REMARK    1  A    between atoms: CA_1  and  N_3
REMARK    2  A    between atoms: CA_1  and  C_10
REMARK    3  A    between atoms: CA_1  and  CB_13
REMARK    4  A    between atoms: C_10  and  O_11
REMARK    5  A    between atoms: CB_13  and  CG_14
REMARK                            x       y       z     vdW  Elec       q    Type
REMARK                         _______ _______ _______ _____ _____    ______ ____
ROOT
ATOM      1  CA  UNL     1      38.328 -24.579 -13.493  0.00  0.00    +0.177 C 
ENDROOT
BRANCH   1   3
ATOM      2  O   UNL     1      40.991 -24.696 -14.635  0.00  0.00    -0.253 OA
ATOM      3  N   UNL     1      39.177 -25.737 -13.616  0.00  0.00    -0.281 N 
ATOM      4  N   UNL     1      41.052 -26.946 -14.178  0.00  0.00    -0.313 N 
ATOM      5  C   ACE A   0      40.446 -25.701 -14.180  0.00  0.00    +0.298 C 
ATOM      6  H   UNL     1      38.840 -26.600 -13.282  0.00  0.00    +0.151 HD
ATOM      7  H   UNL     1      41.956 -27.054 -14.552  0.00  0.00    +0.146 HD
ATOM      8  H   UNL     1      40.578 -27.723 -13.804  0.00  0.00    +0.146 HD
ENDBRANCH   1   3
BRANCH   1  10
ATOM      9  OXT UNL     1      38.891 -23.148 -11.626  0.00  0.00    -0.248 OA
ATOM     10  C   UNL     1      38.252 -24.106 -12.048  0.00  0.00    +0.332 C 
BRANCH  10  11
ATOM     11  O   UNL     1      37.416 -24.821 -11.259  0.00  0.00    -0.479 OA
ATOM     12  H   UNL     1      36.629 -25.183 -11.616  0.00  0.00    +0.295 HD
ENDBRANCH  10  11
ENDBRANCH   1  10
BRANCH   1  13
ATOM     13  CB  UNL     1      36.919 -24.868 -14.025  0.00  0.00    +0.057 C 
BRANCH  13  14
ATOM     14  CG  UNL     1      36.503 -23.927 -15.131  0.00  0.00    -0.020 C 
ATOM     15  CD1 UNL     1      35.186 -23.924 -15.560  0.00  0.00    -0.004 C 
ATOM     16  CD2 UNL     1      37.447 -23.083 -15.695  0.00  0.00    -0.004 C 
ATOM     17  CE1 UNL     1      34.802 -23.055 -16.581  0.00  0.00    -0.000 C 
ATOM     18  CE2 UNL     1      37.063 -22.215 -16.716  0.00  0.00    -0.000 C 
ATOM     19  CZ  UNL     1      35.740 -22.200 -17.160  0.00  0.00    -0.000 C 
ENDBRANCH  13  14
ENDBRANCH   1  13
TORSDOF 5
ENDMDL
MODEL 5
REMARK VINA RESULT:      -7.3      7.490      9.177
REMARK  Name = 446054
REMARK  5 active torsions:
REMARK  status: ('A' for Active; 'I' for Inactive)
REMARK    1  A    between atoms: CA_1  and  N_3
REMARK    2  A    between atoms: CA_1  and  C_10
REMARK    3  A    between atoms: CA_1  and  CB_13
REMARK    4  A    between atoms: C_10  and  O_11
REMARK    5  A    between atoms: CB_13  and  CG_14
REMARK                            x       y       z     vdW  Elec       q    Type
REMARK                         _______ _______ _______ _____ _____    ______ ____
ROOT
ATOM      1  CA  UNL     1      36.428 -23.920 -15.366  0.00  0.00    +0.177 C 
ENDROOT
BRANCH   1   3
ATOM      2  O   UNL     1      36.188 -26.758 -15.912  0.00  0.00    -0.253 OA
ATOM      3  N   UNL     1      36.890 -25.011 -14.546  0.00  0.00    -0.281 N 
ATOM      4  N   UNL     1      37.261 -27.197 -13.930  0.00  0.00    -0.313 N 
ATOM      5  C   ACE A   0      36.730 -26.349 -14.887  0.00  0.00    +0.298 C 
ATOM      6  H   UNL     1      37.342 -24.797 -13.698  0.00  0.00    +0.151 HD
ATOM      7  H   UNL     1      37.211 -28.172 -14.054  0.00  0.00    +0.146 HD
ATOM      8  H   UNL     1      37.686 -26.824 -13.124  0.00  0.00    +0.146 HD
ENDBRANCH   1   3
BRANCH   1  10
ATOM      9  OXT UNL     1      37.429 -21.830 -16.061  0.00  0.00    -0.248 OA
ATOM     10  C   UNL     1      37.581 -23.012 -15.771  0.00  0.00    +0.332 C 
BRANCH  10  11
ATOM     11  O   UNL     1      38.797 -23.608 -15.780  0.00  0.00    -0.479 OA
ATOM     12  H   UNL     1      38.908 -24.453 -15.392  0.00  0.00    +0.295 HD
ENDBRANCH  10  11
ENDBRANCH   1  10
BRANCH   1  13
ATOM     13  CB  UNL     1      35.347 -23.105 -14.645  0.00  0.00    +0.057 C 
BRANCH  13  14
ATOM     14  CG  UNL     1      34.017 -23.130 -15.359  0.00  0.00    -0.020 C 
ATOM     15  CD1 UNL     1      32.847 -23.146 -14.616  0.00  0.00    -0.004 C 
ATOM     16  CD2 UNL     1      33.990 -23.136 -16.745  0.00  0.00    -0.004 C 
ATOM     17  CE1 UNL     1      31.619 -23.170 -15.275  0.00  0.00    -0.000 C 
ATOM     18  CE2 UNL     1      32.761 -23.160 -17.404  0.00  0.00    -0.000 C 
ATOM     19  CZ  UNL     1      31.575 -23.177 -16.669  0.00  0.00    -0.000 C 
ENDBRANCH  13  14
ENDBRANCH   1  13
TORSDOF 5
ENDMDL
MODEL 6
REMARK VINA RESULT:      -7.3      8.803     10.256
REMARK  Name = 446054
REMARK  5 active torsions:
REMARK  status: ('A' for Active; 'I' for Inactive)
REMARK    1  A    between atoms: CA_1  and  N_3
REMARK    2  A    between atoms: CA_1  and  C_10
REMARK    3  A    between atoms: CA_1  and  CB_13
REMARK    4  A    between atoms: C_10  and  O_11
REMARK    5  A    between atoms: CB_13  and  CG_14
REMARK                            x       y       z     vdW  Elec       q    Type
REMARK                         _______ _______ _______ _____ _____    ______ ____
ROOT
ATOM      1  CA  UNL     1      36.488 -25.346 -14.447  0.00  0.00    +0.177 C 
ENDROOT
BRANCH   1   3
ATOM      2  O   UNL     1      36.271 -25.417 -11.556  0.00  0.00    -0.253 OA
ATOM      3  N   UNL     1      37.328 -24.673 -13.489  0.00  0.00    -0.281 N 
ATOM      4  N   UNL     1      38.090 -24.022 -11.418  0.00  0.00    -0.313 N 
ATOM      5  C   ACE A   0      37.150 -24.763 -12.114  0.00  0.00    +0.298 C 
ATOM      6  H   UNL     1      38.069 -24.119 -13.828  0.00  0.00    +0.151 HD
ATOM      7  H   UNL     1      38.071 -24.003 -10.434  0.00  0.00    +0.146 HD
ATOM      8  H   UNL     1      38.776 -23.514 -11.907  0.00  0.00    +0.146 HD
ENDBRANCH   1   3
BRANCH   1  10
ATOM      9  OXT UNL     1      38.235 -27.012 -14.598  0.00  0.00    -0.248 OA
ATOM     10  C   UNL     1      37.209 -26.533 -15.070  0.00  0.00    +0.332 C 
BRANCH  10  11
ATOM     11  O   UNL     1      36.626 -27.031 -16.186  0.00  0.00    -0.479 OA
ATOM     12  H   UNL     1      36.041 -27.760 -16.125  0.00  0.00    +0.295 HD
ENDBRANCH  10  11
ENDBRANCH   1  10
BRANCH   1  13
ATOM     13  CB  UNL     1      36.018 -24.383 -15.544  0.00  0.00    +0.057 C 
BRANCH  13  14
ATOM     14  CG  UNL     1      34.558 -24.019 -15.422  0.00  0.00    -0.020 C 
ATOM     15  CD1 UNL     1      33.883 -23.535 -16.531  0.00  0.00    -0.004 C 
ATOM     16  CD2 UNL     1      33.919 -24.175 -14.202  0.00  0.00    -0.004 C 
ATOM     17  CE1 UNL     1      32.534 -23.199 -16.418  0.00  0.00    -0.000 C 
ATOM     18  CE2 UNL     1      32.570 -23.839 -14.089  0.00  0.00    -0.000 C 
ATOM     19  CZ  UNL     1      31.877 -23.350 -15.197  0.00  0.00    -0.000 C 
ENDBRANCH  13  14
ENDBRANCH   1  13
TORSDOF 5
ENDMDL
MODEL 7
REMARK VINA RESULT:      -7.2      3.490      5.058
REMARK  Name = 446054
REMARK  5 active torsions:
REMARK  status: ('A' for Active; 'I' for Inactive)
REMARK    1  A    between atoms: CA_1  and  N_3
REMARK    2  A    between atoms: CA_1  and  C_10
REMARK    3  A    between atoms: CA_1  and  CB_13
REMARK    4  A    between atoms: C_10  and  O_11
REMARK    5  A    between atoms: CB_13  and  CG_14
REMARK                            x       y       z     vdW  Elec       q    Type
REMARK                         _______ _______ _______ _____ _____    ______ ____
ROOT
ATOM      1  CA  UNL     1      33.564 -14.457 -22.863  0.00  0.00    +0.177 C 
ENDROOT
BRANCH   1   3
ATOM      2  O   UNL     1      33.303 -13.233 -25.479  0.00  0.00    -0.253 OA
ATOM      3  N   UNL     1      34.049 -13.165 -23.276  0.00  0.00    -0.281 N 
ATOM      4  N   UNL     1      34.437 -11.396 -24.696  0.00  0.00    -0.313 N 
ATOM      5  C   ACE A   0      33.878 -12.655 -24.558  0.00  0.00    +0.298 C 
ATOM      6  H   UNL     1      34.527 -12.613 -22.615  0.00  0.00    +0.151 HD
ATOM      7  H   UNL     1      34.384 -10.926 -25.559  0.00  0.00    +0.146 HD
ATOM      8  H   UNL     1      34.889 -10.972 -23.931  0.00  0.00    +0.146 HD
ENDBRANCH   1   3
BRANCH   1  10
ATOM      9  OXT UNL     1      32.202 -13.245 -21.274  0.00  0.00    -0.248 OA
ATOM     10  C   UNL     1      32.556 -14.328 -21.730  0.00  0.00    +0.332 C 
BRANCH  10  11
ATOM     11  O   UNL     1      32.068 -15.502 -21.265  0.00  0.00    -0.479 OA
ATOM     12  H   UNL     1      31.173 -15.732 -21.419  0.00  0.00    +0.295 HD
ENDBRANCH  10  11
ENDBRANCH   1  10
BRANCH   1  13
ATOM     13  CB  UNL     1      34.720 -15.370 -22.434  0.00  0.00    +0.057 C 
BRANCH  13  14
ATOM     14  CG  UNL     1      34.709 -16.705 -23.141  0.00  0.00    -0.020 C 
ATOM     15  CD1 UNL     1      34.497 -16.747 -24.509  0.00  0.00    -0.004 C 
ATOM     16  CD2 UNL     1      34.913 -17.863 -22.407  0.00  0.00    -0.004 C 
ATOM     17  CE1 UNL     1      34.487 -17.980 -25.161  0.00  0.00    -0.000 C 
ATOM     18  CE2 UNL     1      34.904 -19.095 -23.059  0.00  0.00    -0.000 C 
ATOM     19  CZ  UNL     1      34.690 -19.154 -24.437  0.00  0.00    -0.000 C 
ENDBRANCH  13  14
ENDBRANCH   1  13
TORSDOF 5
ENDMDL
MODEL 8
REMARK VINA RESULT:      -7.2      2.448      5.403
REMARK  Name = 446054
REMARK  5 active torsions:
REMARK  status: ('A' for Active; 'I' for Inactive)
REMARK    1  A    between atoms: CA_1  and  N_3
REMARK    2  A    between atoms: CA_1  and  C_10
REMARK    3  A    between atoms: CA_1  and  CB_13
REMARK    4  A    between atoms: C_10  and  O_11
REMARK    5  A    between atoms: CB_13  and  CG_14
REMARK                            x       y       z     vdW  Elec       q    Type
REMARK                         _______ _______ _______ _____ _____    ______ ____
ROOT
ATOM      1  CA  UNL     1      34.474 -18.340 -21.590  0.00  0.00    +0.177 C 
ENDROOT
BRANCH   1   3
ATOM      2  O   UNL     1      32.482 -20.326 -20.885  0.00  0.00    -0.253 OA
ATOM      3  N   UNL     1      34.618 -19.432 -20.660  0.00  0.00    -0.281 N 
ATOM      4  N   UNL     1      33.997 -21.291 -19.455  0.00  0.00    -0.313 N 
ATOM      5  C   ACE A   0      33.604 -20.341 -20.382  0.00  0.00    +0.298 C 
ATOM      6  H   UNL     1      35.480 -19.540 -20.198  0.00  0.00    +0.151 HD
ATOM      7  H   UNL     1      33.367 -21.993 -19.172  0.00  0.00    +0.146 HD
ATOM      8  H   UNL     1      34.906 -21.264 -19.078  0.00  0.00    +0.146 HD
ENDBRANCH   1   3
BRANCH   1  10
ATOM      9  OXT UNL     1      34.639 -19.238 -23.829  0.00  0.00    -0.248 OA
ATOM     10  C   UNL     1      35.180 -18.643 -22.904  0.00  0.00    +0.332 C 
BRANCH  10  11
ATOM     11  O   UNL     1      36.457 -18.197 -22.979  0.00  0.00    -0.479 OA
ATOM     12  H   UNL     1      36.676 -17.500 -23.566  0.00  0.00    +0.295 HD
ENDBRANCH  10  11
ENDBRANCH   1  10
BRANCH   1  13
ATOM     13  CB  UNL     1      35.012 -17.032 -20.994  0.00  0.00    +0.057 C 
BRANCH  13  14
ATOM     14  CG  UNL     1      34.229 -15.819 -21.436  0.00  0.00    -0.020 C 
ATOM     15  CD1 UNL     1      34.576 -15.179 -22.614  0.00  0.00    -0.004 C 
ATOM     16  CD2 UNL     1      33.177 -15.368 -20.654  0.00  0.00    -0.004 C 
ATOM     17  CE1 UNL     1      33.853 -14.058 -23.022  0.00  0.00    -0.000 C 
ATOM     18  CE2 UNL     1      32.455 -14.248 -21.061  0.00  0.00    -0.000 C 
ATOM     19  CZ  UNL     1      32.792 -13.592 -22.246  0.00  0.00    -0.000 C 
ENDBRANCH  13  14
ENDBRANCH   1  13
TORSDOF 5
ENDMDL
MODEL 9
REMARK VINA RESULT:      -7.2      2.791      5.558
REMARK  Name = 446054
REMARK  5 active torsions:
REMARK  status: ('A' for Active; 'I' for Inactive)
REMARK    1  A    between atoms: CA_1  and  N_3
REMARK    2  A    between atoms: CA_1  and  C_10
REMARK    3  A    between atoms: CA_1  and  CB_13
REMARK    4  A    between atoms: C_10  and  O_11
REMARK    5  A    between atoms: CB_13  and  CG_14
REMARK                            x       y       z     vdW  Elec       q    Type
REMARK                         _______ _______ _______ _____ _____    ______ ____
ROOT
ATOM      1  CA  UNL     1      34.662 -17.173 -23.381  0.00  0.00    +0.177 C 
ENDROOT
BRANCH   1   3
ATOM      2  O   UNL     1      34.065 -18.643 -20.954  0.00  0.00    -0.253 OA
ATOM      3  N   UNL     1      35.594 -17.857 -22.521  0.00  0.00    -0.281 N 
ATOM      4  N   UNL     1      36.302 -19.108 -20.724  0.00  0.00    -0.313 N 
ATOM      5  C   ACE A   0      35.218 -18.540 -21.370  0.00  0.00    +0.298 C 
ATOM      6  H   UNL     1      36.549 -17.840 -22.761  0.00  0.00    +0.151 HD
ATOM      7  H   UNL     1      36.168 -19.620 -19.894  0.00  0.00    +0.146 HD
ATOM      8  H   UNL     1      37.208 -18.999 -21.095  0.00  0.00    +0.146 HD
ENDBRANCH   1   3
BRANCH   1  10
ATOM      9  OXT UNL     1      34.772 -17.096 -25.796  0.00  0.00    -0.248 OA
ATOM     10  C   UNL     1      34.664 -17.774 -24.779  0.00  0.00    +0.332 C 
BRANCH  10  11
ATOM     11  O   UNL     1      34.544 -19.122 -24.819  0.00  0.00    -0.479 OA
ATOM     12  H   UNL     1      34.125 -19.535 -25.549  0.00  0.00    +0.295 HD
ENDBRANCH  10  11
ENDBRANCH   1  10
BRANCH   1  13
ATOM     13  CB  UNL     1      34.975 -15.673 -23.454  0.00  0.00    +0.057 C 
BRANCH  13  14
ATOM     14  CG  UNL     1      33.978 -14.826 -22.700  0.00  0.00    -0.020 C 
ATOM     15  CD1 UNL     1      33.790 -15.043 -21.345  0.00  0.00    -0.004 C 
ATOM     16  CD2 UNL     1      33.269 -13.846 -23.378  0.00  0.00    -0.004 C 
ATOM     17  CE1 UNL     1      32.869 -14.260 -20.649  0.00  0.00    -0.000 C 
ATOM     18  CE2 UNL     1      32.349 -13.064 -22.682  0.00  0.00    -0.000 C 
ATOM     19  CZ  UNL     1      32.148 -13.271 -21.316  0.00  0.00    -0.000 C 
ENDBRANCH  13  14
ENDBRANCH   1  13
TORSDOF 5
ENDMDL
