MODEL 1
REMARK VINA RESULT:      -3.7      0.000      0.000
REMARK  Name = 68295
REMARK  3 active torsions:
REMARK  status: ('A' for Active; 'I' for Inactive)
REMARK    1  A    between atoms: C_1  and  C_3
REMARK    2  A    between atoms: C_1  and  C_5
REMARK    3  A    between atoms: C_1  and  O_6
REMARK                            x       y       z     vdW  Elec       q    Type
REMARK                         _______ _______ _______ _____ _____    ______ ____
ROOT
ATOM      1  C   UNL     1      34.683 -16.828 -22.916  0.00  0.00    +0.131 C 
ENDROOT
BRANCH   1   3
ATOM      2  I   UNL     1      34.498 -19.382 -21.243  0.00  0.00    -0.072 I 
ATOM      3  C   UNL     1      34.980 -18.325 -23.058  0.00  0.00    +0.092 C 
ENDBRANCH   1   3
BRANCH   1   5
ATOM      4  I   UNL     1      33.062 -15.114 -20.964  0.00  0.00    -0.072 I 
ATOM      5  C   UNL     1      34.714 -16.418 -21.440  0.00  0.00    +0.092 C 
ENDBRANCH   1   5
BRANCH   1   6
ATOM      6  O   UNL     1      35.699 -16.090 -23.600  0.00  0.00    -0.383 OA
ATOM      7  H   UNL     1      36.563 -16.494 -23.427  0.00  0.00    +0.210 HD
ENDBRANCH   1   6
TORSDOF 3
ENDMDL
MODEL 2
REMARK VINA RESULT:      -3.7      8.617      9.719
REMARK  Name = 68295
REMARK  3 active torsions:
REMARK  status: ('A' for Active; 'I' for Inactive)
REMARK    1  A    between atoms: C_1  and  C_3
REMARK    2  A    between atoms: C_1  and  C_5
REMARK    3  A    between atoms: C_1  and  O_6
REMARK                            x       y       z     vdW  Elec       q    Type
REMARK                         _______ _______ _______ _____ _____    ______ ____
ROOT
ATOM      1  C   UNL     1      32.192  -7.615 -20.539  0.00  0.00    +0.131 C 
ENDROOT
BRANCH   1   3
ATOM      2  I   UNL     1      33.794  -7.652 -23.144  0.00  0.00    -0.072 I 
ATOM      3  C   UNL     1      32.474  -6.697 -21.733  0.00  0.00    +0.092 C 
ENDBRANCH   1   3
BRANCH   1   5
ATOM      4  I   UNL     1      31.527 -10.377 -19.399  0.00  0.00    -0.072 I 
ATOM      5  C   UNL     1      32.224  -9.083 -20.978  0.00  0.00    +0.092 C 
ENDBRANCH   1   5
BRANCH   1   6
ATOM      6  O   UNL     1      33.215  -7.424 -19.559  0.00  0.00    -0.383 OA
ATOM      7  H   UNL     1      32.938  -6.737 -18.933  0.00  0.00    +0.210 HD
ENDBRANCH   1   6
TORSDOF 3
ENDMDL
MODEL 3
REMARK VINA RESULT:      -3.6      1.832      1.905
REMARK  Name = 68295
REMARK  3 active torsions:
REMARK  status: ('A' for Active; 'I' for Inactive)
REMARK    1  A    between atoms: C_1  and  C_3
REMARK    2  A    between atoms: C_1  and  C_5
REMARK    3  A    between atoms: C_1  and  O_6
REMARK                            x       y       z     vdW  Elec       q    Type
REMARK                         _______ _______ _______ _____ _____    ______ ____
ROOT
ATOM      1  C   UNL     1      34.422 -17.109 -24.487  0.00  0.00    +0.131 C 
ENDROOT
BRANCH   1   3
ATOM      2  I   UNL     1      34.887 -18.880 -22.037  0.00  0.00    -0.072 I 
ATOM      3  C   UNL     1      34.857 -18.543 -24.166  0.00  0.00    +0.092 C 
ENDBRANCH   1   3
BRANCH   1   5
ATOM      4  I   UNL     1      33.833 -14.366 -23.261  0.00  0.00    -0.072 I 
ATOM      5  C   UNL     1      35.057 -16.127 -23.497  0.00  0.00    +0.092 C 
ENDBRANCH   1   5
BRANCH   1   6
ATOM      6  O   UNL     1      34.879 -16.772 -25.799  0.00  0.00    -0.383 OA
ATOM      7  H   UNL     1      34.180 -16.965 -26.443  0.00  0.00    +0.210 HD
ENDBRANCH   1   6
TORSDOF 3
ENDMDL
MODEL 4
REMARK VINA RESULT:      -3.5      8.453      9.454
REMARK  Name = 68295
REMARK  3 active torsions:
REMARK  status: ('A' for Active; 'I' for Inactive)
REMARK    1  A    between atoms: C_1  and  C_3
REMARK    2  A    between atoms: C_1  and  C_5
REMARK    3  A    between atoms: C_1  and  O_6
REMARK                            x       y       z     vdW  Elec       q    Type
REMARK                         _______ _______ _______ _____ _____    ______ ____
ROOT
ATOM      1  C   UNL     1      32.743  -8.043 -20.978  0.00  0.00    +0.131 C 
ENDROOT
BRANCH   1   3
ATOM      2  I   UNL     1      31.508 -10.427 -19.512  0.00  0.00    -0.072 I 
ATOM      3  C   UNL     1      31.922  -9.297 -21.300  0.00  0.00    +0.092 C 
ENDBRANCH   1   3
BRANCH   1   5
ATOM      4  I   UNL     1      31.383  -7.019 -23.522  0.00  0.00    -0.072 I 
ATOM      5  C   UNL     1      32.015  -6.789 -21.472  0.00  0.00    +0.092 C 
ENDBRANCH   1   5
BRANCH   1   6
ATOM      6  O   UNL     1      32.889  -7.940 -19.559  0.00  0.00    -0.383 OA
ATOM      7  H   UNL     1      32.189  -7.370 -19.204  0.00  0.00    +0.210 HD
ENDBRANCH   1   6
TORSDOF 3
ENDMDL
MODEL 5
REMARK VINA RESULT:      -3.5      2.385      3.155
REMARK  Name = 68295
REMARK  3 active torsions:
REMARK  status: ('A' for Active; 'I' for Inactive)
REMARK    1  A    between atoms: C_1  and  C_3
REMARK    2  A    between atoms: C_1  and  C_5
REMARK    3  A    between atoms: C_1  and  O_6
REMARK                            x       y       z     vdW  Elec       q    Type
REMARK                         _______ _______ _______ _____ _____    ______ ____
ROOT
ATOM      1  C   UNL     1      34.590 -16.574 -21.591  0.00  0.00    +0.131 C 
ENDROOT
BRANCH   1   3
ATOM      2  I   UNL     1      34.642 -17.048 -24.612  0.00  0.00    -0.072 I 
ATOM      3  C   UNL     1      34.862 -15.787 -22.878  0.00  0.00    +0.092 C 
ENDBRANCH   1   3
BRANCH   1   5
ATOM      4  I   UNL     1      34.286 -19.584 -21.127  0.00  0.00    -0.072 I 
ATOM      5  C   UNL     1      35.469 -17.828 -21.539  0.00  0.00    +0.092 C 
ENDBRANCH   1   5
BRANCH   1   6
ATOM      6  O   UNL     1      34.925 -15.752 -20.470  0.00  0.00    -0.383 OA
ATOM      7  H   UNL     1      35.522 -16.239 -19.880  0.00  0.00    +0.210 HD
ENDBRANCH   1   6
TORSDOF 3
ENDMDL
MODEL 6
REMARK VINA RESULT:      -3.5     11.015     11.645
REMARK  Name = 68295
REMARK  3 active torsions:
REMARK  status: ('A' for Active; 'I' for Inactive)
REMARK    1  A    between atoms: C_1  and  C_3
REMARK    2  A    between atoms: C_1  and  C_5
REMARK    3  A    between atoms: C_1  and  O_6
REMARK                            x       y       z     vdW  Elec       q    Type
REMARK                         _______ _______ _______ _____ _____    ______ ____
ROOT
ATOM      1  C   UNL     1      36.947 -26.047 -14.596  0.00  0.00    +0.131 C 
ENDROOT
BRANCH   1   3
ATOM      2  I   UNL     1      39.971 -25.586 -14.583  0.00  0.00    -0.072 I 
ATOM      3  C   UNL     1      37.986 -25.226 -13.825  0.00  0.00    +0.092 C 
ENDBRANCH   1   3
BRANCH   1   5
ATOM      4  I   UNL     1      36.406 -23.142 -15.396  0.00  0.00    -0.072 I 
ATOM      5  C   UNL     1      35.763 -25.163 -15.000  0.00  0.00    +0.092 C 
ENDBRANCH   1   5
BRANCH   1   6
ATOM      6  O   UNL     1      37.552 -26.550 -15.790  0.00  0.00    -0.383 OA
ATOM      7  H   UNL     1      37.087 -27.353 -16.074  0.00  0.00    +0.210 HD
ENDBRANCH   1   6
TORSDOF 3
ENDMDL
MODEL 7
REMARK VINA RESULT:      -3.5      9.297      9.641
REMARK  Name = 68295
REMARK  3 active torsions:
REMARK  status: ('A' for Active; 'I' for Inactive)
REMARK    1  A    between atoms: C_1  and  C_3
REMARK    2  A    between atoms: C_1  and  C_5
REMARK    3  A    between atoms: C_1  and  O_6
REMARK                            x       y       z     vdW  Elec       q    Type
REMARK                         _______ _______ _______ _____ _____    ______ ____
ROOT
ATOM      1  C   UNL     1      41.655 -14.947 -16.277  0.00  0.00    +0.131 C 
ENDROOT
BRANCH   1   3
ATOM      2  I   UNL     1      43.057 -16.325 -18.621  0.00  0.00    -0.072 I 
ATOM      3  C   UNL     1      41.568 -14.997 -17.806  0.00  0.00    +0.092 C 
ENDBRANCH   1   3
BRANCH   1   5
ATOM      4  I   UNL     1      42.716 -12.233 -17.214  0.00  0.00    -0.072 I 
ATOM      5  C   UNL     1      41.695 -13.494 -15.793  0.00  0.00    +0.092 C 
ENDBRANCH   1   5
BRANCH   1   6
ATOM      6  O   UNL     1      40.488 -15.564 -15.728  0.00  0.00    -0.383 OA
ATOM      7  H   UNL     1      40.126 -16.196 -16.368  0.00  0.00    +0.210 HD
ENDBRANCH   1   6
TORSDOF 3
ENDMDL
MODEL 8
REMARK VINA RESULT:      -3.5     11.058     11.899
REMARK  Name = 68295
REMARK  3 active torsions:
REMARK  status: ('A' for Active; 'I' for Inactive)
REMARK    1  A    between atoms: C_1  and  C_3
REMARK    2  A    between atoms: C_1  and  C_5
REMARK    3  A    between atoms: C_1  and  O_6
REMARK                            x       y       z     vdW  Elec       q    Type
REMARK                         _______ _______ _______ _____ _____    ______ ____
ROOT
ATOM      1  C   UNL     1      36.964 -25.781 -15.061  0.00  0.00    +0.131 C 
ENDROOT
BRANCH   1   3
ATOM      2  I   UNL     1      36.953 -22.793 -15.716  0.00  0.00    -0.072 I 
ATOM      3  C   UNL     1      36.026 -24.576 -14.937  0.00  0.00    +0.092 C 
ENDBRANCH   1   3
BRANCH   1   5
ATOM      4  I   UNL     1      39.962 -25.611 -14.464  0.00  0.00    -0.072 I 
ATOM      5  C   UNL     1      37.906 -25.849 -13.855  0.00  0.00    +0.092 C 
ENDBRANCH   1   5
BRANCH   1   6
ATOM      6  O   UNL     1      36.180 -26.977 -15.077  0.00  0.00    -0.383 OA
ATOM      7  H   UNL     1      35.770 -27.105 -14.208  0.00  0.00    +0.210 HD
ENDBRANCH   1   6
TORSDOF 3
ENDMDL
MODEL 9
REMARK VINA RESULT:      -3.5     10.512     11.082
REMARK  Name = 68295
REMARK  3 active torsions:
REMARK  status: ('A' for Active; 'I' for Inactive)
REMARK    1  A    between atoms: C_1  and  C_3
REMARK    2  A    between atoms: C_1  and  C_5
REMARK    3  A    between atoms: C_1  and  O_6
REMARK                            x       y       z     vdW  Elec       q    Type
REMARK                         _______ _______ _______ _____ _____    ______ ____
ROOT
ATOM      1  C   UNL     1      38.100 -24.793 -14.759  0.00  0.00    +0.131 C 
ENDROOT
BRANCH   1   3
ATOM      2  I   UNL     1      37.254 -23.515 -12.112  0.00  0.00    -0.072 I 
ATOM      3  C   UNL     1      38.480 -24.853 -13.276  0.00  0.00    +0.092 C 
ENDBRANCH   1   3
BRANCH   1   5
ATOM      4  I   UNL     1      37.076 -22.305 -16.219  0.00  0.00    -0.072 I 
ATOM      5  C   UNL     1      36.790 -24.019 -14.942  0.00  0.00    +0.092 C 
ENDBRANCH   1   5
BRANCH   1   6
ATOM      6  O   UNL     1      39.127 -24.097 -15.470  0.00  0.00    -0.383 OA
ATOM      7  H   UNL     1      38.730 -23.583 -16.190  0.00  0.00    +0.210 HD
ENDBRANCH   1   6
TORSDOF 3
ENDMDL
