MODEL 1
REMARK VINA RESULT:      10.4      0.000      0.000
REMARK  Name = 11178958
REMARK  2 active torsions:
REMARK  status: ('A' for Active; 'I' for Inactive)
REMARK    1  A    between atoms: C_11  and  C_31
REMARK    2  A    between atoms: C_12  and  O_34
REMARK                            x       y       z     vdW  Elec       q    Type
REMARK                         _______ _______ _______ _____ _____    ______ ____
ROOT
ATOM      1  S   UNL     1      32.414  -5.543 -24.613  0.00  0.00    -0.080 S 
ATOM      2  S   UNL     1      30.782  -6.232 -23.567  0.00  0.00    -0.082 S 
ATOM      3  O   UNL     1      31.651 -11.274 -22.502  0.00  0.00    -0.447 OA
ATOM      4  O   UNL     1      36.197  -8.795 -24.262  0.00  0.00    -0.273 OA
ATOM      5  O   UNL     1      31.690 -13.473 -21.787  0.00  0.00    -0.250 OA
ATOM      6  O   UNL     1      35.158  -7.272 -20.988  0.00  0.00    -0.273 OA
ATOM      7  O   UNL     1      32.941 -10.548 -19.559  0.00  0.00    -0.275 OA
ATOM      8  N   UNL     1      34.152  -9.889 -24.260  0.00  0.00    -0.302 N 
ATOM      9  N   UNL     1      33.468  -7.786 -22.482  0.00  0.00    -0.296 N 
ATOM     10  N   UNL     1      31.901  -8.638 -20.365  0.00  0.00    -0.298 N 
ATOM     11  C   UNL     1      34.611 -11.167 -24.806  0.00  0.00    +0.099 C 
ATOM     12  C   UNL     1      33.644 -12.298 -24.401  0.00  0.00    +0.139 C 
ATOM     13  C   UNL     1      33.616 -12.513 -22.882  0.00  0.00    +0.140 C 
ATOM     14  C   UNL     1      34.239  -7.518 -23.687  0.00  0.00    +0.160 C 
ATOM     15  C   UNL     1      34.984  -8.799 -24.058  0.00  0.00    +0.241 C 
ATOM     16  C   UNL     1      32.207 -12.511 -22.340  0.00  0.00    +0.320 C 
ATOM     17  C   UNL     1      33.389  -7.064 -24.881  0.00  0.00    +0.098 C 
ATOM     18  C   UNL     1      30.407 -11.010 -21.823  0.00  0.00    +0.200 C 
ATOM     19  C   UNL     1      32.990  -7.720 -20.071  0.00  0.00    +0.149 C 
ATOM     20  C   UNL     1      30.679 -10.743 -20.333  0.00  0.00    +0.133 C 
ATOM     21  C   UNL     1      33.998  -7.625 -21.212  0.00  0.00    +0.241 C 
ATOM     22  C   UNL     1      31.963  -9.982 -20.047  0.00  0.00    +0.227 C 
ATOM     23  C   UNL     1      29.648  -9.881 -22.477  0.00  0.00    +0.013 C 
ATOM     24  C   UNL     1      32.448  -6.334 -19.746  0.00  0.00    +0.031 C 
ATOM     25  C   UNL     1      29.869  -9.357 -23.692  0.00  0.00    -0.026 C 
ATOM     26  C   UNL     1      29.018  -8.258 -24.276  0.00  0.00    +0.038 C 
ATOM     27  C   UNL     1      29.826  -7.095 -24.858  0.00  0.00    +0.073 C 
ATOM     28  H   UNL     1      33.200  -9.800 -24.023  0.00  0.00    +0.150 HD
ATOM     29  H   UNL     1      32.536  -8.091 -22.572  0.00  0.00    +0.150 HD
ATOM     30  H   UNL     1      31.092  -8.291 -20.805  0.00  0.00    +0.150 HD
ENDROOT
BRANCH  11  31
ATOM     31  C   UNL     1      34.736 -11.055 -26.327  0.00  0.00    +0.020 C 
ATOM     32  C   UNL     1      36.186 -10.792 -26.724  0.00  0.00    +0.002 C 
ATOM     33  C   UNL     1      34.213 -12.321 -26.999  0.00  0.00    +0.002 C 
ENDBRANCH  11  31
BRANCH  12  34
ATOM     34  O   UNL     1      34.062 -13.517 -25.018  0.00  0.00    -0.382 OA
ATOM     35  H   UNL     1      34.815 -13.884 -24.529  0.00  0.00    +0.210 HD
ENDBRANCH  12  34
TORSDOF 2
ENDMDL
