MODEL 1
REMARK VINA RESULT:      -5.0      0.000      0.000
REMARK  Name = 40424802
REMARK  7 active torsions:
REMARK  status: ('A' for Active; 'I' for Inactive)
REMARK    1  A    between atoms: C_1  and  N_2
REMARK    2  A    between atoms: C_1  and  C_8
REMARK    3  A    between atoms: C_1  and  C_9
REMARK    4  A    between atoms: C_9  and  S_10
REMARK    5  A    between atoms: S_10  and  C_11
REMARK    6  A    between atoms: C_11  and  C_12
REMARK    7  A    between atoms: C_12  and  O_13
REMARK                            x       y       z     vdW  Elec       q    Type
REMARK                         _______ _______ _______ _____ _____    ______ ____
ROOT
ATOM      1  C   UNK     1      36.812 -23.479 -11.817  0.00  0.00    +0.051 C 
ENDROOT
BRANCH   1   2
ATOM      2  N   UNK     1      38.208 -24.024 -11.817  0.00  0.00    +0.389 N 
ATOM      3  H   UNK     1      38.783 -23.482 -12.463  0.00  0.00    -0.088 HD
ATOM      4  H   UNK     1      38.192 -24.999 -12.114  0.00  0.00    -0.088 HD
ATOM      5  H   UNK     1      38.598 -23.959 -10.877  0.00  0.00    -0.088 HD
ENDBRANCH   1   2
BRANCH   1   8
ATOM      6  O   UNK     1      36.038 -24.189  -9.690  0.00  0.00    -0.248 OA
ATOM      7  O   UNK     1      34.925 -24.903 -11.549  0.00  0.00    -0.248 OA
ATOM      8  C   UNK     1      35.822 -24.260 -10.934  0.00  0.00    +0.346 C 
ENDBRANCH   1   8
BRANCH   1   9
ATOM      9  C   UNK     1      36.405 -23.284 -13.280  0.00  0.00    +0.047 C 
BRANCH   9  10
ATOM     10  S   UNK     1      37.572 -24.030 -14.466  0.00  0.00    -0.139 S 
BRANCH  10  11
ATOM     11  C   UNK     1      36.624 -25.517 -14.857  0.00  0.00    +0.089 C 
BRANCH  11  12
ATOM     12  C   UNK     1      37.239 -26.752 -14.219  0.00  0.00    +0.149 C 
BRANCH  12  13
ATOM     13  O   UNK     1      36.882 -26.820 -12.845  0.00  0.00    -0.381 OA
ATOM     14  H   UNK     1      36.242 -26.119 -12.642  0.00  0.00    +0.210 HD
ENDBRANCH  12  13
ENDBRANCH  11  12
ENDBRANCH  10  11
ENDBRANCH   9  10
ENDBRANCH   1   9
TORSDOF 7
ENDMDL
MODEL 2
REMARK VINA RESULT:      -4.9      2.838      4.637
REMARK  Name = 40424802
REMARK  7 active torsions:
REMARK  status: ('A' for Active; 'I' for Inactive)
REMARK    1  A    between atoms: C_1  and  N_2
REMARK    2  A    between atoms: C_1  and  C_8
REMARK    3  A    between atoms: C_1  and  C_9
REMARK    4  A    between atoms: C_9  and  S_10
REMARK    5  A    between atoms: S_10  and  C_11
REMARK    6  A    between atoms: C_11  and  C_12
REMARK    7  A    between atoms: C_12  and  O_13
REMARK                            x       y       z     vdW  Elec       q    Type
REMARK                         _______ _______ _______ _____ _____    ______ ____
ROOT
ATOM      1  C   UNK     1      38.746 -26.015 -14.402  0.00  0.00    +0.051 C 
ENDROOT
BRANCH   1   2
ATOM      2  N   UNK     1      38.542 -26.211 -12.930  0.00  0.00    +0.389 N 
ATOM      3  H   UNK     1      38.056 -27.093 -12.769  0.00  0.00    -0.088 HD
ATOM      4  H   UNK     1      37.982 -25.443 -12.560  0.00  0.00    -0.088 HD
ATOM      5  H   UNK     1      39.447 -26.230 -12.461  0.00  0.00    -0.088 HD
ENDBRANCH   1   2
BRANCH   1   8
ATOM      6  O   UNK     1      40.637 -26.026 -15.833  0.00  0.00    -0.248 OA
ATOM      7  O   UNK     1      40.655 -24.649 -14.013  0.00  0.00    -0.248 OA
ATOM      8  C   UNK     1      40.146 -25.506 -14.790  0.00  0.00    +0.346 C 
ENDBRANCH   1   8
BRANCH   1   9
ATOM      9  C   UNK     1      37.560 -25.193 -14.914  0.00  0.00    +0.047 C 
BRANCH   9  10
ATOM     10  S   UNK     1      36.342 -24.786 -13.620  0.00  0.00    -0.139 S 
BRANCH  10  11
ATOM     11  C   UNK     1      36.918 -23.116 -13.242  0.00  0.00    +0.089 C 
BRANCH  11  12
ATOM     12  C   UNK     1      37.415 -23.012 -11.809  0.00  0.00    +0.149 C 
BRANCH  12  13
ATOM     13  O   UNK     1      38.798 -23.337 -11.748  0.00  0.00    -0.381 OA
ATOM     14  H   UNK     1      38.908 -24.201 -11.320  0.00  0.00    +0.210 HD
ENDBRANCH  12  13
ENDBRANCH  11  12
ENDBRANCH  10  11
ENDBRANCH   9  10
ENDBRANCH   1   9
TORSDOF 7
ENDMDL
MODEL 3
REMARK VINA RESULT:      -4.8      2.067      4.239
REMARK  Name = 40424802
REMARK  7 active torsions:
REMARK  status: ('A' for Active; 'I' for Inactive)
REMARK    1  A    between atoms: C_1  and  N_2
REMARK    2  A    between atoms: C_1  and  C_8
REMARK    3  A    between atoms: C_1  and  C_9
REMARK    4  A    between atoms: C_9  and  S_10
REMARK    5  A    between atoms: S_10  and  C_11
REMARK    6  A    between atoms: C_11  and  C_12
REMARK    7  A    between atoms: C_12  and  O_13
REMARK                            x       y       z     vdW  Elec       q    Type
REMARK                         _______ _______ _______ _____ _____    ______ ____
ROOT
ATOM      1  C   UNK     1      37.532 -26.692 -14.096  0.00  0.00    +0.051 C 
ENDROOT
BRANCH   1   2
ATOM      2  N   UNK     1      38.997 -26.419 -14.259  0.00  0.00    +0.389 N 
ATOM      3  H   UNK     1      39.531 -27.216 -13.913  0.00  0.00    -0.088 HD
ATOM      4  H   UNK     1      39.248 -25.585 -13.728  0.00  0.00    -0.088 HD
ATOM      5  H   UNK     1      39.206 -26.271 -15.246  0.00  0.00    -0.088 HD
ENDBRANCH   1   2
BRANCH   1   8
ATOM      6  O   UNK     1      36.091 -25.329 -15.396  0.00  0.00    -0.248 OA
ATOM      7  O   UNK     1      36.675 -27.382 -16.205  0.00  0.00    -0.248 OA
ATOM      8  C   UNK     1      36.691 -26.442 -15.360  0.00  0.00    +0.346 C 
ENDBRANCH   1   8
BRANCH   1   9
ATOM      9  C   UNK     1      37.079 -25.965 -12.826  0.00  0.00    +0.047 C 
BRANCH   9  10
ATOM     10  S   UNK     1      38.081 -24.494 -12.432  0.00  0.00    -0.139 S 
BRANCH  10  11
ATOM     11  C   UNK     1      36.863 -23.617 -11.427  0.00  0.00    +0.089 C 
BRANCH  11  12
ATOM     12  C   UNK     1      35.614 -24.457 -11.211  0.00  0.00    +0.149 C 
BRANCH  12  13
ATOM     13  O   UNK     1      35.330 -24.561  -9.823  0.00  0.00    -0.381 OA
ATOM     14  H   UNK     1      34.612 -25.199  -9.686  0.00  0.00    +0.210 HD
ENDBRANCH  12  13
ENDBRANCH  11  12
ENDBRANCH  10  11
ENDBRANCH   9  10
ENDBRANCH   1   9
TORSDOF 7
ENDMDL
MODEL 4
REMARK VINA RESULT:      -4.8      2.892      4.524
REMARK  Name = 40424802
REMARK  7 active torsions:
REMARK  status: ('A' for Active; 'I' for Inactive)
REMARK    1  A    between atoms: C_1  and  N_2
REMARK    2  A    between atoms: C_1  and  C_8
REMARK    3  A    between atoms: C_1  and  C_9
REMARK    4  A    between atoms: C_9  and  S_10
REMARK    5  A    between atoms: S_10  and  C_11
REMARK    6  A    between atoms: C_11  and  C_12
REMARK    7  A    between atoms: C_12  and  O_13
REMARK                            x       y       z     vdW  Elec       q    Type
REMARK                         _______ _______ _______ _____ _____    ______ ____
ROOT
ATOM      1  C   UNK     1      38.640 -25.465 -14.659  0.00  0.00    +0.051 C 
ENDROOT
BRANCH   1   2
ATOM      2  N   UNK     1      38.120 -26.837 -14.357  0.00  0.00    +0.389 N 
ATOM      3  H   UNK     1      37.405 -27.087 -15.040  0.00  0.00    -0.088 HD
ATOM      4  H   UNK     1      37.715 -26.848 -13.421  0.00  0.00    -0.088 HD
ATOM      5  H   UNK     1      38.886 -27.508 -14.404  0.00  0.00    -0.088 HD
ENDBRANCH   1   2
BRANCH   1   8
ATOM      6  O   UNK     1      40.576 -26.092 -15.878  0.00  0.00    -0.248 OA
ATOM      7  O   UNK     1      40.816 -24.680 -14.101  0.00  0.00    -0.248 OA
ATOM      8  C   UNK     1      40.158 -25.397 -14.907  0.00  0.00    +0.346 C 
ENDBRANCH   1   8
BRANCH   1   9
ATOM      9  C   UNK     1      38.088 -24.528 -13.581  0.00  0.00    +0.047 C 
BRANCH   9  10
ATOM     10  S   UNK     1      36.592 -23.623 -14.097  0.00  0.00    -0.139 S 
BRANCH  10  11
ATOM     11  C   UNK     1      35.455 -24.281 -12.859  0.00  0.00    +0.089 C 
BRANCH  11  12
ATOM     12  C   UNK     1      36.191 -24.701 -11.596  0.00  0.00    +0.149 C 
BRANCH  12  13
ATOM     13  O   UNK     1      35.261 -25.121 -10.607  0.00  0.00    -0.381 OA
ATOM     14  H   UNK     1      34.735 -25.860 -10.951  0.00  0.00    +0.210 HD
ENDBRANCH  12  13
ENDBRANCH  11  12
ENDBRANCH  10  11
ENDBRANCH   9  10
ENDBRANCH   1   9
TORSDOF 7
ENDMDL
MODEL 5
REMARK VINA RESULT:      -4.7      3.296      4.372
REMARK  Name = 40424802
REMARK  7 active torsions:
REMARK  status: ('A' for Active; 'I' for Inactive)
REMARK    1  A    between atoms: C_1  and  N_2
REMARK    2  A    between atoms: C_1  and  C_8
REMARK    3  A    between atoms: C_1  and  C_9
REMARK    4  A    between atoms: C_9  and  S_10
REMARK    5  A    between atoms: S_10  and  C_11
REMARK    6  A    between atoms: C_11  and  C_12
REMARK    7  A    between atoms: C_12  and  O_13
REMARK                            x       y       z     vdW  Elec       q    Type
REMARK                         _______ _______ _______ _____ _____    ______ ____
ROOT
ATOM      1  C   UNK     1      38.799 -25.552 -14.489  0.00  0.00    +0.051 C 
ENDROOT
BRANCH   1   2
ATOM      2  N   UNK     1      38.313 -26.964 -14.357  0.00  0.00    +0.389 N 
ATOM      3  H   UNK     1      38.520 -27.475 -15.215  0.00  0.00    -0.088 HD
ATOM      4  H   UNK     1      37.306 -26.963 -14.197  0.00  0.00    -0.088 HD
ATOM      5  H   UNK     1      38.783 -27.412 -13.571  0.00  0.00    -0.088 HD
ENDBRANCH   1   2
BRANCH   1   8
ATOM      6  O   UNK     1      40.956 -24.613 -14.188  0.00  0.00    -0.248 OA
ATOM      7  O   UNK     1      40.646 -26.114 -15.879  0.00  0.00    -0.248 OA
ATOM      8  C   UNK     1      40.280 -25.421 -14.887  0.00  0.00    +0.346 C 
ENDBRANCH   1   8
BRANCH   1   9
ATOM      9  C   UNK     1      38.371 -24.810 -13.219  0.00  0.00    +0.047 C 
BRANCH   9  10
ATOM     10  S   UNK     1      37.114 -23.523 -13.515  0.00  0.00    -0.139 S 
BRANCH  10  11
ATOM     11  C   UNK     1      36.570 -24.069 -15.149  0.00  0.00    +0.089 C 
BRANCH  11  12
ATOM     12  C   UNK     1      35.310 -24.916 -15.060  0.00  0.00    +0.149 C 
BRANCH  12  13
ATOM     13  O   UNK     1      35.596 -26.255 -15.445  0.00  0.00    -0.381 OA
ATOM     14  H   UNK     1      34.773 -26.768 -15.464  0.00  0.00    +0.210 HD
ENDBRANCH  12  13
ENDBRANCH  11  12
ENDBRANCH  10  11
ENDBRANCH   9  10
ENDBRANCH   1   9
TORSDOF 7
ENDMDL
MODEL 6
REMARK VINA RESULT:      -4.7      1.880      1.980
REMARK  Name = 40424802
REMARK  7 active torsions:
REMARK  status: ('A' for Active; 'I' for Inactive)
REMARK    1  A    between atoms: C_1  and  N_2
REMARK    2  A    between atoms: C_1  and  C_8
REMARK    3  A    between atoms: C_1  and  C_9
REMARK    4  A    between atoms: C_9  and  S_10
REMARK    5  A    between atoms: S_10  and  C_11
REMARK    6  A    between atoms: C_11  and  C_12
REMARK    7  A    between atoms: C_12  and  O_13
REMARK                            x       y       z     vdW  Elec       q    Type
REMARK                         _______ _______ _______ _____ _____    ______ ____
ROOT
ATOM      1  C   UNK     1      35.916 -24.260 -12.441  0.00  0.00    +0.051 C 
ENDROOT
BRANCH   1   2
ATOM      2  N   UNK     1      34.713 -23.549 -12.983  0.00  0.00    +0.389 N 
ATOM      3  H   UNK     1      34.598 -23.782 -13.969  0.00  0.00    -0.088 HD
ATOM      4  H   UNK     1      34.841 -22.542 -12.885  0.00  0.00    -0.088 HD
ATOM      5  H   UNK     1      33.885 -23.840 -12.465  0.00  0.00    -0.088 HD
ENDBRANCH   1   2
BRANCH   1   8
ATOM      6  O   UNK     1      36.983 -23.317 -10.544  0.00  0.00    -0.248 OA
ATOM      7  O   UNK     1      35.359 -24.886 -10.214  0.00  0.00    -0.248 OA
ATOM      8  C   UNK     1      36.096 -24.137 -10.917  0.00  0.00    +0.346 C 
ENDBRANCH   1   8
BRANCH   1   9
ATOM      9  C   UNK     1      37.111 -23.839 -13.300  0.00  0.00    +0.047 C 
BRANCH   9  10
ATOM     10  S   UNK     1      38.336 -25.167 -13.547  0.00  0.00    -0.139 S 
BRANCH  10  11
ATOM     11  C   UNK     1      37.188 -26.497 -13.967  0.00  0.00    +0.089 C 
BRANCH  11  12
ATOM     12  C   UNK     1      36.538 -26.261 -15.321  0.00  0.00    +0.149 C 
BRANCH  12  13
ATOM     13  O   UNK     1      36.890 -27.305 -16.220  0.00  0.00    -0.381 OA
ATOM     14  H   UNK     1      37.824 -27.218 -16.465  0.00  0.00    +0.210 HD
ENDBRANCH  12  13
ENDBRANCH  11  12
ENDBRANCH  10  11
ENDBRANCH   9  10
ENDBRANCH   1   9
TORSDOF 7
ENDMDL
MODEL 7
REMARK VINA RESULT:      -4.7      7.677      8.348
REMARK  Name = 40424802
REMARK  7 active torsions:
REMARK  status: ('A' for Active; 'I' for Inactive)
REMARK    1  A    between atoms: C_1  and  N_2
REMARK    2  A    between atoms: C_1  and  C_8
REMARK    3  A    between atoms: C_1  and  C_9
REMARK    4  A    between atoms: C_9  and  S_10
REMARK    5  A    between atoms: S_10  and  C_11
REMARK    6  A    between atoms: C_11  and  C_12
REMARK    7  A    between atoms: C_12  and  O_13
REMARK                            x       y       z     vdW  Elec       q    Type
REMARK                         _______ _______ _______ _____ _____    ______ ____
ROOT
ATOM      1  C   UNK     1      28.558 -23.286 -15.582  0.00  0.00    +0.051 C 
ENDROOT
BRANCH   1   2
ATOM      2  N   UNK     1      28.824 -24.749 -15.397  0.00  0.00    +0.389 N 
ATOM      3  H   UNK     1      29.820 -24.931 -15.522  0.00  0.00    -0.088 HD
ATOM      4  H   UNK     1      28.293 -25.281 -16.087  0.00  0.00    -0.088 HD
ATOM      5  H   UNK     1      28.541 -25.029 -14.458  0.00  0.00    -0.088 HD
ENDBRANCH   1   2
BRANCH   1   8
ATOM      6  O   UNK     1      27.671 -23.898 -17.695  0.00  0.00    -0.248 OA
ATOM      7  O   UNK     1      27.681 -21.691 -17.115  0.00  0.00    -0.248 OA
ATOM      8  C   UNK     1      27.898 -22.921 -16.924  0.00  0.00    +0.346 C 
ENDBRANCH   1   8
BRANCH   1   9
ATOM      9  C   UNK     1      29.856 -22.547 -15.244  0.00  0.00    +0.047 C 
BRANCH   9  10
ATOM     10  S   UNK     1      31.353 -23.384 -15.864  0.00  0.00    -0.139 S 
BRANCH  10  11
ATOM     11  C   UNK     1      32.182 -23.632 -14.278  0.00  0.00    +0.089 C 
BRANCH  11  12
ATOM     12  C   UNK     1      31.910 -25.021 -13.721  0.00  0.00    +0.149 C 
BRANCH  12  13
ATOM     13  O   UNK     1      30.736 -25.004 -12.920  0.00  0.00    -0.381 OA
ATOM     14  H   UNK     1      30.416 -25.911 -12.796  0.00  0.00    +0.210 HD
ENDBRANCH  12  13
ENDBRANCH  11  12
ENDBRANCH  10  11
ENDBRANCH   9  10
ENDBRANCH   1   9
TORSDOF 7
ENDMDL
MODEL 8
REMARK VINA RESULT:      -4.6      1.932      2.232
REMARK  Name = 40424802
REMARK  7 active torsions:
REMARK  status: ('A' for Active; 'I' for Inactive)
REMARK    1  A    between atoms: C_1  and  N_2
REMARK    2  A    between atoms: C_1  and  C_8
REMARK    3  A    between atoms: C_1  and  C_9
REMARK    4  A    between atoms: C_9  and  S_10
REMARK    5  A    between atoms: S_10  and  C_11
REMARK    6  A    between atoms: C_11  and  C_12
REMARK    7  A    between atoms: C_12  and  O_13
REMARK                            x       y       z     vdW  Elec       q    Type
REMARK                         _______ _______ _______ _____ _____    ______ ____
ROOT
ATOM      1  C   UNK     1      37.039 -24.464 -12.123  0.00  0.00    +0.051 C 
ENDROOT
BRANCH   1   2
ATOM      2  N   UNK     1      38.314 -23.846 -11.634  0.00  0.00    +0.389 N 
ATOM      3  H   UNK     1      38.150 -23.400 -10.732  0.00  0.00    -0.088 HD
ATOM      4  H   UNK     1      38.632 -23.148 -12.306  0.00  0.00    -0.088 HD
ATOM      5  H   UNK     1      39.025 -24.570 -11.533  0.00  0.00    -0.088 HD
ENDBRANCH   1   2
BRANCH   1   8
ATOM      6  O   UNK     1      36.221 -24.104  -9.926  0.00  0.00    -0.248 OA
ATOM      7  O   UNK     1      34.771 -24.854 -11.521  0.00  0.00    -0.248 OA
ATOM      8  C   UNK     1      35.895 -24.467 -11.093  0.00  0.00    +0.346 C 
ENDBRANCH   1   8
BRANCH   1   9
ATOM      9  C   UNK     1      37.403 -25.820 -12.734  0.00  0.00    +0.047 C 
BRANCH   9  10
ATOM     10  S   UNK     1      37.583 -25.778 -14.548  0.00  0.00    -0.139 S 
BRANCH  10  11
ATOM     11  C   UNK     1      36.638 -24.272 -14.864  0.00  0.00    +0.089 C 
BRANCH  11  12
ATOM     12  C   UNK     1      37.480 -23.228 -15.582  0.00  0.00    +0.149 C 
BRANCH  12  13
ATOM     13  O   UNK     1      38.820 -23.685 -15.706  0.00  0.00    -0.381 OA
ATOM     14  H   UNK     1      38.849 -24.644 -15.563  0.00  0.00    +0.210 HD
ENDBRANCH  12  13
ENDBRANCH  11  12
ENDBRANCH  10  11
ENDBRANCH   9  10
ENDBRANCH   1   9
TORSDOF 7
ENDMDL
MODEL 9
REMARK VINA RESULT:      -4.6      2.474      4.126
REMARK  Name = 40424802
REMARK  7 active torsions:
REMARK  status: ('A' for Active; 'I' for Inactive)
REMARK    1  A    between atoms: C_1  and  N_2
REMARK    2  A    between atoms: C_1  and  C_8
REMARK    3  A    between atoms: C_1  and  C_9
REMARK    4  A    between atoms: C_9  and  S_10
REMARK    5  A    between atoms: S_10  and  C_11
REMARK    6  A    between atoms: C_11  and  C_12
REMARK    7  A    between atoms: C_12  and  O_13
REMARK                            x       y       z     vdW  Elec       q    Type
REMARK                         _______ _______ _______ _____ _____    ______ ____
ROOT
ATOM      1  C   UNK     1      37.337 -24.951 -14.677  0.00  0.00    +0.051 C 
ENDROOT
BRANCH   1   2
ATOM      2  N   UNK     1      38.326 -24.169 -15.486  0.00  0.00    +0.389 N 
ATOM      3  H   UNK     1      38.851 -23.548 -14.871  0.00  0.00    -0.088 HD
ATOM      4  H   UNK     1      37.831 -23.615 -16.185  0.00  0.00    -0.088 HD
ATOM      5  H   UNK     1      38.967 -24.810 -15.951  0.00  0.00    -0.088 HD
ENDBRANCH   1   2
BRANCH   1   8
ATOM      6  O   UNK     1      38.152 -27.179 -14.698  0.00  0.00    -0.248 OA
ATOM      7  O   UNK     1      36.191 -26.725 -15.773  0.00  0.00    -0.248 OA
ATOM      8  C   UNK     1      37.208 -26.431 -15.083  0.00  0.00    +0.346 C 
ENDBRANCH   1   8
BRANCH   1   9
ATOM      9  C   UNK     1      36.038 -24.141 -14.649  0.00  0.00    +0.047 C 
BRANCH   9  10
ATOM     10  S   UNK     1      35.142 -24.252 -13.065  0.00  0.00    -0.139 S 
BRANCH  10  11
ATOM     11  C   UNK     1      36.574 -24.349 -11.968  0.00  0.00    +0.089 C 
BRANCH  11  12
ATOM     12  C   UNK     1      37.066 -22.965 -11.574  0.00  0.00    +0.149 C 
BRANCH  12  13
ATOM     13  O   UNK     1      38.484 -22.911 -11.655  0.00  0.00    -0.381 OA
ATOM     14  H   UNK     1      38.806 -22.131 -11.176  0.00  0.00    +0.210 HD
ENDBRANCH  12  13
ENDBRANCH  11  12
ENDBRANCH  10  11
ENDBRANCH   9  10
ENDBRANCH   1   9
TORSDOF 7
ENDMDL
