MODEL 1
REMARK VINA RESULT:     -10.9      0.000      0.000
REMARK  Name = 10429242
REMARK  7 active torsions:
REMARK  status: ('A' for Active; 'I' for Inactive)
REMARK    1  A    between atoms: C_1  and  C_19
REMARK    2  A    between atoms: C_4  and  O_7
REMARK    3  A    between atoms: O_7  and  C_8
REMARK    4  A    between atoms: C_8  and  C_10
REMARK    5  A    between atoms: C_10  and  C_13
REMARK    6  A    between atoms: C_12  and  C_17
REMARK    7  A    between atoms: C_19  and  C_24
REMARK                            x       y       z     vdW  Elec       q    Type
REMARK                         _______ _______ _______ _____ _____    ______ ____
ROOT
ATOM      1  C   UNL     1      34.025 -20.122 -20.706  0.00  0.00    -0.021 C 
ATOM      2  C   UNL     1      33.009 -20.789 -20.040  0.00  0.00    -0.001 C 
ATOM      3  C   UNL     1      35.358 -20.372 -20.416  0.00  0.00    -0.001 C 
ATOM      4  C   UNL     1      34.668 -21.987 -18.756  0.00  0.00    +0.139 C 
ATOM      5  C   UNL     1      33.332 -21.726 -19.059  0.00  0.00    +0.037 C 
ATOM      6  C   UNL     1      35.682 -21.310 -19.435  0.00  0.00    +0.037 C 
ENDROOT
BRANCH   4   7
ATOM      7  O   UNL     1      34.985 -22.901 -17.799  0.00  0.00    -0.467 OA
BRANCH   7   8
ATOM      8  C   UNL     1      33.901 -23.529 -17.117  0.00  0.00    +0.275 C 
BRANCH   8  10
ATOM      9  O   UNL     1      33.339 -23.160 -14.812  0.00  0.00    -0.286 OA
ATOM     10  C   UNL     1      34.171 -23.553 -15.625  0.00  0.00    +0.234 C 
BRANCH  10  13
ATOM     11  N   UNL     1      35.719 -25.346 -15.451  0.00  0.00    -0.241 NA
ATOM     12  C   UNL     1      37.835 -25.081 -14.313  0.00  0.00    -0.003 C 
ATOM     13  C   UNL     1      35.485 -24.068 -15.143  0.00  0.00    +0.120 C 
ATOM     14  C   UNL     1      37.524 -23.756 -14.028  0.00  0.00    -0.001 C 
ATOM     15  C   UNL     1      36.311 -23.225 -14.454  0.00  0.00    +0.022 C 
ATOM     16  C   UNL     1      36.908 -25.827 -15.021  0.00  0.00    +0.095 C 
BRANCH  12  17
ATOM     17  C   UNL     1      39.124 -25.677 -13.871  0.00  0.00    +0.028 C 
ATOM     18  C   UNL     1      40.258 -25.419 -14.864  0.00  0.00    +0.005 C 
ENDBRANCH  12  17
ENDBRANCH  10  13
ENDBRANCH   8  10
ENDBRANCH   7   8
ENDBRANCH   4   7
BRANCH   1  19
ATOM     19  C   UNL     1      33.676 -19.110 -21.767  0.00  0.00    +0.047 C 
BRANCH  19  24
ATOM     20  S   UNL     1      34.699 -18.892 -24.313  0.00  0.00    -0.048 S 
ATOM     21  O   UNL     1      35.259 -16.612 -21.251  0.00  0.00    -0.274 OA
ATOM     22  O   UNL     1      34.948 -16.777 -25.855  0.00  0.00    -0.263 OA
ATOM     23  N   UNL     1      35.151 -16.494 -23.558  0.00  0.00    -0.246 N 
ATOM     24  C   UNL     1      34.903 -18.635 -22.524  0.00  0.00    +0.137 C 
ATOM     25  C   UNL     1      35.122 -17.150 -22.344  0.00  0.00    +0.239 C 
ATOM     26  C   UNL     1      34.956 -17.207 -24.712  0.00  0.00    +0.279 C 
ATOM     27  H   UNL     1      35.311 -15.524 -23.595  0.00  0.00    +0.158 HD
ENDBRANCH  19  24
ENDBRANCH   1  19
TORSDOF 7
ENDMDL
MODEL 2
REMARK VINA RESULT:     -10.8      2.300      4.284
REMARK  Name = 10429242
REMARK  7 active torsions:
REMARK  status: ('A' for Active; 'I' for Inactive)
REMARK    1  A    between atoms: C_1  and  C_19
REMARK    2  A    between atoms: C_4  and  O_7
REMARK    3  A    between atoms: O_7  and  C_8
REMARK    4  A    between atoms: C_8  and  C_10
REMARK    5  A    between atoms: C_10  and  C_13
REMARK    6  A    between atoms: C_12  and  C_17
REMARK    7  A    between atoms: C_19  and  C_24
REMARK                            x       y       z     vdW  Elec       q    Type
REMARK                         _______ _______ _______ _____ _____    ______ ____
ROOT
ATOM      1  C   UNL     1      34.345 -20.046 -20.757  0.00  0.00    -0.021 C 
ATOM      2  C   UNL     1      35.709 -20.174 -20.545  0.00  0.00    -0.001 C 
ATOM      3  C   UNL     1      33.433 -20.806 -20.039  0.00  0.00    -0.001 C 
ATOM      4  C   UNL     1      35.268 -21.854 -18.866  0.00  0.00    +0.139 C 
ATOM      5  C   UNL     1      36.173 -21.083 -19.595  0.00  0.00    +0.037 C 
ATOM      6  C   UNL     1      33.897 -21.716 -19.088  0.00  0.00    +0.037 C 
ENDROOT
BRANCH   4   7
ATOM      7  O   UNL     1      35.719 -22.742 -17.939  0.00  0.00    -0.467 OA
BRANCH   7   8
ATOM      8  C   UNL     1      35.441 -22.450 -16.571  0.00  0.00    +0.275 C 
BRANCH   8  10
ATOM      9  O   UNL     1      35.130 -24.653 -15.667  0.00  0.00    -0.286 OA
ATOM     10  C   UNL     1      34.625 -23.572 -15.957  0.00  0.00    +0.234 C 
BRANCH  10  13
ATOM     11  N   UNL     1      32.438 -23.205 -16.809  0.00  0.00    -0.241 NA
ATOM     12  C   UNL     1      30.540 -22.931 -15.337  0.00  0.00    -0.003 C 
ATOM     13  C   UNL     1      33.173 -23.345 -15.703  0.00  0.00    +0.120 C 
ATOM     14  C   UNL     1      31.367 -23.085 -14.230  0.00  0.00    -0.001 C 
ATOM     15  C   UNL     1      32.729 -23.299 -14.411  0.00  0.00    +0.022 C 
ATOM     16  C   UNL     1      31.119 -22.999 -16.594  0.00  0.00    +0.095 C 
BRANCH  12  17
ATOM     17  C   UNL     1      29.079 -22.701 -15.176  0.00  0.00    +0.028 C 
ATOM     18  C   UNL     1      28.326 -22.770 -16.505  0.00  0.00    +0.005 C 
ENDBRANCH  12  17
ENDBRANCH  10  13
ENDBRANCH   8  10
ENDBRANCH   7   8
ENDBRANCH   4   7
BRANCH   1  19
ATOM     19  C   UNL     1      33.844 -19.063 -21.783  0.00  0.00    +0.047 C 
BRANCH  19  24
ATOM     20  S   UNL     1      34.751 -18.709 -24.358  0.00  0.00    -0.048 S 
ATOM     21  O   UNL     1      35.135 -16.397 -21.292  0.00  0.00    -0.274 OA
ATOM     22  O   UNL     1      34.696 -16.570 -25.886  0.00  0.00    -0.263 OA
ATOM     23  N   UNL     1      34.939 -16.279 -23.594  0.00  0.00    -0.246 N 
ATOM     24  C   UNL     1      34.981 -18.440 -22.574  0.00  0.00    +0.137 C 
ATOM     25  C   UNL     1      35.028 -16.941 -22.386  0.00  0.00    +0.239 C 
ATOM     26  C   UNL     1      34.793 -17.003 -24.748  0.00  0.00    +0.279 C 
ATOM     27  H   UNL     1      34.981 -15.296 -23.626  0.00  0.00    +0.158 HD
ENDBRANCH  19  24
ENDBRANCH   1  19
TORSDOF 7
ENDMDL
MODEL 3
REMARK VINA RESULT:     -10.6      3.339     10.251
REMARK  Name = 10429242
REMARK  7 active torsions:
REMARK  status: ('A' for Active; 'I' for Inactive)
REMARK    1  A    between atoms: C_1  and  C_19
REMARK    2  A    between atoms: C_4  and  O_7
REMARK    3  A    between atoms: O_7  and  C_8
REMARK    4  A    between atoms: C_8  and  C_10
REMARK    5  A    between atoms: C_10  and  C_13
REMARK    6  A    between atoms: C_12  and  C_17
REMARK    7  A    between atoms: C_19  and  C_24
REMARK                            x       y       z     vdW  Elec       q    Type
REMARK                         _______ _______ _______ _____ _____    ______ ____
ROOT
ATOM      1  C   UNL     1      34.875 -22.952 -16.786  0.00  0.00    -0.021 C 
ATOM      2  C   UNL     1      33.839 -23.013 -17.706  0.00  0.00    -0.001 C 
ATOM      3  C   UNL     1      36.064 -22.306 -17.088  0.00  0.00    -0.001 C 
ATOM      4  C   UNL     1      35.187 -21.765 -19.274  0.00  0.00    +0.139 C 
ATOM      5  C   UNL     1      33.996 -22.417 -18.956  0.00  0.00    +0.037 C 
ATOM      6  C   UNL     1      36.222 -21.709 -18.339  0.00  0.00    +0.037 C 
ENDROOT
BRANCH   4   7
ATOM      7  O   UNL     1      35.342 -21.182 -20.494  0.00  0.00    -0.467 OA
BRANCH   7   8
ATOM      8  C   UNL     1      34.704 -19.923 -20.698  0.00  0.00    +0.275 C 
BRANCH   8  10
ATOM      9  O   UNL     1      36.932 -19.025 -20.676  0.00  0.00    -0.286 OA
ATOM     10  C   UNL     1      35.746 -18.848 -20.943  0.00  0.00    +0.234 C 
BRANCH  10  13
ATOM     11  N   UNL     1      34.977 -16.624 -20.616  0.00  0.00    -0.241 NA
ATOM     12  C   UNL     1      34.505 -15.164 -22.483  0.00  0.00    -0.003 C 
ATOM     13  C   UNL     1      35.308 -17.546 -21.524  0.00  0.00    +0.120 C 
ATOM     14  C   UNL     1      34.864 -16.172 -23.371  0.00  0.00    -0.001 C 
ATOM     15  C   UNL     1      35.281 -17.406 -22.883  0.00  0.00    +0.022 C 
ATOM     16  C   UNL     1      34.578 -15.438 -21.127  0.00  0.00    +0.095 C 
BRANCH  12  17
ATOM     17  C   UNL     1      34.056 -13.834 -22.975  0.00  0.00    +0.028 C 
ATOM     18  C   UNL     1      32.645 -13.482 -22.504  0.00  0.00    +0.005 C 
ENDBRANCH  12  17
ENDBRANCH  10  13
ENDBRANCH   8  10
ENDBRANCH   7   8
ENDBRANCH   4   7
BRANCH   1  19
ATOM     19  C   UNL     1      34.704 -23.595 -15.435  0.00  0.00    +0.047 C 
BRANCH  19  24
ATOM     20  S   UNL     1      36.189 -23.599 -13.116  0.00  0.00    -0.048 S 
ATOM     21  O   UNL     1      36.016 -26.254 -15.912  0.00  0.00    -0.274 OA
ATOM     22  O   UNL     1      36.614 -25.536 -11.389  0.00  0.00    -0.263 OA
ATOM     23  N   UNL     1      36.351 -26.096 -13.629  0.00  0.00    -0.246 N 
ATOM     24  C   UNL     1      36.027 -24.076 -14.864  0.00  0.00    +0.137 C 
ATOM     25  C   UNL     1      36.125 -25.584 -14.890  0.00  0.00    +0.239 C 
ATOM     26  C   UNL     1      36.424 -25.242 -12.559  0.00  0.00    +0.279 C 
ATOM     27  H   UNL     1      36.461 -27.065 -13.498  0.00  0.00    +0.158 HD
ENDBRANCH  19  24
ENDBRANCH   1  19
TORSDOF 7
ENDMDL
MODEL 4
REMARK VINA RESULT:     -10.5      4.947     12.297
REMARK  Name = 10429242
REMARK  7 active torsions:
REMARK  status: ('A' for Active; 'I' for Inactive)
REMARK    1  A    between atoms: C_1  and  C_19
REMARK    2  A    between atoms: C_4  and  O_7
REMARK    3  A    between atoms: O_7  and  C_8
REMARK    4  A    between atoms: C_8  and  C_10
REMARK    5  A    between atoms: C_10  and  C_13
REMARK    6  A    between atoms: C_12  and  C_17
REMARK    7  A    between atoms: C_19  and  C_24
REMARK                            x       y       z     vdW  Elec       q    Type
REMARK                         _______ _______ _______ _____ _____    ______ ____
ROOT
ATOM      1  C   UNL     1      34.862 -18.137 -22.535  0.00  0.00    -0.021 C 
ATOM      2  C   UNL     1      34.773 -17.134 -21.582  0.00  0.00    -0.001 C 
ATOM      3  C   UNL     1      34.768 -17.851 -23.888  0.00  0.00    -0.001 C 
ATOM      4  C   UNL     1      34.489 -15.512 -23.349  0.00  0.00    +0.139 C 
ATOM      5  C   UNL     1      34.586 -15.815 -21.991  0.00  0.00    +0.037 C 
ATOM      6  C   UNL     1      34.581 -16.530 -24.298  0.00  0.00    +0.037 C 
ENDROOT
BRANCH   4   7
ATOM      7  O   UNL     1      34.306 -14.224 -23.749  0.00  0.00    -0.467 OA
BRANCH   7   8
ATOM      8  C   UNL     1      33.175 -13.956 -24.576  0.00  0.00    +0.275 C 
BRANCH   8  10
ATOM      9  O   UNL     1      33.478 -13.081 -26.792  0.00  0.00    -0.286 OA
ATOM     10  C   UNL     1      33.514 -12.872 -25.582  0.00  0.00    +0.234 C 
BRANCH  10  13
ATOM     11  N   UNL     1      33.139 -11.073 -24.078  0.00  0.00    -0.241 NA
ATOM     12  C   UNL     1      34.527  -9.094 -24.107  0.00  0.00    -0.003 C 
ATOM     13  C   UNL     1      33.900 -11.523 -25.078  0.00  0.00    +0.120 C 
ATOM     14  C   UNL     1      35.277  -9.626 -25.150  0.00  0.00    -0.001 C 
ATOM     15  C   UNL     1      34.959 -10.881 -25.658  0.00  0.00    +0.022 C 
ATOM     16  C   UNL     1      33.478  -9.850 -23.610  0.00  0.00    +0.095 C 
BRANCH  12  17
ATOM     17  C   UNL     1      34.842  -7.754 -23.543  0.00  0.00    +0.028 C 
ATOM     18  C   UNL     1      33.842  -6.685 -23.981  0.00  0.00    +0.005 C 
ENDBRANCH  12  17
ENDBRANCH  10  13
ENDBRANCH   8  10
ENDBRANCH   7   8
ENDBRANCH   4   7
BRANCH   1  19
ATOM     19  C   UNL     1      35.065 -19.563 -22.093  0.00  0.00    +0.047 C 
BRANCH  19  24
ATOM     20  S   UNL     1      33.107 -20.324 -20.314  0.00  0.00    -0.048 S 
ATOM     21  O   UNL     1      36.935 -20.738 -20.058  0.00  0.00    -0.274 OA
ATOM     22  O   UNL     1      32.837 -22.561 -18.958  0.00  0.00    -0.263 OA
ATOM     23  N   UNL     1      34.985 -21.795 -19.402  0.00  0.00    -0.246 N 
ATOM     24  C   UNL     1      34.804 -19.739 -20.607  0.00  0.00    +0.137 C 
ATOM     25  C   UNL     1      35.711 -20.789 -20.007  0.00  0.00    +0.239 C 
ATOM     26  C   UNL     1      33.616 -21.752 -19.439  0.00  0.00    +0.279 C 
ATOM     27  H   UNL     1      35.447 -22.536 -18.947  0.00  0.00    +0.158 HD
ENDBRANCH  19  24
ENDBRANCH   1  19
TORSDOF 7
ENDMDL
MODEL 5
REMARK VINA RESULT:     -10.4      5.582     12.465
REMARK  Name = 10429242
REMARK  7 active torsions:
REMARK  status: ('A' for Active; 'I' for Inactive)
REMARK    1  A    between atoms: C_1  and  C_19
REMARK    2  A    between atoms: C_4  and  O_7
REMARK    3  A    between atoms: O_7  and  C_8
REMARK    4  A    between atoms: C_8  and  C_10
REMARK    5  A    between atoms: C_10  and  C_13
REMARK    6  A    between atoms: C_12  and  C_17
REMARK    7  A    between atoms: C_19  and  C_24
REMARK                            x       y       z     vdW  Elec       q    Type
REMARK                         _______ _______ _______ _____ _____    ______ ____
ROOT
ATOM      1  C   UNL     1      34.762 -17.689 -23.071  0.00  0.00    -0.021 C 
ATOM      2  C   UNL     1      34.583 -17.567 -24.440  0.00  0.00    -0.001 C 
ATOM      3  C   UNL     1      34.592 -16.603 -22.226  0.00  0.00    -0.001 C 
ATOM      4  C   UNL     1      34.054 -15.229 -24.139  0.00  0.00    +0.139 C 
ATOM      5  C   UNL     1      34.228 -16.330 -24.977  0.00  0.00    +0.037 C 
ATOM      6  C   UNL     1      34.236 -15.365 -22.762  0.00  0.00    +0.037 C 
ENDROOT
BRANCH   4   7
ATOM      7  O   UNL     1      33.708 -14.021 -24.662  0.00  0.00    -0.467 OA
BRANCH   7   8
ATOM      8  C   UNL     1      33.690 -12.908 -23.770  0.00  0.00    +0.275 C 
BRANCH   8  10
ATOM      9  O   UNL     1      34.277 -11.622 -25.711  0.00  0.00    -0.286 OA
ATOM     10  C   UNL     1      33.896 -11.620 -24.544  0.00  0.00    +0.234 C 
BRANCH  10  13
ATOM     11  N   UNL     1      32.525 -10.320 -23.105  0.00  0.00    -0.241 NA
ATOM     12  C   UNL     1      33.062  -8.021 -22.586  0.00  0.00    -0.003 C 
ATOM     13  C   UNL     1      33.626 -10.323 -23.859  0.00  0.00    +0.120 C 
ATOM     14  C   UNL     1      34.194  -8.097 -23.390  0.00  0.00    -0.001 C 
ATOM     15  C   UNL     1      34.493  -9.283 -24.051  0.00  0.00    +0.022 C 
ATOM     16  C   UNL     1      32.267  -9.150 -22.477  0.00  0.00    +0.095 C 
BRANCH  12  17
ATOM     17  C   UNL     1      32.717  -6.766 -21.866  0.00  0.00    +0.028 C 
ATOM     18  C   UNL     1      32.278  -7.021 -20.424  0.00  0.00    +0.005 C 
ENDBRANCH  12  17
ENDBRANCH  10  13
ENDBRANCH   8  10
ENDBRANCH   7   8
ENDBRANCH   4   7
BRANCH   1  19
ATOM     19  C   UNL     1      35.145 -19.026 -22.491  0.00  0.00    +0.047 C 
BRANCH  19  24
ATOM     20  S   UNL     1      33.102 -19.894 -20.863  0.00  0.00    -0.048 S 
ATOM     21  O   UNL     1      36.905 -19.872 -20.210  0.00  0.00    -0.274 OA
ATOM     22  O   UNL     1      32.925 -22.065 -19.391  0.00  0.00    -0.263 OA
ATOM     23  N   UNL     1      35.017 -21.096 -19.676  0.00  0.00    -0.246 N 
ATOM     24  C   UNL     1      34.751 -19.144 -21.029  0.00  0.00    +0.137 C 
ATOM     25  C   UNL     1      35.694 -20.053 -20.275  0.00  0.00    +0.239 C 
ATOM     26  C   UNL     1      33.662 -21.205 -19.848  0.00  0.00    +0.279 C 
ATOM     27  H   UNL     1      35.503 -21.755 -19.129  0.00  0.00    +0.158 HD
ENDBRANCH  19  24
ENDBRANCH   1  19
TORSDOF 7
ENDMDL
MODEL 6
REMARK VINA RESULT:     -10.4      5.732      8.569
REMARK  Name = 10429242
REMARK  7 active torsions:
REMARK  status: ('A' for Active; 'I' for Inactive)
REMARK    1  A    between atoms: C_1  and  C_19
REMARK    2  A    between atoms: C_4  and  O_7
REMARK    3  A    between atoms: O_7  and  C_8
REMARK    4  A    between atoms: C_8  and  C_10
REMARK    5  A    between atoms: C_10  and  C_13
REMARK    6  A    between atoms: C_12  and  C_17
REMARK    7  A    between atoms: C_19  and  C_24
REMARK                            x       y       z     vdW  Elec       q    Type
REMARK                         _______ _______ _______ _____ _____    ______ ____
ROOT
ATOM      1  C   UNL     1      31.890 -12.443 -21.728  0.00  0.00    -0.021 C 
ATOM      2  C   UNL     1      32.258 -12.849 -23.001  0.00  0.00    -0.001 C 
ATOM      3  C   UNL     1      32.132 -13.243 -20.622  0.00  0.00    -0.001 C 
ATOM      4  C   UNL     1      33.131 -14.900 -22.070  0.00  0.00    +0.139 C 
ATOM      5  C   UNL     1      32.882 -14.084 -23.173  0.00  0.00    +0.037 C 
ATOM      6  C   UNL     1      32.756 -14.479 -20.793  0.00  0.00    +0.037 C 
ENDROOT
BRANCH   4   7
ATOM      7  O   UNL     1      33.739 -16.106 -22.236  0.00  0.00    -0.467 OA
BRANCH   7   8
ATOM      8  C   UNL     1      34.530 -16.589 -21.152  0.00  0.00    +0.275 C 
BRANCH   8  10
ATOM      9  O   UNL     1      36.131 -17.863 -22.410  0.00  0.00    -0.286 OA
ATOM     10  C   UNL     1      35.245 -17.863 -21.559  0.00  0.00    +0.234 C 
BRANCH  10  13
ATOM     11  N   UNL     1      35.881 -19.848 -20.418  0.00  0.00    -0.241 NA
ATOM     12  C   UNL     1      34.240 -21.471 -19.701  0.00  0.00    -0.003 C 
ATOM     13  C   UNL     1      34.855 -19.144 -20.903  0.00  0.00    +0.120 C 
ATOM     14  C   UNL     1      33.222 -20.686 -20.229  0.00  0.00    -0.001 C 
ATOM     15  C   UNL     1      33.531 -19.482 -20.852  0.00  0.00    +0.022 C 
ATOM     16  C   UNL     1      35.542 -21.012 -19.820  0.00  0.00    +0.095 C 
BRANCH  12  17
ATOM     17  C   UNL     1      33.941 -22.764 -19.029  0.00  0.00    +0.028 C 
ATOM     18  C   UNL     1      32.969 -22.604 -17.860  0.00  0.00    +0.005 C 
ENDBRANCH  12  17
ENDBRANCH  10  13
ENDBRANCH   8  10
ENDBRANCH   7   8
ENDBRANCH   4   7
BRANCH   1  19
ATOM     19  C   UNL     1      31.217 -11.108 -21.542  0.00  0.00    +0.047 C 
BRANCH  19  24
ATOM     20  S   UNL     1      31.699  -8.928 -23.153  0.00  0.00    -0.048 S 
ATOM     21  O   UNL     1      32.426  -9.397 -19.392  0.00  0.00    -0.274 OA
ATOM     22  O   UNL     1      31.300  -6.370 -22.692  0.00  0.00    -0.263 OA
ATOM     23  N   UNL     1      31.874  -7.734 -20.901  0.00  0.00    -0.246 N 
ATOM     24  C   UNL     1      32.185  -9.953 -21.731  0.00  0.00    +0.137 C 
ATOM     25  C   UNL     1      32.182  -9.028 -20.536  0.00  0.00    +0.239 C 
ATOM     26  C   UNL     1      31.592  -7.454 -22.213  0.00  0.00    +0.279 C 
ATOM     27  H   UNL     1      31.860  -7.017 -20.227  0.00  0.00    +0.158 HD
ENDBRANCH  19  24
ENDBRANCH   1  19
TORSDOF 7
ENDMDL
MODEL 7
REMARK VINA RESULT:     -10.4      3.182     10.466
REMARK  Name = 10429242
REMARK  7 active torsions:
REMARK  status: ('A' for Active; 'I' for Inactive)
REMARK    1  A    between atoms: C_1  and  C_19
REMARK    2  A    between atoms: C_4  and  O_7
REMARK    3  A    between atoms: O_7  and  C_8
REMARK    4  A    between atoms: C_8  and  C_10
REMARK    5  A    between atoms: C_10  and  C_13
REMARK    6  A    between atoms: C_12  and  C_17
REMARK    7  A    between atoms: C_19  and  C_24
REMARK                            x       y       z     vdW  Elec       q    Type
REMARK                         _______ _______ _______ _____ _____    ______ ____
ROOT
ATOM      1  C   UNL     1      34.020 -22.420 -18.544  0.00  0.00    -0.021 C 
ATOM      2  C   UNL     1      33.125 -21.658 -19.279  0.00  0.00    -0.001 C 
ATOM      3  C   UNL     1      35.386 -22.196 -18.624  0.00  0.00    -0.001 C 
ATOM      4  C   UNL     1      34.978 -20.416 -20.206  0.00  0.00    +0.139 C 
ATOM      5  C   UNL     1      33.606 -20.651 -20.115  0.00  0.00    +0.037 C 
ATOM      6  C   UNL     1      35.869 -21.188 -19.460  0.00  0.00    +0.037 C 
ENDROOT
BRANCH   4   7
ATOM      7  O   UNL     1      35.449 -19.433 -21.021  0.00  0.00    -0.467 OA
BRANCH   7   8
ATOM      8  C   UNL     1      34.483 -18.601 -21.661  0.00  0.00    +0.275 C 
BRANCH   8  10
ATOM      9  O   UNL     1      35.339 -16.790 -20.336  0.00  0.00    -0.286 OA
ATOM     10  C   UNL     1      34.783 -17.142 -21.373  0.00  0.00    +0.234 C 
BRANCH  10  13
ATOM     11  N   UNL     1      34.334 -16.575 -23.636  0.00  0.00    -0.241 NA
ATOM     12  C   UNL     1      33.684 -14.336 -24.271  0.00  0.00    -0.003 C 
ATOM     13  C   UNL     1      34.388 -16.118 -22.383  0.00  0.00    +0.120 C 
ATOM     14  C   UNL     1      33.761 -13.929 -22.943  0.00  0.00    -0.001 C 
ATOM     15  C   UNL     1      34.125 -14.845 -21.961  0.00  0.00    +0.022 C 
ATOM     16  C   UNL     1      33.977 -15.657 -24.562  0.00  0.00    +0.095 C 
BRANCH  12  17
ATOM     17  C   UNL     1      33.298 -13.380 -25.343  0.00  0.00    +0.028 C 
ATOM     18  C   UNL     1      32.812 -14.086 -26.609  0.00  0.00    +0.005 C 
ENDBRANCH  12  17
ENDBRANCH  10  13
ENDBRANCH   8  10
ENDBRANCH   7   8
ENDBRANCH   4   7
BRANCH   1  19
ATOM     19  C   UNL     1      33.500 -23.507 -17.641  0.00  0.00    +0.047 C 
BRANCH  19  24
ATOM     20  S   UNL     1      32.104 -23.338 -15.274  0.00  0.00    -0.048 S 
ATOM     21  O   UNL     1      35.804 -24.258 -15.868  0.00  0.00    -0.274 OA
ATOM     22  O   UNL     1      32.100 -24.954 -13.199  0.00  0.00    -0.263 OA
ATOM     23  N   UNL     1      34.068 -24.724 -14.412  0.00  0.00    -0.246 N 
ATOM     24  C   UNL     1      33.674 -23.157 -16.173  0.00  0.00    +0.137 C 
ATOM     25  C   UNL     1      34.647 -24.093 -15.494  0.00  0.00    +0.239 C 
ATOM     26  C   UNL     1      32.754 -24.476 -14.113  0.00  0.00    +0.279 C 
ATOM     27  H   UNL     1      34.595 -25.346 -13.859  0.00  0.00    +0.158 HD
ENDBRANCH  19  24
ENDBRANCH   1  19
TORSDOF 7
ENDMDL
MODEL 8
REMARK VINA RESULT:     -10.3      6.876     11.016
REMARK  Name = 10429242
REMARK  7 active torsions:
REMARK  status: ('A' for Active; 'I' for Inactive)
REMARK    1  A    between atoms: C_1  and  C_19
REMARK    2  A    between atoms: C_4  and  O_7
REMARK    3  A    between atoms: O_7  and  C_8
REMARK    4  A    between atoms: C_8  and  C_10
REMARK    5  A    between atoms: C_10  and  C_13
REMARK    6  A    between atoms: C_12  and  C_17
REMARK    7  A    between atoms: C_19  and  C_24
REMARK                            x       y       z     vdW  Elec       q    Type
REMARK                         _______ _______ _______ _____ _____    ______ ____
ROOT
ATOM      1  C   UNL     1      32.139 -10.510 -22.466  0.00  0.00    -0.021 C 
ATOM      2  C   UNL     1      33.074 -10.270 -23.461  0.00  0.00    -0.001 C 
ATOM      3  C   UNL     1      31.824 -11.802 -22.074  0.00  0.00    -0.001 C 
ATOM      4  C   UNL     1      33.401 -12.652 -23.695  0.00  0.00    +0.139 C 
ATOM      5  C   UNL     1      33.709 -11.347 -24.079  0.00  0.00    +0.037 C 
ATOM      6  C   UNL     1      32.458 -12.880 -22.691  0.00  0.00    +0.037 C 
ENDROOT
BRANCH   4   7
ATOM      7  O   UNL     1      34.019 -13.705 -24.297  0.00  0.00    -0.467 OA
BRANCH   7   8
ATOM      8  C   UNL     1      33.253 -14.895 -24.470  0.00  0.00    +0.275 C 
BRANCH   8  10
ATOM      9  O   UNL     1      34.591 -16.158 -26.014  0.00  0.00    -0.286 OA
ATOM     10  C   UNL     1      34.161 -16.043 -24.869  0.00  0.00    +0.234 C 
BRANCH  10  13
ATOM     11  N   UNL     1      34.766 -16.539 -22.626  0.00  0.00    -0.241 NA
ATOM     12  C   UNL     1      35.215 -18.804 -21.911  0.00  0.00    -0.003 C 
ATOM     13  C   UNL     1      34.535 -17.053 -23.837  0.00  0.00    +0.120 C 
ATOM     14  C   UNL     1      34.960 -19.268 -23.197  0.00  0.00    -0.001 C 
ATOM     15  C   UNL     1      34.608 -18.369 -24.198  0.00  0.00    +0.022 C 
ATOM     16  C   UNL     1      35.105 -17.443 -21.679  0.00  0.00    +0.095 C 
BRANCH  12  17
ATOM     17  C   UNL     1      35.594 -19.741 -20.820  0.00  0.00    +0.028 C 
ATOM     18  C   UNL     1      34.396 -20.521 -20.277  0.00  0.00    +0.005 C 
ENDBRANCH  12  17
ENDBRANCH  10  13
ENDBRANCH   8  10
ENDBRANCH   7   8
ENDBRANCH   4   7
BRANCH   1  19
ATOM     19  C   UNL     1      31.455  -9.345 -21.798  0.00  0.00    +0.047 C 
BRANCH  19  24
ATOM     20  S   UNL     1      31.108  -7.050 -23.277  0.00  0.00    -0.048 S 
ATOM     21  O   UNL     1      32.903  -7.530 -19.895  0.00  0.00    -0.274 OA
ATOM     22  O   UNL     1      30.428  -4.631 -22.502  0.00  0.00    -0.263 OA
ATOM     23  N   UNL     1      31.690  -5.937 -21.053  0.00  0.00    -0.246 N 
ATOM     24  C   UNL     1      32.128  -8.025 -22.130  0.00  0.00    +0.137 C 
ATOM     25  C   UNL     1      32.297  -7.166 -20.898  0.00  0.00    +0.239 C 
ATOM     26  C   UNL     1      31.017  -5.661 -22.215  0.00  0.00    +0.279 C 
ATOM     27  H   UNL     1      31.741  -5.263 -20.337  0.00  0.00    +0.158 HD
ENDBRANCH  19  24
ENDBRANCH   1  19
TORSDOF 7
ENDMDL
MODEL 9
REMARK VINA RESULT:     -10.3      1.395      1.805
REMARK  Name = 10429242
REMARK  7 active torsions:
REMARK  status: ('A' for Active; 'I' for Inactive)
REMARK    1  A    between atoms: C_1  and  C_19
REMARK    2  A    between atoms: C_4  and  O_7
REMARK    3  A    between atoms: O_7  and  C_8
REMARK    4  A    between atoms: C_8  and  C_10
REMARK    5  A    between atoms: C_10  and  C_13
REMARK    6  A    between atoms: C_12  and  C_17
REMARK    7  A    between atoms: C_19  and  C_24
REMARK                            x       y       z     vdW  Elec       q    Type
REMARK                         _______ _______ _______ _____ _____    ______ ____
ROOT
ATOM      1  C   UNL     1      35.439 -19.917 -20.745  0.00  0.00    -0.021 C 
ATOM      2  C   UNL     1      34.100 -20.269 -20.670  0.00  0.00    -0.001 C 
ATOM      3  C   UNL     1      36.402 -20.598 -20.018  0.00  0.00    -0.001 C 
ATOM      4  C   UNL     1      34.674 -22.022 -19.110  0.00  0.00    +0.139 C 
ATOM      5  C   UNL     1      33.715 -21.327 -19.848  0.00  0.00    +0.037 C 
ATOM      6  C   UNL     1      36.018 -21.658 -19.195  0.00  0.00    +0.037 C 
ENDROOT
BRANCH   4   7
ATOM      7  O   UNL     1      34.299 -23.055 -18.306  0.00  0.00    -0.467 OA
BRANCH   7   8
ATOM      8  C   UNL     1      33.275 -22.794 -17.348  0.00  0.00    +0.275 C 
BRANCH   8  10
ATOM      9  O   UNL     1      32.673 -23.931 -15.321  0.00  0.00    -0.286 OA
ATOM     10  C   UNL     1      33.571 -23.535 -16.058  0.00  0.00    +0.234 C 
BRANCH  10  13
ATOM     11  N   UNL     1      35.271 -25.055 -15.394  0.00  0.00    -0.241 NA
ATOM     12  C   UNL     1      37.539 -24.319 -15.000  0.00  0.00    -0.003 C 
ATOM     13  C   UNL     1      34.994 -23.782 -15.685  0.00  0.00    +0.120 C 
ATOM     14  C   UNL     1      37.178 -23.014 -15.316  0.00  0.00    -0.001 C 
ATOM     15  C   UNL     1      35.865 -22.728 -15.671  0.00  0.00    +0.022 C 
ATOM     16  C   UNL     1      36.558 -25.295 -15.054  0.00  0.00    +0.095 C 
BRANCH  12  17
ATOM     17  C   UNL     1      38.937 -24.656 -14.617  0.00  0.00    +0.028 C 
ATOM     18  C   UNL     1      39.003 -25.597 -13.414  0.00  0.00    +0.005 C 
ENDBRANCH  12  17
ENDBRANCH  10  13
ENDBRANCH   8  10
ENDBRANCH   7   8
ENDBRANCH   4   7
BRANCH   1  19
ATOM     19  C   UNL     1      35.854 -18.774 -21.635  0.00  0.00    +0.047 C 
BRANCH  19  24
ATOM     20  S   UNL     1      34.552 -16.391 -21.185  0.00  0.00    -0.048 S 
ATOM     21  O   UNL     1      34.932 -18.386 -24.466  0.00  0.00    -0.274 OA
ATOM     22  O   UNL     1      34.546 -14.177 -22.604  0.00  0.00    -0.263 OA
ATOM     23  N   UNL     1      34.735 -16.203 -23.726  0.00  0.00    -0.246 N 
ATOM     24  C   UNL     1      34.662 -17.957 -22.103  0.00  0.00    +0.137 C 
ATOM     25  C   UNL     1      34.794 -17.572 -23.559  0.00  0.00    +0.239 C 
ATOM     26  C   UNL     1      34.608 -15.397 -22.625  0.00  0.00    +0.279 C 
ATOM     27  H   UNL     1      34.783 -15.810 -24.627  0.00  0.00    +0.158 HD
ENDBRANCH  19  24
ENDBRANCH   1  19
TORSDOF 7
ENDMDL
