MODEL 1
REMARK VINA RESULT:     -10.1      0.000      0.000
REMARK  Name = 118572065
REMARK  6 active torsions:
REMARK  status: ('A' for Active; 'I' for Inactive)
REMARK    1  A    between atoms: N_4  and  C_21
REMARK    2  A    between atoms: C_5  and  C_14
REMARK    3  A    between atoms: C_14  and  C_16
REMARK    4  A    between atoms: C_14  and  O_19
REMARK    5  A    between atoms: C_21  and  C_24
REMARK    6  A    between atoms: C_25  and  O_31
REMARK                            x       y       z     vdW  Elec       q    Type
REMARK                         _______ _______ _______ _____ _____    ______ ____
ROOT
ATOM      1 CL   UNL     1      37.986 -22.533 -16.303  0.00  0.00    -0.082 Cl
ATOM      2 CL   UNL     1      31.931 -23.787 -15.341  0.00  0.00    -0.083 Cl
ATOM      3  O   UNL     1      36.900 -21.472 -18.498  0.00  0.00    -0.270 OA
ATOM      4  N   UNL     1      34.856 -21.999 -19.479  0.00  0.00    -0.271 N 
ATOM      5  C   UNL     1      35.864 -23.355 -14.915  0.00  0.00    +0.016 C 
ATOM      6  C   UNL     1      35.337 -22.575 -17.144  0.00  0.00    +0.061 C 
ATOM      7  C   UNL     1      33.985 -22.888 -16.938  0.00  0.00    -0.005 C 
ATOM      8  C   UNL     1      32.973 -22.595 -18.008  0.00  0.00    +0.049 C 
ATOM      9  C   UNL     1      36.274 -22.809 -16.132  0.00  0.00    +0.060 C 
ATOM     10  C   UNL     1      33.613 -22.758 -19.376  0.00  0.00    +0.099 C 
ATOM     11  C   UNL     1      34.521 -23.659 -14.703  0.00  0.00    +0.010 C 
ATOM     12  C   UNL     1      35.778 -21.968 -18.429  0.00  0.00    +0.250 C 
ATOM     13  C   UNL     1      33.583 -23.421 -15.707  0.00  0.00    +0.054 C 
ENDROOT
BRANCH   5  14
ATOM     14  C   UNL     1      36.817 -23.639 -13.797  0.00  0.00    +0.143 C 
BRANCH  14  16
ATOM     15  O   UNL     1      36.981 -24.182 -10.649  0.00  0.00    -0.353 OA
ATOM     16  C   UNL     1      36.150 -23.381 -12.447  0.00  0.00    +0.091 C 
ATOM     17  C   UNL     1      37.058 -22.896 -11.311  0.00  0.00    +0.147 C 
ATOM     18  C   UNL     1      35.922 -24.599 -11.546  0.00  0.00    +0.147 C 
ENDBRANCH  14  16
BRANCH  14  19
ATOM     19  O   UNL     1      37.255 -25.000 -13.837  0.00  0.00    -0.349 OA
ATOM     20  C   UNL     1      38.667 -25.082 -13.937  0.00  0.00    +0.174 C 
ENDBRANCH  14  19
ENDBRANCH   5  14
BRANCH   4  21
ATOM     21  C   UNL     1      35.203 -21.467 -20.788  0.00  0.00    +0.128 C 
BRANCH  21  24
ATOM     22  O   UNL     1      32.551 -20.603 -20.867  0.00  0.00    -0.270 OA
ATOM     23  N   UNL     1      33.062 -18.366 -20.939  0.00  0.00    -0.284 N 
ATOM     24  C   UNL     1      34.865 -20.023 -20.847  0.00  0.00    +0.085 C 
ATOM     25  C   UNL     1      35.736 -18.998 -20.870  0.00  0.00    +0.142 C 
ATOM     26  C   UNL     1      33.394 -19.709 -20.885  0.00  0.00    +0.250 C 
ATOM     27  C   UNL     1      35.293 -17.623 -20.928  0.00  0.00    +0.047 C 
ATOM     28  C   UNL     1      33.982 -17.340 -20.961  0.00  0.00    +0.031 C 
ATOM     29  C   UNL     1      33.436 -15.950 -21.021  0.00  0.00    +0.047 C 
ATOM     30  H   UNL     1      32.107 -18.128 -20.964  0.00  0.00    +0.155 HD
BRANCH  25  31
ATOM     31  O   UNL     1      37.106 -19.120 -20.841  0.00  0.00    -0.472 OA
ATOM     32  C   UNL     1      37.673 -18.740 -22.082  0.00  0.00    +0.252 C 
ENDBRANCH  25  31
ENDBRANCH  21  24
ENDBRANCH   4  21
TORSDOF 6
ENDMDL
MODEL 2
REMARK VINA RESULT:      -9.8      0.807      1.914
REMARK  Name = 118572065
REMARK  6 active torsions:
REMARK  status: ('A' for Active; 'I' for Inactive)
REMARK    1  A    between atoms: N_4  and  C_21
REMARK    2  A    between atoms: C_5  and  C_14
REMARK    3  A    between atoms: C_14  and  C_16
REMARK    4  A    between atoms: C_14  and  O_19
REMARK    5  A    between atoms: C_21  and  C_24
REMARK    6  A    between atoms: C_25  and  O_31
REMARK                            x       y       z     vdW  Elec       q    Type
REMARK                         _______ _______ _______ _____ _____    ______ ____
ROOT
ATOM      1 CL   UNL     1      38.065 -22.787 -16.090  0.00  0.00    -0.082 Cl
ATOM      2 CL   UNL     1      31.895 -23.706 -15.603  0.00  0.00    -0.083 Cl
ATOM      3  O   UNL     1      37.208 -21.635 -18.340  0.00  0.00    -0.270 OA
ATOM      4  N   UNL     1      35.217 -22.029 -19.479  0.00  0.00    -0.271 N 
ATOM      5  C   UNL     1      35.802 -23.506 -14.879  0.00  0.00    +0.016 C 
ATOM      6  C   UNL     1      35.489 -22.665 -17.125  0.00  0.00    +0.061 C 
ATOM      7  C   UNL     1      34.109 -22.903 -17.027  0.00  0.00    -0.005 C 
ATOM      8  C   UNL     1      33.199 -22.537 -18.163  0.00  0.00    +0.049 C 
ATOM      9  C   UNL     1      36.333 -22.967 -16.051  0.00  0.00    +0.060 C 
ATOM     10  C   UNL     1      33.930 -22.717 -19.482  0.00  0.00    +0.099 C 
ATOM     11  C   UNL     1      34.432 -23.735 -14.772  0.00  0.00    +0.010 C 
ATOM     12  C   UNL     1      36.058 -22.066 -18.363  0.00  0.00    +0.250 C 
ATOM     13  C   UNL     1      33.587 -23.430 -15.839  0.00  0.00    +0.054 C 
ENDROOT
BRANCH   5  14
ATOM     14  C   UNL     1      36.651 -23.860 -13.698  0.00  0.00    +0.143 C 
BRANCH  14  16
ATOM     15  O   UNL     1      36.701 -24.117 -10.511  0.00  0.00    -0.353 OA
ATOM     16  C   UNL     1      35.959 -23.449 -12.399  0.00  0.00    +0.091 C 
ATOM     17  C   UNL     1      36.857 -22.902 -11.283  0.00  0.00    +0.147 C 
ATOM     18  C   UNL     1      35.648 -24.567 -11.399  0.00  0.00    +0.147 C 
ENDBRANCH  14  16
BRANCH  14  19
ATOM     19  O   UNL     1      36.900 -25.268 -13.657  0.00  0.00    -0.349 OA
ATOM     20  C   UNL     1      38.287 -25.546 -13.751  0.00  0.00    +0.174 C 
ENDBRANCH  14  19
ENDBRANCH   5  14
BRANCH   4  21
ATOM     21  C   UNL     1      35.692 -21.500 -20.748  0.00  0.00    +0.128 C 
BRANCH  21  24
ATOM     22  O   UNL     1      37.643 -19.508 -20.647  0.00  0.00    -0.270 OA
ATOM     23  N   UNL     1      36.171 -17.761 -20.885  0.00  0.00    -0.284 N 
ATOM     24  C   UNL     1      35.332 -20.063 -20.856  0.00  0.00    +0.085 C 
ATOM     25  C   UNL     1      34.095 -19.558 -21.008  0.00  0.00    +0.142 C 
ATOM     26  C   UNL     1      36.490 -19.105 -20.785  0.00  0.00    +0.250 C 
ATOM     27  C   UNL     1      33.861 -18.134 -21.104  0.00  0.00    +0.047 C 
ATOM     28  C   UNL     1      34.890 -17.277 -21.041  0.00  0.00    +0.031 C 
ATOM     29  C   UNL     1      34.740 -15.793 -21.131  0.00  0.00    +0.047 C 
ATOM     30  H   UNL     1      36.908 -17.108 -20.843  0.00  0.00    +0.155 HD
BRANCH  25  31
ATOM     31  O   UNL     1      32.939 -20.299 -21.089  0.00  0.00    -0.472 OA
ATOM     32  C   UNL     1      31.908 -19.714 -20.315  0.00  0.00    +0.252 C 
ENDBRANCH  25  31
ENDBRANCH  21  24
ENDBRANCH   4  21
TORSDOF 6
ENDMDL
MODEL 3
REMARK VINA RESULT:      -8.4      4.530     10.260
REMARK  Name = 118572065
REMARK  6 active torsions:
REMARK  status: ('A' for Active; 'I' for Inactive)
REMARK    1  A    between atoms: N_4  and  C_21
REMARK    2  A    between atoms: C_5  and  C_14
REMARK    3  A    between atoms: C_14  and  C_16
REMARK    4  A    between atoms: C_14  and  O_19
REMARK    5  A    between atoms: C_21  and  C_24
REMARK    6  A    between atoms: C_25  and  O_31
REMARK                            x       y       z     vdW  Elec       q    Type
REMARK                         _______ _______ _______ _____ _____    ______ ____
ROOT
ATOM      1 CL   UNL     1      34.391 -14.861 -20.230  0.00  0.00    -0.082 Cl
ATOM      2 CL   UNL     1      33.554 -16.372 -26.245  0.00  0.00    -0.083 Cl
ATOM      3  O   UNL     1      35.797 -17.125 -20.378  0.00  0.00    -0.270 OA
ATOM      4  N   UNL     1      35.570 -18.850 -21.924  0.00  0.00    -0.271 N 
ATOM      5  C   UNL     1      33.593 -14.480 -22.744  0.00  0.00    +0.016 C 
ATOM      6  C   UNL     1      34.678 -16.609 -22.372  0.00  0.00    +0.061 C 
ATOM      7  C   UNL     1      34.460 -16.960 -23.713  0.00  0.00    -0.005 C 
ATOM      8  C   UNL     1      34.965 -18.271 -24.240  0.00  0.00    +0.049 C 
ATOM      9  C   UNL     1      34.244 -15.370 -21.890  0.00  0.00    +0.060 C 
ATOM     10  C   UNL     1      34.914 -19.319 -23.141  0.00  0.00    +0.099 C 
ATOM     11  C   UNL     1      33.382 -14.819 -24.079  0.00  0.00    +0.010 C 
ATOM     12  C   UNL     1      35.395 -17.543 -21.461  0.00  0.00    +0.250 C 
ATOM     13  C   UNL     1      33.819 -16.051 -24.564  0.00  0.00    +0.054 C 
ENDROOT
BRANCH   5  14
ATOM     14  C   UNL     1      33.096 -13.143 -22.289  0.00  0.00    +0.143 C 
BRANCH  14  16
ATOM     15  O   UNL     1      33.930 -10.363 -23.632  0.00  0.00    -0.353 OA
ATOM     16  C   UNL     1      32.879 -12.217 -23.485  0.00  0.00    +0.091 C 
ATOM     17  C   UNL     1      34.138 -11.687 -24.182  0.00  0.00    +0.147 C 
ATOM     18  C   UNL     1      32.608 -10.741 -23.175  0.00  0.00    +0.147 C 
ENDBRANCH  14  16
BRANCH  14  19
ATOM     19  O   UNL     1      31.857 -13.276 -21.585  0.00  0.00    -0.349 OA
ATOM     20  C   UNL     1      31.851 -12.488 -20.406  0.00  0.00    +0.174 C 
ENDBRANCH  14  19
ENDBRANCH   5  14
BRANCH   4  21
ATOM     21  C   UNL     1      36.224 -19.850 -21.094  0.00  0.00    +0.128 C 
BRANCH  21  24
ATOM     22  O   UNL     1      36.975 -21.626 -19.077  0.00  0.00    -0.270 OA
ATOM     23  N   UNL     1      34.829 -22.162 -18.460  0.00  0.00    -0.284 N 
ATOM     24  C   UNL     1      35.209 -20.564 -20.279  0.00  0.00    +0.085 C 
ATOM     25  C   UNL     1      33.873 -20.460 -20.395  0.00  0.00    +0.142 C 
ATOM     26  C   UNL     1      35.763 -21.489 -19.229  0.00  0.00    +0.250 C 
ATOM     27  C   UNL     1      32.974 -21.207 -19.543  0.00  0.00    +0.047 C 
ATOM     28  C   UNL     1      33.465 -22.031 -18.606  0.00  0.00    +0.031 C 
ATOM     29  C   UNL     1      32.611 -22.840 -17.684  0.00  0.00    +0.047 C 
ATOM     30  H   UNL     1      35.161 -22.775 -17.764  0.00  0.00    +0.155 HD
BRANCH  25  31
ATOM     31  O   UNL     1      33.214 -19.662 -21.301  0.00  0.00    -0.472 OA
ATOM     32  C   UNL     1      32.144 -18.971 -20.683  0.00  0.00    +0.252 C 
ENDBRANCH  25  31
ENDBRANCH  21  24
ENDBRANCH   4  21
TORSDOF 6
ENDMDL
MODEL 4
REMARK VINA RESULT:      -8.3      8.616     13.998
REMARK  Name = 118572065
REMARK  6 active torsions:
REMARK  status: ('A' for Active; 'I' for Inactive)
REMARK    1  A    between atoms: N_4  and  C_21
REMARK    2  A    between atoms: C_5  and  C_14
REMARK    3  A    between atoms: C_14  and  C_16
REMARK    4  A    between atoms: C_14  and  O_19
REMARK    5  A    between atoms: C_21  and  C_24
REMARK    6  A    between atoms: C_25  and  O_31
REMARK                            x       y       z     vdW  Elec       q    Type
REMARK                         _______ _______ _______ _____ _____    ______ ____
ROOT
ATOM      1 CL   UNL     1      31.748  -9.950 -21.503  0.00  0.00    -0.082 Cl
ATOM      2 CL   UNL     1      35.871  -9.098 -26.132  0.00  0.00    -0.083 Cl
ATOM      3  O   UNL     1      32.176 -12.473 -22.262  0.00  0.00    -0.270 OA
ATOM      4  N   UNL     1      32.957 -13.233 -24.319  0.00  0.00    -0.271 N 
ATOM      5  C   UNL     1      33.432  -8.563 -23.033  0.00  0.00    +0.016 C 
ATOM      6  C   UNL     1      33.289 -10.909 -23.607  0.00  0.00    +0.061 C 
ATOM      7  C   UNL     1      34.188 -10.709 -24.666  0.00  0.00    -0.005 C 
ATOM      8  C   UNL     1      34.626 -11.870 -25.511  0.00  0.00    +0.049 C 
ATOM      9  C   UNL     1      32.913  -9.835 -22.793  0.00  0.00    +0.060 C 
ATOM     10  C   UNL     1      33.492 -12.874 -25.629  0.00  0.00    +0.099 C 
ATOM     11  C   UNL     1      34.333  -8.361 -24.077  0.00  0.00    +0.010 C 
ATOM     12  C   UNL     1      32.751 -12.268 -23.328  0.00  0.00    +0.250 C 
ATOM     13  C   UNL     1      34.715  -9.430 -24.887  0.00  0.00    +0.054 C 
ENDROOT
BRANCH   5  14
ATOM     14  C   UNL     1      33.063  -7.372 -22.205  0.00  0.00    +0.143 C 
BRANCH  14  16
ATOM     15  O   UNL     1      31.286  -6.081 -24.530  0.00  0.00    -0.353 OA
ATOM     16  C   UNL     1      31.670  -6.870 -22.582  0.00  0.00    +0.091 C 
ATOM     17  C   UNL     1      31.091  -7.375 -23.909  0.00  0.00    +0.147 C 
ATOM     18  C   UNL     1      31.590  -5.489 -23.243  0.00  0.00    +0.147 C 
ENDBRANCH  14  16
BRANCH  14  19
ATOM     19  O   UNL     1      33.069  -7.701 -20.813  0.00  0.00    -0.349 OA
ATOM     20  C   UNL     1      32.329  -6.755 -20.060  0.00  0.00    +0.174 C 
ENDBRANCH  14  19
ENDBRANCH   5  14
BRANCH   4  21
ATOM     21  C   UNL     1      32.436 -14.582 -24.161  0.00  0.00    +0.128 C 
BRANCH  21  24
ATOM     22  O   UNL     1      34.025 -16.149 -25.835  0.00  0.00    -0.270 OA
ATOM     23  N   UNL     1      35.262 -17.079 -24.139  0.00  0.00    -0.284 N 
ATOM     24  C   UNL     1      33.495 -15.466 -23.612  0.00  0.00    +0.085 C 
ATOM     25  C   UNL     1      33.812 -15.622 -22.314  0.00  0.00    +0.142 C 
ATOM     26  C   UNL     1      34.270 -16.251 -24.635  0.00  0.00    +0.250 C 
ATOM     27  C   UNL     1      34.868 -16.515 -21.891  0.00  0.00    +0.047 C 
ATOM     28  C   UNL     1      35.561 -17.216 -22.800  0.00  0.00    +0.031 C 
ATOM     29  C   UNL     1      36.667 -18.159 -22.453  0.00  0.00    +0.047 C 
ATOM     30  H   UNL     1      35.788 -17.606 -24.783  0.00  0.00    +0.155 HD
BRANCH  25  31
ATOM     31  O   UNL     1      33.199 -14.979 -21.263  0.00  0.00    -0.472 OA
ATOM     32  C   UNL     1      32.255 -15.827 -20.634  0.00  0.00    +0.252 C 
ENDBRANCH  25  31
ENDBRANCH  21  24
ENDBRANCH   4  21
TORSDOF 6
ENDMDL
MODEL 5
REMARK VINA RESULT:      -8.1      4.712      8.720
REMARK  Name = 118572065
REMARK  6 active torsions:
REMARK  status: ('A' for Active; 'I' for Inactive)
REMARK    1  A    between atoms: N_4  and  C_21
REMARK    2  A    between atoms: C_5  and  C_14
REMARK    3  A    between atoms: C_14  and  C_16
REMARK    4  A    between atoms: C_14  and  O_19
REMARK    5  A    between atoms: C_21  and  C_24
REMARK    6  A    between atoms: C_25  and  O_31
REMARK                            x       y       z     vdW  Elec       q    Type
REMARK                         _______ _______ _______ _____ _____    ______ ____
ROOT
ATOM      1 CL   UNL     1      30.093 -24.786 -13.815  0.00  0.00    -0.082 Cl
ATOM      2 CL   UNL     1      33.074 -21.969 -18.541  0.00  0.00    -0.083 Cl
ATOM      3  O   UNL     1      32.572 -24.651 -12.834  0.00  0.00    -0.270 OA
ATOM      4  N   UNL     1      34.568 -24.451 -14.015  0.00  0.00    -0.271 N 
ATOM      5  C   UNL     1      30.294 -23.508 -16.145  0.00  0.00    +0.016 C 
ATOM      6  C   UNL     1      32.415 -23.871 -15.039  0.00  0.00    +0.061 C 
ATOM      7  C   UNL     1      33.085 -23.269 -16.115  0.00  0.00    -0.005 C 
ATOM      8  C   UNL     1      34.576 -23.101 -16.075  0.00  0.00    +0.049 C 
ATOM      9  C   UNL     1      31.021 -23.990 -15.056  0.00  0.00    +0.060 C 
ATOM     10  C   UNL     1      35.201 -24.260 -15.317  0.00  0.00    +0.099 C 
ATOM     11  C   UNL     1      30.954 -22.900 -17.212  0.00  0.00    +0.010 C 
ATOM     12  C   UNL     1      33.181 -24.363 -13.861  0.00  0.00    +0.250 C 
ATOM     13  C   UNL     1      32.343 -22.775 -17.195  0.00  0.00    +0.054 C 
ENDROOT
BRANCH   5  14
ATOM     14  C   UNL     1      28.804 -23.612 -16.229  0.00  0.00    +0.143 C 
BRANCH  14  16
ATOM     15  O   UNL     1      26.052 -21.988 -16.362  0.00  0.00    -0.353 OA
ATOM     16  C   UNL     1      28.166 -22.225 -16.165  0.00  0.00    +0.091 C 
ATOM     17  C   UNL     1      26.958 -22.065 -15.234  0.00  0.00    +0.147 C 
ATOM     18  C   UNL     1      27.171 -21.871 -17.275  0.00  0.00    +0.147 C 
ENDBRANCH  14  16
BRANCH  14  19
ATOM     19  O   UNL     1      28.409 -24.240 -17.453  0.00  0.00    -0.349 OA
ATOM     20  C   UNL     1      27.846 -25.519 -17.213  0.00  0.00    +0.174 C 
ENDBRANCH  14  19
ENDBRANCH   5  14
BRANCH   4  21
ATOM     21  C   UNL     1      35.403 -24.958 -12.938  0.00  0.00    +0.128 C 
BRANCH  21  24
ATOM     22  O   UNL     1      36.351 -27.430 -13.818  0.00  0.00    -0.270 OA
ATOM     23  N   UNL     1      38.463 -26.679 -14.315  0.00  0.00    -0.284 N 
ATOM     24  C   UNL     1      36.797 -25.121 -13.420  0.00  0.00    +0.085 C 
ATOM     25  C   UNL     1      37.735 -24.160 -13.493  0.00  0.00    +0.142 C 
ATOM     26  C   UNL     1      37.166 -26.511 -13.862  0.00  0.00    +0.250 C 
ATOM     27  C   UNL     1      39.069 -24.432 -13.982  0.00  0.00    +0.047 C 
ATOM     28  C   UNL     1      39.400 -25.670 -14.377  0.00  0.00    +0.031 C 
ATOM     29  C   UNL     1      40.752 -26.041 -14.895  0.00  0.00    +0.047 C 
ATOM     30  H   UNL     1      38.735 -27.578 -14.613  0.00  0.00    +0.155 HD
BRANCH  25  31
ATOM     31  O   UNL     1      37.556 -22.845 -13.127  0.00  0.00    -0.472 OA
ATOM     32  C   UNL     1      37.586 -22.704 -11.719  0.00  0.00    +0.252 C 
ENDBRANCH  25  31
ENDBRANCH  21  24
ENDBRANCH   4  21
TORSDOF 6
ENDMDL
MODEL 6
REMARK VINA RESULT:      -8.1      5.621     11.653
REMARK  Name = 118572065
REMARK  6 active torsions:
REMARK  status: ('A' for Active; 'I' for Inactive)
REMARK    1  A    between atoms: N_4  and  C_21
REMARK    2  A    between atoms: C_5  and  C_14
REMARK    3  A    between atoms: C_14  and  C_16
REMARK    4  A    between atoms: C_14  and  O_19
REMARK    5  A    between atoms: C_21  and  C_24
REMARK    6  A    between atoms: C_25  and  O_31
REMARK                            x       y       z     vdW  Elec       q    Type
REMARK                         _______ _______ _______ _____ _____    ______ ____
ROOT
ATOM      1 CL   UNL     1      34.192 -13.051 -25.279  0.00  0.00    -0.082 Cl
ATOM      2 CL   UNL     1      31.998 -13.115 -19.419  0.00  0.00    -0.083 Cl
ATOM      3  O   UNL     1      34.212 -15.670 -24.766  0.00  0.00    -0.270 OA
ATOM      4  N   UNL     1      34.277 -16.719 -22.689  0.00  0.00    -0.271 N 
ATOM      5  C   UNL     1      33.106 -12.011 -23.078  0.00  0.00    +0.016 C 
ATOM      6  C   UNL     1      33.579 -14.378 -22.915  0.00  0.00    +0.061 C 
ATOM      7  C   UNL     1      33.118 -14.384 -21.590  0.00  0.00    -0.005 C 
ATOM      8  C   UNL     1      33.083 -15.666 -20.810  0.00  0.00    +0.049 C 
ATOM      9  C   UNL     1      33.573 -13.192 -23.657  0.00  0.00    +0.060 C 
ATOM     10  C   UNL     1      34.237 -16.557 -21.239  0.00  0.00    +0.099 C 
ATOM     11  C   UNL     1      32.638 -12.014 -21.765  0.00  0.00    +0.010 C 
ATOM     12  C   UNL     1      34.054 -15.639 -23.548  0.00  0.00    +0.250 C 
ATOM     13  C   UNL     1      32.638 -13.195 -21.025  0.00  0.00    +0.054 C 
ENDROOT
BRANCH   5  14
ATOM     14  C   UNL     1      33.081 -10.708 -23.813  0.00  0.00    +0.143 C 
BRANCH  14  16
ATOM     15  O   UNL     1      32.448  -7.634 -23.201  0.00  0.00    -0.353 OA
ATOM     16  C   UNL     1      32.099  -9.741 -23.155  0.00  0.00    +0.091 C 
ATOM     17  C   UNL     1      31.645  -8.541 -23.995  0.00  0.00    +0.147 C 
ATOM     18  C   UNL     1      32.695  -8.677 -22.227  0.00  0.00    +0.147 C 
ENDBRANCH  14  16
BRANCH  14  19
ATOM     19  O   UNL     1      34.379 -10.106 -23.821  0.00  0.00    -0.349 OA
ATOM     20  C   UNL     1      34.867  -9.957 -25.144  0.00  0.00    +0.174 C 
ENDBRANCH  14  19
ENDBRANCH   5  14
BRANCH   4  21
ATOM     21  C   UNL     1      34.779 -17.984 -23.202  0.00  0.00    +0.128 C 
BRANCH  21  24
ATOM     22  O   UNL     1      37.428 -18.210 -22.354  0.00  0.00    -0.270 OA
ATOM     23  N   UNL     1      36.983 -19.711 -20.675  0.00  0.00    -0.284 N 
ATOM     24  C   UNL     1      35.153 -18.870 -22.072  0.00  0.00    +0.085 C 
ATOM     25  C   UNL     1      34.319 -19.637 -21.348  0.00  0.00    +0.142 C 
ATOM     26  C   UNL     1      36.618 -18.890 -21.728  0.00  0.00    +0.250 C 
ATOM     27  C   UNL     1      34.795 -20.466 -20.262  0.00  0.00    +0.047 C 
ATOM     28  C   UNL     1      36.100 -20.485 -19.953  0.00  0.00    +0.031 C 
ATOM     29  C   UNL     1      36.678 -21.310 -18.849  0.00  0.00    +0.047 C 
ATOM     30  H   UNL     1      37.935 -19.745 -20.425  0.00  0.00    +0.155 HD
BRANCH  25  31
ATOM     31  O   UNL     1      32.959 -19.730 -21.537  0.00  0.00    -0.472 OA
ATOM     32  C   UNL     1      32.301 -20.056 -20.326  0.00  0.00    +0.252 C 
ENDBRANCH  25  31
ENDBRANCH  21  24
ENDBRANCH   4  21
TORSDOF 6
ENDMDL
MODEL 7
REMARK VINA RESULT:      -7.9      7.724     12.981
REMARK  Name = 118572065
REMARK  6 active torsions:
REMARK  status: ('A' for Active; 'I' for Inactive)
REMARK    1  A    between atoms: N_4  and  C_21
REMARK    2  A    between atoms: C_5  and  C_14
REMARK    3  A    between atoms: C_14  and  C_16
REMARK    4  A    between atoms: C_14  and  O_19
REMARK    5  A    between atoms: C_21  and  C_24
REMARK    6  A    between atoms: C_25  and  O_31
REMARK                            x       y       z     vdW  Elec       q    Type
REMARK                         _______ _______ _______ _____ _____    ______ ____
ROOT
ATOM      1 CL   UNL     1      31.081 -10.862 -21.220  0.00  0.00    -0.082 Cl
ATOM      2 CL   UNL     1      35.170 -10.880 -25.956  0.00  0.00    -0.083 Cl
ATOM      3  O   UNL     1      31.983 -13.371 -21.093  0.00  0.00    -0.270 OA
ATOM      4  N   UNL     1      32.970 -14.623 -22.789  0.00  0.00    -0.271 N 
ATOM      5  C   UNL     1      32.551  -9.788 -23.166  0.00  0.00    +0.016 C 
ATOM      6  C   UNL     1      32.853 -12.175 -22.911  0.00  0.00    +0.061 C 
ATOM      7  C   UNL     1      33.744 -12.183 -23.995  0.00  0.00    -0.005 C 
ATOM      8  C   UNL     1      34.416 -13.460 -24.409  0.00  0.00    +0.049 C 
ATOM      9  C   UNL     1      32.258 -10.978 -22.499  0.00  0.00    +0.060 C 
ATOM     10  C   UNL     1      33.485 -14.633 -24.155  0.00  0.00    +0.099 C 
ATOM     11  C   UNL     1      33.443  -9.789 -24.237  0.00  0.00    +0.010 C 
ATOM     12  C   UNL     1      32.555 -13.436 -22.178  0.00  0.00    +0.250 C 
ATOM     13  C   UNL     1      34.042 -10.979 -24.647  0.00  0.00    +0.054 C 
ENDROOT
BRANCH   5  14
ATOM     14  C   UNL     1      31.942  -8.477 -22.781  0.00  0.00    +0.143 C 
BRANCH  14  16
ATOM     15  O   UNL     1      32.012  -6.875 -20.014  0.00  0.00    -0.353 OA
ATOM     16  C   UNL     1      32.837  -7.743 -21.783  0.00  0.00    +0.091 C 
ATOM     17  C   UNL     1      32.680  -8.126 -20.306  0.00  0.00    +0.147 C 
ATOM     18  C   UNL     1      32.366  -6.360 -21.321  0.00  0.00    +0.147 C 
ENDBRANCH  14  16
BRANCH  14  19
ATOM     19  O   UNL     1      31.763  -7.644 -23.931  0.00  0.00    -0.349 OA
ATOM     20  C   UNL     1      30.390  -7.503 -24.252  0.00  0.00    +0.174 C 
ENDBRANCH  14  19
ENDBRANCH   5  14
BRANCH   4  21
ATOM     21  C   UNL     1      32.692 -15.910 -22.173  0.00  0.00    +0.128 C 
BRANCH  21  24
ATOM     22  O   UNL     1      34.332 -15.996 -19.918  0.00  0.00    -0.270 OA
ATOM     23  N   UNL     1      35.867 -17.440 -20.830  0.00  0.00    -0.284 N 
ATOM     24  C   UNL     1      33.929 -16.732 -22.151  0.00  0.00    +0.085 C 
ATOM     25  C   UNL     1      34.398 -17.498 -23.152  0.00  0.00    +0.142 C 
ATOM     26  C   UNL     1      34.711 -16.679 -20.867  0.00  0.00    +0.250 C 
ATOM     27  C   UNL     1      35.619 -18.260 -23.020  0.00  0.00    +0.047 C 
ATOM     28  C   UNL     1      36.319 -18.215 -21.876  0.00  0.00    +0.031 C 
ATOM     29  C   UNL     1      37.590 -18.969 -21.653  0.00  0.00    +0.047 C 
ATOM     30  H   UNL     1      36.402 -17.427 -20.003  0.00  0.00    +0.155 HD
BRANCH  25  31
ATOM     31  O   UNL     1      33.801 -17.650 -24.382  0.00  0.00    -0.472 OA
ATOM     32  C   UNL     1      34.327 -18.775 -25.064  0.00  0.00    +0.252 C 
ENDBRANCH  25  31
ENDBRANCH  21  24
ENDBRANCH   4  21
TORSDOF 6
ENDMDL
MODEL 8
REMARK VINA RESULT:      -7.8      8.055     13.790
REMARK  Name = 118572065
REMARK  6 active torsions:
REMARK  status: ('A' for Active; 'I' for Inactive)
REMARK    1  A    between atoms: N_4  and  C_21
REMARK    2  A    between atoms: C_5  and  C_14
REMARK    3  A    between atoms: C_14  and  C_16
REMARK    4  A    between atoms: C_14  and  O_19
REMARK    5  A    between atoms: C_21  and  C_24
REMARK    6  A    between atoms: C_25  and  O_31
REMARK                            x       y       z     vdW  Elec       q    Type
REMARK                         _______ _______ _______ _____ _____    ______ ____
ROOT
ATOM      1 CL   UNL     1      31.563  -9.744 -21.073  0.00  0.00    -0.082 Cl
ATOM      2 CL   UNL     1      35.600  -9.728 -25.854  0.00  0.00    -0.083 Cl
ATOM      3  O   UNL     1      32.007 -12.360 -21.362  0.00  0.00    -0.270 OA
ATOM      4  N   UNL     1      32.763 -13.480 -23.257  0.00  0.00    -0.271 N 
ATOM      5  C   UNL     1      33.207  -8.650 -22.863  0.00  0.00    +0.016 C 
ATOM      6  C   UNL     1      33.081 -11.062 -22.992  0.00  0.00    +0.061 C 
ATOM      7  C   UNL     1      33.960 -11.054 -24.085  0.00  0.00    -0.005 C 
ATOM      8  C   UNL     1      34.397 -12.347 -24.710  0.00  0.00    +0.049 C 
ATOM      9  C   UNL     1      32.706  -9.860 -22.383  0.00  0.00    +0.060 C 
ATOM     10  C   UNL     1      33.272 -13.365 -24.620  0.00  0.00    +0.099 C 
ATOM     11  C   UNL     1      34.088  -8.637 -23.942  0.00  0.00    +0.010 C 
ATOM     12  C   UNL     1      32.563 -12.351 -22.457  0.00  0.00    +0.250 C 
ATOM     13  C   UNL     1      34.469  -9.834 -24.548  0.00  0.00    +0.054 C 
ENDROOT
BRANCH   5  14
ATOM     14  C   UNL     1      32.838  -7.330 -22.262  0.00  0.00    +0.143 C 
BRANCH  14  16
ATOM     15  O   UNL     1      31.043  -6.322 -24.709  0.00  0.00    -0.353 OA
ATOM     16  C   UNL     1      31.432  -6.919 -22.695  0.00  0.00    +0.091 C 
ATOM     17  C   UNL     1      30.890  -7.562 -23.977  0.00  0.00    +0.147 C 
ATOM     18  C   UNL     1      31.306  -5.607 -23.477  0.00  0.00    +0.147 C 
ENDBRANCH  14  16
BRANCH  14  19
ATOM     19  O   UNL     1      32.875  -7.395 -20.834  0.00  0.00    -0.349 OA
ATOM     20  C   UNL     1      32.187  -6.299 -20.253  0.00  0.00    +0.174 C 
ENDBRANCH  14  19
ENDBRANCH   5  14
BRANCH   4  21
ATOM     21  C   UNL     1      32.259 -14.781 -22.844  0.00  0.00    +0.128 C 
BRANCH  21  24
ATOM     22  O   UNL     1      33.248 -15.297 -20.286  0.00  0.00    -0.270 OA
ATOM     23  N   UNL     1      34.878 -16.758 -20.982  0.00  0.00    -0.284 N 
ATOM     24  C   UNL     1      33.396 -15.712 -22.630  0.00  0.00    +0.085 C 
ATOM     25  C   UNL     1      34.062 -16.391 -23.581  0.00  0.00    +0.142 C 
ATOM     26  C   UNL     1      33.819 -15.891 -21.198  0.00  0.00    +0.250 C 
ATOM     27  C   UNL     1      35.159 -17.277 -23.258  0.00  0.00    +0.047 C 
ATOM     28  C   UNL     1      35.538 -17.439 -21.982  0.00  0.00    +0.031 C 
ATOM     29  C   UNL     1      36.659 -18.332 -21.558  0.00  0.00    +0.047 C 
ATOM     30  H   UNL     1      35.178 -16.897 -20.055  0.00  0.00    +0.155 HD
BRANCH  25  31
ATOM     31  O   UNL     1      33.798 -16.335 -24.930  0.00  0.00    -0.472 OA
ATOM     32  C   UNL     1      34.160 -17.547 -25.567  0.00  0.00    +0.252 C 
ENDBRANCH  25  31
ENDBRANCH  21  24
ENDBRANCH   4  21
TORSDOF 6
ENDMDL
MODEL 9
REMARK VINA RESULT:      -7.8      3.066      8.540
REMARK  Name = 118572065
REMARK  6 active torsions:
REMARK  status: ('A' for Active; 'I' for Inactive)
REMARK    1  A    between atoms: N_4  and  C_21
REMARK    2  A    between atoms: C_5  and  C_14
REMARK    3  A    between atoms: C_14  and  C_16
REMARK    4  A    between atoms: C_14  and  O_19
REMARK    5  A    between atoms: C_21  and  C_24
REMARK    6  A    between atoms: C_25  and  O_31
REMARK                            x       y       z     vdW  Elec       q    Type
REMARK                         _______ _______ _______ _____ _____    ______ ____
ROOT
ATOM      1 CL   UNL     1      31.976 -18.607 -20.841  0.00  0.00    -0.082 Cl
ATOM      2 CL   UNL     1      38.202 -19.175 -21.103  0.00  0.00    -0.083 Cl
ATOM      3  O   UNL     1      32.338 -20.821 -19.395  0.00  0.00    -0.270 OA
ATOM      4  N   UNL     1      34.144 -22.288 -19.455  0.00  0.00    -0.271 N 
ATOM      5  C   UNL     1      34.465 -17.843 -21.411  0.00  0.00    +0.016 C 
ATOM      6  C   UNL     1      34.324 -20.005 -20.334  0.00  0.00    +0.061 C 
ATOM      7  C   UNL     1      35.717 -20.146 -20.424  0.00  0.00    -0.005 C 
ATOM      8  C   UNL     1      36.390 -21.360 -19.854  0.00  0.00    +0.049 C 
ATOM      9  C   UNL     1      33.700 -18.854 -20.828  0.00  0.00    +0.060 C 
ATOM     10  C   UNL     1      35.473 -22.564 -19.991  0.00  0.00    +0.099 C 
ATOM     11  C   UNL     1      35.850 -17.974 -21.494  0.00  0.00    +0.010 C 
ATOM     12  C   UNL     1      33.504 -21.067 -19.690  0.00  0.00    +0.250 C 
ATOM     13  C   UNL     1      36.475 -19.117 -20.997  0.00  0.00    +0.054 C 
ENDROOT
BRANCH   5  14
ATOM     14  C   UNL     1      33.859 -16.592 -21.966  0.00  0.00    +0.143 C 
BRANCH  14  16
ATOM     15  O   UNL     1      32.456 -13.866 -21.059  0.00  0.00    -0.353 OA
ATOM     16  C   UNL     1      33.830 -15.495 -20.904  0.00  0.00    +0.091 C 
ATOM     17  C   UNL     1      32.455 -15.121 -20.337  0.00  0.00    +0.147 C 
ATOM     18  C   UNL     1      33.851 -14.047 -21.407  0.00  0.00    +0.147 C 
ENDBRANCH  14  16
BRANCH  14  19
ATOM     19  O   UNL     1      34.610 -16.121 -23.089  0.00  0.00    -0.349 OA
ATOM     20  C   UNL     1      34.126 -16.678 -24.300  0.00  0.00    +0.174 C 
ENDBRANCH  14  19
ENDBRANCH   5  14
BRANCH   4  21
ATOM     21  C   UNL     1      33.419 -23.403 -18.866  0.00  0.00    +0.128 C 
BRANCH  21  24
ATOM     22  O   UNL     1      30.966 -23.216 -17.549  0.00  0.00    -0.270 OA
ATOM     23  N   UNL     1      31.871 -22.985 -15.452  0.00  0.00    -0.284 N 
ATOM     24  C   UNL     1      33.346 -23.231 -17.393  0.00  0.00    +0.085 C 
ATOM     25  C   UNL     1      34.387 -23.146 -16.546  0.00  0.00    +0.142 C 
ATOM     26  C   UNL     1      31.956 -23.145 -16.825  0.00  0.00    +0.250 C 
ATOM     27  C   UNL     1      34.199 -22.978 -15.122  0.00  0.00    +0.047 C 
ATOM     28  C   UNL     1      32.961 -22.902 -14.612  0.00  0.00    +0.031 C 
ATOM     29  C   UNL     1      32.674 -22.729 -13.156  0.00  0.00    +0.047 C 
ATOM     30  H   UNL     1      30.975 -22.927 -15.049  0.00  0.00    +0.155 HD
BRANCH  25  31
ATOM     31  O   UNL     1      35.713 -23.206 -16.909  0.00  0.00    -0.472 OA
ATOM     32  C   UNL     1      36.493 -22.322 -16.123  0.00  0.00    +0.252 C 
ENDBRANCH  25  31
ENDBRANCH  21  24
ENDBRANCH   4  21
TORSDOF 6
ENDMDL
