MODEL 1
REMARK VINA RESULT:     -10.9      0.000      0.000
REMARK  Name = 6918508
REMARK  2 active torsions:
REMARK  status: ('A' for Active; 'I' for Inactive)
REMARK    1  A    between atoms: N_1  and  C_24
REMARK    2  A    between atoms: N_4  and  C_17
REMARK                            x       y       z     vdW  Elec       q    Type
REMARK                         _______ _______ _______ _____ _____    ______ ____
ROOT
ATOM      1  N   UNL     1      34.988 -18.900 -22.655  0.00  0.00    -0.270 N 
ATOM      2  N   UNL     1      34.299 -16.748 -23.284  0.00  0.00    -0.334 NA
ATOM      3  N   UNL     1      34.632 -18.463 -24.930  0.00  0.00    -0.191 NA
ATOM      4  N   UNL     1      33.605 -14.147 -22.657  0.00  0.00    -0.296 N 
ATOM      5  N   UNL     1      33.569 -15.398 -26.593  0.00  0.00    -0.244 NA
ATOM      6  N   UNL     1      33.236 -13.683 -24.947  0.00  0.00    -0.227 NA
ATOM      7  C   UNL     1      34.629 -18.012 -23.653  0.00  0.00    +0.141 C 
ATOM      8  C   UNL     1      33.949 -15.893 -24.265  0.00  0.00    +0.190 C 
ATOM      9  C   UNL     1      33.918 -16.253 -25.611  0.00  0.00    +0.115 C 
ATOM     10  C   UNL     1      34.273 -17.563 -25.868  0.00  0.00    +0.186 C 
ATOM     11  C   UNL     1      33.593 -14.584 -24.008  0.00  0.00    +0.162 C 
ATOM     12  C   UNL     1      33.245 -14.152 -26.203  0.00  0.00    +0.252 C 
ATOM     13  H   UNL     1      35.227 -19.819 -22.913  0.00  0.00    +0.159 HD
ATOM     14  H   UNL     1      34.269 -14.608 -22.096  0.00  0.00    +0.154 HD
ENDROOT
BRANCH   4  17
ATOM     15 CL   UNL     1      31.177  -9.631 -22.748  0.00  0.00    -0.080 Cl
ATOM     16  F   UNL     1      30.631 -10.353 -19.925  0.00  0.00    -0.203 F 
ATOM     17  C   UNL     1      32.852 -13.184 -21.969  0.00  0.00    +0.050 C 
ATOM     18  C   UNL     1      32.433 -12.018 -22.619  0.00  0.00    +0.028 C 
ATOM     19  C   UNL     1      32.513 -13.381 -20.626  0.00  0.00    +0.017 C 
ATOM     20  C   UNL     1      31.685 -11.061 -21.935  0.00  0.00    +0.086 C 
ATOM     21  C   UNL     1      31.764 -12.425 -19.942  0.00  0.00    +0.032 C 
ATOM     22  C   UNL     1      31.350 -11.263 -20.597  0.00  0.00    +0.151 C 
ENDBRANCH   4  17
BRANCH   1  24
ATOM     23  N   UNL     1      34.580 -20.998 -19.683  0.00  0.00    +0.386 N 
ATOM     24  C   UNL     1      35.030 -18.550 -21.248  0.00  0.00    +0.075 C 
ATOM     25  C   UNL     1      33.689 -18.871 -20.584  0.00  0.00    -0.003 C 
ATOM     26  C   UNL     1      36.163 -19.304 -20.550  0.00  0.00    -0.003 C 
ATOM     27  C   UNL     1      33.468 -20.377 -20.415  0.00  0.00    -0.076 C 
ATOM     28  C   UNL     1      35.855 -20.796 -20.384  0.00  0.00    -0.076 C 
ATOM     29  C   UNL     1      34.327 -22.426 -19.483  0.00  0.00    -0.101 C 
ATOM     30  H   UNL     1      34.646 -20.547 -18.771  0.00  0.00    -0.080 HD
ENDBRANCH   1  24
TORSDOF 2
ENDMDL
MODEL 2
REMARK VINA RESULT:      -8.9      1.034      1.374
REMARK  Name = 6918508
REMARK  2 active torsions:
REMARK  status: ('A' for Active; 'I' for Inactive)
REMARK    1  A    between atoms: N_1  and  C_24
REMARK    2  A    between atoms: N_4  and  C_17
REMARK                            x       y       z     vdW  Elec       q    Type
REMARK                         _______ _______ _______ _____ _____    ______ ____
ROOT
ATOM      1  N   UNL     1      34.862 -18.726 -22.632  0.00  0.00    -0.270 N 
ATOM      2  N   UNL     1      34.171 -16.580 -23.277  0.00  0.00    -0.334 NA
ATOM      3  N   UNL     1      34.623 -18.271 -24.919  0.00  0.00    -0.191 NA
ATOM      4  N   UNL     1      33.398 -13.997 -22.664  0.00  0.00    -0.296 N 
ATOM      5  N   UNL     1      33.598 -15.207 -26.608  0.00  0.00    -0.244 NA
ATOM      6  N   UNL     1      33.146 -13.515 -24.966  0.00  0.00    -0.227 NA
ATOM      7  C   UNL     1      34.543 -17.834 -23.640  0.00  0.00    +0.141 C 
ATOM      8  C   UNL     1      33.860 -15.720 -24.267  0.00  0.00    +0.190 C 
ATOM      9  C   UNL     1      33.908 -16.066 -25.617  0.00  0.00    +0.115 C 
ATOM     10  C   UNL     1      34.300 -17.367 -25.867  0.00  0.00    +0.186 C 
ATOM     11  C   UNL     1      33.468 -14.420 -24.018  0.00  0.00    +0.162 C 
ATOM     12  C   UNL     1      33.232 -13.971 -26.224  0.00  0.00    +0.252 C 
ATOM     13  H   UNL     1      35.131 -19.638 -22.886  0.00  0.00    +0.159 HD
ATOM     14  H   UNL     1      34.039 -14.453 -22.072  0.00  0.00    +0.154 HD
ENDROOT
BRANCH   4  17
ATOM     15 CL   UNL     1      31.672 -12.067 -18.237  0.00  0.00    -0.080 Cl
ATOM     16  F   UNL     1      30.213 -10.267 -20.087  0.00  0.00    -0.203 F 
ATOM     17  C   UNL     1      32.593 -13.055 -22.008  0.00  0.00    +0.050 C 
ATOM     18  C   UNL     1      32.534 -13.027 -20.610  0.00  0.00    +0.028 C 
ATOM     19  C   UNL     1      31.841 -12.134 -22.745  0.00  0.00    +0.017 C 
ATOM     20  C   UNL     1      31.734 -12.090 -19.958  0.00  0.00    +0.086 C 
ATOM     21  C   UNL     1      31.041 -11.196 -22.093  0.00  0.00    +0.032 C 
ATOM     22  C   UNL     1      30.987 -11.174 -20.699  0.00  0.00    +0.151 C 
ENDBRANCH   4  17
BRANCH   1  24
ATOM     23  N   UNL     1      34.562 -20.890 -19.695  0.00  0.00    +0.386 N 
ATOM     24  C   UNL     1      34.822 -18.390 -21.222  0.00  0.00    +0.075 C 
ATOM     25  C   UNL     1      33.497 -18.850 -20.608  0.00  0.00    -0.003 C 
ATOM     26  C   UNL     1      35.999 -19.038 -20.491  0.00  0.00    -0.003 C 
ATOM     27  C   UNL     1      33.420 -20.372 -20.460  0.00  0.00    -0.076 C 
ATOM     28  C   UNL     1      35.835 -20.554 -20.349  0.00  0.00    -0.076 C 
ATOM     29  C   UNL     1      34.445 -22.337 -19.516  0.00  0.00    -0.101 C 
ATOM     30  H   UNL     1      34.553 -20.445 -18.777  0.00  0.00    -0.080 HD
ENDBRANCH   1  24
TORSDOF 2
ENDMDL
MODEL 3
REMARK VINA RESULT:      -8.4      7.270     12.350
REMARK  Name = 6918508
REMARK  2 active torsions:
REMARK  status: ('A' for Active; 'I' for Inactive)
REMARK    1  A    between atoms: N_1  and  C_24
REMARK    2  A    between atoms: N_4  and  C_17
REMARK                            x       y       z     vdW  Elec       q    Type
REMARK                         _______ _______ _______ _____ _____    ______ ____
ROOT
ATOM      1  N   UNL     1      32.516  -4.125 -26.281  0.00  0.00    -0.270 N 
ATOM      2  N   UNL     1      32.637  -5.779 -24.623  0.00  0.00    -0.334 NA
ATOM      3  N   UNL     1      31.533  -3.691 -24.198  0.00  0.00    -0.191 NA
ATOM      4  N   UNL     1      33.435  -8.277 -23.748  0.00  0.00    -0.296 N 
ATOM      5  N   UNL     1      31.344  -5.775 -21.213  0.00  0.00    -0.244 NA
ATOM      6  N   UNL     1      32.448  -7.863 -21.638  0.00  0.00    -0.227 NA
ATOM      7  C   UNL     1      32.220  -4.543 -24.997  0.00  0.00    +0.141 C 
ATOM      8  C   UNL     1      32.341  -6.176 -23.371  0.00  0.00    +0.190 C 
ATOM      9  C   UNL     1      31.640  -5.379 -22.467  0.00  0.00    +0.115 C 
ATOM     10  C   UNL     1      31.266  -4.142 -22.956  0.00  0.00    +0.186 C 
ATOM     11  C   UNL     1      32.714  -7.413 -22.882  0.00  0.00    +0.162 C 
ATOM     12  C   UNL     1      31.767  -7.003 -20.867  0.00  0.00    +0.252 C 
ATOM     13  H   UNL     1      32.216  -3.231 -26.562  0.00  0.00    +0.159 HD
ATOM     14  H   UNL     1      33.995  -7.804 -24.405  0.00  0.00    +0.154 HD
ENDROOT
BRANCH   4  17
ATOM     15 CL   UNL     1      31.910 -12.849 -21.994  0.00  0.00    -0.080 Cl
ATOM     16  F   UNL     1      33.710 -13.796 -24.150  0.00  0.00    -0.203 F 
ATOM     17  C   UNL     1      33.502  -9.674 -23.846  0.00  0.00    +0.050 C 
ATOM     18  C   UNL     1      32.761 -10.480 -22.975  0.00  0.00    +0.028 C 
ATOM     19  C   UNL     1      34.310 -10.275 -24.817  0.00  0.00    +0.017 C 
ATOM     20  C   UNL     1      32.827 -11.869 -23.073  0.00  0.00    +0.086 C 
ATOM     21  C   UNL     1      34.377 -11.665 -24.915  0.00  0.00    +0.032 C 
ATOM     22  C   UNL     1      33.635 -12.462 -24.043  0.00  0.00    +0.151 C 
ENDBRANCH   4  17
BRANCH   1  24
ATOM     23  N   UNL     1      34.742  -3.125 -29.010  0.00  0.00    +0.386 N 
ATOM     24  C   UNL     1      33.246  -4.934 -27.239  0.00  0.00    +0.075 C 
ATOM     25  C   UNL     1      32.789  -4.606 -28.663  0.00  0.00    -0.003 C 
ATOM     26  C   UNL     1      34.749  -4.694 -27.095  0.00  0.00    -0.003 C 
ATOM     27  C   UNL     1      33.283  -3.235 -29.133  0.00  0.00    -0.076 C 
ATOM     28  C   UNL     1      35.174  -3.319 -27.619  0.00  0.00    -0.076 C 
ATOM     29  C   UNL     1      35.203  -1.830 -29.513  0.00  0.00    -0.101 C 
ATOM     30  H   UNL     1      35.161  -3.863 -29.575  0.00  0.00    -0.080 HD
ENDBRANCH   1  24
TORSDOF 2
ENDMDL
