MODEL 1
REMARK VINA RESULT:      -5.2      0.000      0.000
REMARK  Name = 5455
REMARK  5 active torsions:
REMARK  status: ('A' for Active; 'I' for Inactive)
REMARK    1  A    between atoms: S_1  and  C_3
REMARK    2  A    between atoms: S_1  and  S_7
REMARK    3  A    between atoms: C_3  and  N_4
REMARK    4  A    between atoms: S_7  and  C_9
REMARK    5  A    between atoms: C_9  and  N_10
REMARK                            x       y       z     vdW  Elec       q    Type
REMARK                         _______ _______ _______ _____ _____    ______ ____
ROOT
ATOM      1  S   UNL     1      35.828 -19.349 -21.072  0.00  0.00    -0.027 S 
ENDROOT
BRANCH   1   3
ATOM      2  S   UNL     1      32.948 -20.006 -20.701  0.00  0.00    -0.027 S 
ATOM      3  C   UNL     1      34.561 -20.342 -20.318  0.00  0.00    +0.121 C 
BRANCH   3   4
ATOM      4  N   UNL     1      34.999 -21.372 -19.462  0.00  0.00    -0.293 N 
ATOM      5  C   UNL     1      36.363 -21.484 -18.936  0.00  0.00    +0.113 C 
ATOM      6  C   UNL     1      34.116 -22.458 -19.027  0.00  0.00    +0.113 C 
ENDBRANCH   3   4
ENDBRANCH   1   3
BRANCH   1   7
ATOM      7  S   UNL     1      34.952 -18.862 -22.875  0.00  0.00    -0.027 S 
BRANCH   7   9
ATOM      8  S   UNL     1      34.752 -16.470 -21.114  0.00  0.00    -0.027 S 
ATOM      9  C   UNL     1      34.677 -17.117 -22.676  0.00  0.00    +0.121 C 
BRANCH   9  10
ATOM     10  N   UNL     1      34.439 -16.381 -23.855  0.00  0.00    -0.293 N 
ATOM     11  C   UNL     1      34.657 -16.948 -25.189  0.00  0.00    +0.113 C 
ATOM     12  C   UNL     1      33.940 -15.003 -23.880  0.00  0.00    +0.113 C 
ENDBRANCH   9  10
ENDBRANCH   7   9
ENDBRANCH   1   7
TORSDOF 5
ENDMDL
MODEL 2
REMARK VINA RESULT:      -5.1      2.165      2.855
REMARK  Name = 5455
REMARK  5 active torsions:
REMARK  status: ('A' for Active; 'I' for Inactive)
REMARK    1  A    between atoms: S_1  and  C_3
REMARK    2  A    between atoms: S_1  and  S_7
REMARK    3  A    between atoms: C_3  and  N_4
REMARK    4  A    between atoms: S_7  and  C_9
REMARK    5  A    between atoms: C_9  and  N_10
REMARK                            x       y       z     vdW  Elec       q    Type
REMARK                         _______ _______ _______ _____ _____    ______ ____
ROOT
ATOM      1  S   UNL     1      34.708 -17.092 -21.405  0.00  0.00    -0.027 S 
ENDROOT
BRANCH   1   3
ATOM      2  S   UNL     1      34.855 -19.071 -23.623  0.00  0.00    -0.027 S 
ATOM      3  C   UNL     1      34.575 -18.767 -21.982  0.00  0.00    +0.121 C 
BRANCH   3   4
ATOM      4  N   UNL     1      34.266 -19.742 -21.013  0.00  0.00    -0.293 N 
ATOM      5  C   UNL     1      35.265 -20.553 -20.310  0.00  0.00    +0.113 C 
ATOM      6  C   UNL     1      32.887 -20.051 -20.626  0.00  0.00    +0.113 C 
ENDBRANCH   3   4
ENDBRANCH   1   3
BRANCH   1   7
ATOM      7  S   UNL     1      34.911 -16.059 -23.179  0.00  0.00    -0.027 S 
BRANCH   7   9
ATOM      8  S   UNL     1      32.674 -14.850 -21.631  0.00  0.00    -0.027 S 
ATOM      9  C   UNL     1      33.597 -14.870 -23.049  0.00  0.00    +0.121 C 
BRANCH   9  10
ATOM     10  N   UNL     1      33.432 -13.996 -24.144  0.00  0.00    -0.293 N 
ATOM     11  C   UNL     1      33.662 -12.553 -24.036  0.00  0.00    +0.113 C 
ATOM     12  C   UNL     1      33.038 -14.426 -25.489  0.00  0.00    +0.113 C 
ENDBRANCH   9  10
ENDBRANCH   7   9
ENDBRANCH   1   7
TORSDOF 5
ENDMDL
MODEL 3
REMARK VINA RESULT:      -5.1      0.764      6.059
REMARK  Name = 5455
REMARK  5 active torsions:
REMARK  status: ('A' for Active; 'I' for Inactive)
REMARK    1  A    between atoms: S_1  and  C_3
REMARK    2  A    between atoms: S_1  and  S_7
REMARK    3  A    between atoms: C_3  and  N_4
REMARK    4  A    between atoms: S_7  and  C_9
REMARK    5  A    between atoms: C_9  and  N_10
REMARK                            x       y       z     vdW  Elec       q    Type
REMARK                         _______ _______ _______ _____ _____    ______ ____
ROOT
ATOM      1  S   UNL     1      34.968 -17.329 -21.207  0.00  0.00    -0.027 S 
ENDROOT
BRANCH   1   3
ATOM      2  S   UNL     1      34.953 -18.438 -23.969  0.00  0.00    -0.027 S 
ATOM      3  C   UNL     1      34.732 -17.103 -22.954  0.00  0.00    +0.121 C 
BRANCH   3   4
ATOM      4  N   UNL     1      34.349 -15.813 -23.373  0.00  0.00    -0.293 N 
ATOM      5  C   UNL     1      34.425 -14.615 -22.531  0.00  0.00    +0.113 C 
ATOM      6  C   UNL     1      33.807 -15.553 -24.710  0.00  0.00    +0.113 C 
ENDBRANCH   3   4
ENDBRANCH   1   3
BRANCH   1   7
ATOM      7  S   UNL     1      35.905 -19.166 -21.152  0.00  0.00    -0.027 S 
BRANCH   7   9
ATOM      8  S   UNL     1      33.029 -19.852 -20.807  0.00  0.00    -0.027 S 
ATOM      9  C   UNL     1      34.644 -20.186 -20.426  0.00  0.00    +0.121 C 
BRANCH   9  10
ATOM     10  N   UNL     1      35.087 -21.234 -19.594  0.00  0.00    -0.293 N 
ATOM     11  C   UNL     1      36.477 -21.342 -19.143  0.00  0.00    +0.113 C 
ATOM     12  C   UNL     1      34.222 -22.301 -19.080  0.00  0.00    +0.113 C 
ENDBRANCH   9  10
ENDBRANCH   7   9
ENDBRANCH   1   7
TORSDOF 5
ENDMDL
MODEL 4
REMARK VINA RESULT:      -5.1      2.170      6.474
REMARK  Name = 5455
REMARK  5 active torsions:
REMARK  status: ('A' for Active; 'I' for Inactive)
REMARK    1  A    between atoms: S_1  and  C_3
REMARK    2  A    between atoms: S_1  and  S_7
REMARK    3  A    between atoms: C_3  and  N_4
REMARK    4  A    between atoms: S_7  and  C_9
REMARK    5  A    between atoms: C_9  and  N_10
REMARK                            x       y       z     vdW  Elec       q    Type
REMARK                         _______ _______ _______ _____ _____    ______ ____
ROOT
ATOM      1  S   UNL     1      34.905 -16.047 -23.184  0.00  0.00    -0.027 S 
ENDROOT
BRANCH   1   3
ATOM      2  S   UNL     1      32.667 -14.813 -21.658  0.00  0.00    -0.027 S 
ATOM      3  C   UNL     1      33.601 -14.845 -23.068  0.00  0.00    +0.121 C 
BRANCH   3   4
ATOM      4  N   UNL     1      33.453 -13.974 -24.166  0.00  0.00    -0.293 N 
ATOM      5  C   UNL     1      33.696 -12.529 -24.111  0.00  0.00    +0.113 C 
ATOM      6  C   UNL     1      33.013 -14.442 -25.483  0.00  0.00    +0.113 C 
ENDBRANCH   3   4
ENDBRANCH   1   3
BRANCH   1   7
ATOM      7  S   UNL     1      34.679 -17.073 -21.409  0.00  0.00    -0.027 S 
BRANCH   7   9
ATOM      8  S   UNL     1      34.854 -19.058 -23.620  0.00  0.00    -0.027 S 
ATOM      9  C   UNL     1      34.568 -18.752 -21.981  0.00  0.00    +0.121 C 
BRANCH   9  10
ATOM     10  N   UNL     1      34.270 -19.727 -21.008  0.00  0.00    -0.293 N 
ATOM     11  C   UNL     1      32.896 -20.040 -20.607  0.00  0.00    +0.113 C 
ATOM     12  C   UNL     1      35.279 -20.535 -20.315  0.00  0.00    +0.113 C 
ENDBRANCH   9  10
ENDBRANCH   7   9
ENDBRANCH   1   7
TORSDOF 5
ENDMDL
MODEL 5
REMARK VINA RESULT:      -5.1      2.187      3.043
REMARK  Name = 5455
REMARK  5 active torsions:
REMARK  status: ('A' for Active; 'I' for Inactive)
REMARK    1  A    between atoms: S_1  and  C_3
REMARK    2  A    between atoms: S_1  and  S_7
REMARK    3  A    between atoms: C_3  and  N_4
REMARK    4  A    between atoms: S_7  and  C_9
REMARK    5  A    between atoms: C_9  and  N_10
REMARK                            x       y       z     vdW  Elec       q    Type
REMARK                         _______ _______ _______ _____ _____    ______ ____
ROOT
ATOM      1  S   UNL     1      34.454 -17.044 -21.417  0.00  0.00    -0.027 S 
ENDROOT
BRANCH   1   3
ATOM      2  S   UNL     1      34.881 -19.008 -23.613  0.00  0.00    -0.027 S 
ATOM      3  C   UNL     1      34.504 -18.726 -21.988  0.00  0.00    +0.121 C 
BRANCH   3   4
ATOM      4  N   UNL     1      34.245 -19.722 -21.026  0.00  0.00    -0.293 N 
ATOM      5  C   UNL     1      32.905 -20.099 -20.567  0.00  0.00    +0.113 C 
ATOM      6  C   UNL     1      35.319 -20.472 -20.368  0.00  0.00    +0.113 C 
ENDBRANCH   3   4
ENDBRANCH   1   3
BRANCH   1   7
ATOM      7  S   UNL     1      34.838 -16.006 -23.158  0.00  0.00    -0.027 S 
BRANCH   7   9
ATOM      8  S   UNL     1      32.642 -14.612 -21.712  0.00  0.00    -0.027 S 
ATOM      9  C   UNL     1      33.564 -14.768 -23.121  0.00  0.00    +0.121 C 
BRANCH   9  10
ATOM     10  N   UNL     1      33.429 -13.973 -24.279  0.00  0.00    -0.293 N 
ATOM     11  C   UNL     1      33.707 -12.534 -24.277  0.00  0.00    +0.113 C 
ATOM     12  C   UNL     1      33.023 -14.488 -25.590  0.00  0.00    +0.113 C 
ENDBRANCH   9  10
ENDBRANCH   7   9
ENDBRANCH   1   7
TORSDOF 5
ENDMDL
MODEL 6
REMARK VINA RESULT:      -4.9      1.571      2.170
REMARK  Name = 5455
REMARK  5 active torsions:
REMARK  status: ('A' for Active; 'I' for Inactive)
REMARK    1  A    between atoms: S_1  and  C_3
REMARK    2  A    between atoms: S_1  and  S_7
REMARK    3  A    between atoms: C_3  and  N_4
REMARK    4  A    between atoms: S_7  and  C_9
REMARK    5  A    between atoms: C_9  and  N_10
REMARK                            x       y       z     vdW  Elec       q    Type
REMARK                         _______ _______ _______ _____ _____    ______ ____
ROOT
ATOM      1  S   UNL     1      34.911 -18.953 -22.458  0.00  0.00    -0.027 S 
ENDROOT
BRANCH   1   3
ATOM      2  S   UNL     1      32.835 -20.023 -20.612  0.00  0.00    -0.027 S 
ATOM      3  C   UNL     1      34.474 -19.881 -21.006  0.00  0.00    +0.121 C 
BRANCH   3   4
ATOM      4  N   UNL     1      35.539 -20.461 -20.289  0.00  0.00    -0.293 N 
ATOM      5  C   UNL     1      36.914 -19.953 -20.299  0.00  0.00    +0.113 C 
ATOM      6  C   UNL     1      35.367 -21.661 -19.466  0.00  0.00    +0.113 C 
ENDBRANCH   3   4
ENDBRANCH   1   3
BRANCH   1   7
ATOM      7  S   UNL     1      34.895 -17.022 -21.734  0.00  0.00    -0.027 S 
BRANCH   7   9
ATOM      8  S   UNL     1      34.667 -16.768 -24.691  0.00  0.00    -0.027 S 
ATOM      9  C   UNL     1      34.356 -16.112 -23.163  0.00  0.00    +0.121 C 
BRANCH   9  10
ATOM     10  N   UNL     1      33.674 -14.903 -22.915  0.00  0.00    -0.293 N 
ATOM     11  C   UNL     1      32.657 -14.778 -21.867  0.00  0.00    +0.113 C 
ATOM     12  C   UNL     1      33.912 -13.657 -23.650  0.00  0.00    +0.113 C 
ENDBRANCH   9  10
ENDBRANCH   7   9
ENDBRANCH   1   7
TORSDOF 5
ENDMDL
MODEL 7
REMARK VINA RESULT:      -4.8      1.570      2.482
REMARK  Name = 5455
REMARK  5 active torsions:
REMARK  status: ('A' for Active; 'I' for Inactive)
REMARK    1  A    between atoms: S_1  and  C_3
REMARK    2  A    between atoms: S_1  and  S_7
REMARK    3  A    between atoms: C_3  and  N_4
REMARK    4  A    between atoms: S_7  and  C_9
REMARK    5  A    between atoms: C_9  and  N_10
REMARK                            x       y       z     vdW  Elec       q    Type
REMARK                         _______ _______ _______ _____ _____    ______ ____
ROOT
ATOM      1  S   UNL     1      34.630 -18.986 -22.517  0.00  0.00    -0.027 S 
ENDROOT
BRANCH   1   3
ATOM      2  S   UNL     1      36.848 -19.591 -20.627  0.00  0.00    -0.027 S 
ATOM      3  C   UNL     1      35.219 -19.783 -21.042  0.00  0.00    +0.121 C 
BRANCH   3   4
ATOM      4  N   UNL     1      34.268 -20.509 -20.299  0.00  0.00    -0.293 N 
ATOM      5  C   UNL     1      34.592 -21.641 -19.425  0.00  0.00    +0.113 C 
ATOM      6  C   UNL     1      32.835 -20.203 -20.351  0.00  0.00    +0.113 C 
ENDBRANCH   3   4
ENDBRANCH   1   3
BRANCH   1   7
ATOM      7  S   UNL     1      34.861 -16.995 -22.030  0.00  0.00    -0.027 S 
BRANCH   7   9
ATOM      8  S   UNL     1      34.685 -16.869 -24.999  0.00  0.00    -0.027 S 
ATOM      9  C   UNL     1      34.267 -16.198 -23.503  0.00  0.00    +0.121 C 
BRANCH   9  10
ATOM     10  N   UNL     1      33.454 -15.061 -23.316  0.00  0.00    -0.293 N 
ATOM     11  C   UNL     1      33.171 -14.114 -24.398  0.00  0.00    +0.113 C 
ATOM     12  C   UNL     1      32.799 -14.714 -22.051  0.00  0.00    +0.113 C 
ENDBRANCH   9  10
ENDBRANCH   7   9
ENDBRANCH   1   7
TORSDOF 5
ENDMDL
MODEL 8
REMARK VINA RESULT:      -4.8      1.682      5.990
REMARK  Name = 5455
REMARK  5 active torsions:
REMARK  status: ('A' for Active; 'I' for Inactive)
REMARK    1  A    between atoms: S_1  and  C_3
REMARK    2  A    between atoms: S_1  and  S_7
REMARK    3  A    between atoms: C_3  and  N_4
REMARK    4  A    between atoms: S_7  and  C_9
REMARK    5  A    between atoms: C_9  and  N_10
REMARK                            x       y       z     vdW  Elec       q    Type
REMARK                         _______ _______ _______ _____ _____    ______ ____
ROOT
ATOM      1  S   UNL     1      34.914 -17.179 -21.524  0.00  0.00    -0.027 S 
ENDROOT
BRANCH   1   3
ATOM      2  S   UNL     1      34.721 -16.835 -24.475  0.00  0.00    -0.027 S 
ATOM      3  C   UNL     1      34.382 -16.232 -22.931  0.00  0.00    +0.121 C 
BRANCH   3   4
ATOM      4  N   UNL     1      33.684 -15.040 -22.656  0.00  0.00    -0.293 N 
ATOM      5  C   UNL     1      32.603 -14.925 -21.672  0.00  0.00    +0.113 C 
ATOM      6  C   UNL     1      33.969 -13.785 -23.359  0.00  0.00    +0.113 C 
ENDBRANCH   3   4
ENDBRANCH   1   3
BRANCH   1   7
ATOM      7  S   UNL     1      34.906 -19.095 -22.290  0.00  0.00    -0.027 S 
BRANCH   7   9
ATOM      8  S   UNL     1      36.593 -20.321 -20.166  0.00  0.00    -0.027 S 
ATOM      9  C   UNL     1      35.049 -20.069 -20.811  0.00  0.00    +0.121 C 
BRANCH   9  10
ATOM     10  N   UNL     1      33.844 -20.547 -20.256  0.00  0.00    -0.293 N 
ATOM     11  C   UNL     1      32.553 -19.903 -20.516  0.00  0.00    +0.113 C 
ATOM     12  C   UNL     1      33.745 -21.726 -19.391  0.00  0.00    +0.113 C 
ENDBRANCH   9  10
ENDBRANCH   7   9
ENDBRANCH   1   7
TORSDOF 5
ENDMDL
MODEL 9
REMARK VINA RESULT:      -4.7      3.651      5.220
REMARK  Name = 5455
REMARK  5 active torsions:
REMARK  status: ('A' for Active; 'I' for Inactive)
REMARK    1  A    between atoms: S_1  and  C_3
REMARK    2  A    between atoms: S_1  and  S_7
REMARK    3  A    between atoms: C_3  and  N_4
REMARK    4  A    between atoms: S_7  and  C_9
REMARK    5  A    between atoms: C_9  and  N_10
REMARK                            x       y       z     vdW  Elec       q    Type
REMARK                         _______ _______ _______ _____ _____    ______ ____
ROOT
ATOM      1  S   UNL     1      34.454 -15.022 -22.719  0.00  0.00    -0.027 S 
ENDROOT
BRANCH   1   3
ATOM      2  S   UNL     1      34.610 -16.769 -25.124  0.00  0.00    -0.027 S 
ATOM      3  C   UNL     1      34.653 -16.635 -23.438  0.00  0.00    +0.121 C 
BRANCH   3   4
ATOM      4  N   UNL     1      34.860 -17.700 -22.539  0.00  0.00    -0.293 N 
ATOM      5  C   UNL     1      34.779 -19.117 -22.906  0.00  0.00    +0.113 C 
ATOM      6  C   UNL     1      35.163 -17.481 -21.122  0.00  0.00    +0.113 C 
ENDBRANCH   3   4
ENDBRANCH   1   3
BRANCH   1   7
ATOM      7  S   UNL     1      33.392 -14.042 -24.192  0.00  0.00    -0.027 S 
BRANCH   7   9
ATOM      8  S   UNL     1      32.053 -12.637 -21.935  0.00  0.00    -0.027 S 
ATOM      9  C   UNL     1      32.950 -12.532 -23.365  0.00  0.00    +0.121 C 
BRANCH   9  10
ATOM     10  N   UNL     1      33.409 -11.337 -23.956  0.00  0.00    -0.293 N 
ATOM     11  C   UNL     1      33.061 -10.017 -23.424  0.00  0.00    +0.113 C 
ATOM     12  C   UNL     1      34.283 -11.281 -25.132  0.00  0.00    +0.113 C 
ENDBRANCH   9  10
ENDBRANCH   7   9
ENDBRANCH   1   7
TORSDOF 5
ENDMDL
