MODEL 1
REMARK VINA RESULT:      -6.9      0.000      0.000
REMARK  Name = 219105
REMARK  4 active torsions:
REMARK  status: ('A' for Active; 'I' for Inactive)
REMARK    1  A    between atoms: C_1  and  C_9
REMARK    2  A    between atoms: C_4  and  O_7
REMARK    3  A    between atoms: C_9  and  C_10
REMARK    4  A    between atoms: C_10  and  N_12
REMARK                            x       y       z     vdW  Elec       q    Type
REMARK                         _______ _______ _______ _____ _____    ______ ____
ROOT
ATOM      1  C   UNL     1      34.482 -19.880 -20.789  0.00  0.00    -0.021 C 
ATOM      2  C   UNL     1      33.402 -20.519 -20.201  0.00  0.00    +0.032 C 
ATOM      3  C   UNL     1      35.783 -20.286 -20.538  0.00  0.00    -0.004 C 
ATOM      4  C   UNL     1      33.628 -21.593 -19.341  0.00  0.00    +0.133 C 
ATOM      5  C   UNL     1      36.009 -21.360 -19.677  0.00  0.00    +0.003 C 
ATOM      6  C   UNL     1      34.932 -22.014 -19.079  0.00  0.00    +0.037 C 
ENDROOT
BRANCH   4   7
ATOM      7  O   UNL     1      32.578 -22.231 -18.757  0.00  0.00    -0.506 OA
ATOM      8  H   UNL     1      31.718 -21.862 -18.811  0.00  0.00    +0.292 HD
ENDBRANCH   4   7
BRANCH   1   9
ATOM      9  C   UNL     1      34.237 -18.718 -21.721  0.00  0.00    +0.005 C 
BRANCH   9  10
ATOM     10  C   UNL     1      35.302 -17.611 -21.619  0.00  0.00    -0.061 C 
ATOM     11  C   UNL     1      34.766 -16.340 -20.962  0.00  0.00    -0.024 C 
BRANCH  10  12
ATOM     12  N   UNL     1      35.781 -17.269 -22.962  0.00  0.00    +0.382 N 
ATOM     13  H   UNL     1      36.419 -17.994 -23.291  0.00  0.00    -0.089 HD
ATOM     14  H   UNL     1      36.270 -16.375 -22.931  0.00  0.00    -0.089 HD
ATOM     15  H   UNL     1      34.987 -17.200 -23.599  0.00  0.00    -0.089 HD
ENDBRANCH  10  12
ENDBRANCH   9  10
ENDBRANCH   1   9
TORSDOF 4
ENDMDL
MODEL 2
REMARK VINA RESULT:      -6.9      1.435      2.313
REMARK  Name = 219105
REMARK  4 active torsions:
REMARK  status: ('A' for Active; 'I' for Inactive)
REMARK    1  A    between atoms: C_1  and  C_9
REMARK    2  A    between atoms: C_4  and  O_7
REMARK    3  A    between atoms: C_9  and  C_10
REMARK    4  A    between atoms: C_10  and  N_12
REMARK                            x       y       z     vdW  Elec       q    Type
REMARK                         _______ _______ _______ _____ _____    ______ ____
ROOT
ATOM      1  C   UNL     1      34.954 -19.574 -21.071  0.00  0.00    -0.021 C 
ATOM      2  C   UNL     1      35.614 -20.549 -20.339  0.00  0.00    +0.032 C 
ATOM      3  C   UNL     1      33.573 -19.458 -21.034  0.00  0.00    -0.004 C 
ATOM      4  C   UNL     1      34.875 -21.429 -19.551  0.00  0.00    +0.133 C 
ATOM      5  C   UNL     1      32.834 -20.338 -20.245  0.00  0.00    +0.003 C 
ATOM      6  C   UNL     1      33.485 -21.324 -19.503  0.00  0.00    +0.037 C 
ENDROOT
BRANCH   4   7
ATOM      7  O   UNL     1      35.509 -22.391 -18.826  0.00  0.00    -0.506 OA
ATOM      8  H   UNL     1      35.424 -23.292 -19.069  0.00  0.00    +0.292 HD
ENDBRANCH   4   7
BRANCH   1   9
ATOM      9  C   UNL     1      35.754 -18.620 -21.925  0.00  0.00    +0.005 C 
BRANCH   9  10
ATOM     10  C   UNL     1      34.949 -18.009 -23.087  0.00  0.00    -0.061 C 
ATOM     11  C   UNL     1      34.852 -18.947 -24.289  0.00  0.00    -0.024 C 
BRANCH  10  12
ATOM     12  N   UNL     1      35.589 -16.764 -23.522  0.00  0.00    +0.382 N 
ATOM     13  H   UNL     1      36.581 -16.791 -23.286  0.00  0.00    -0.089 HD
ATOM     14  H   UNL     1      35.148 -15.974 -23.053  0.00  0.00    -0.089 HD
ATOM     15  H   UNL     1      35.483 -16.662 -24.532  0.00  0.00    -0.089 HD
ENDBRANCH  10  12
ENDBRANCH   9  10
ENDBRANCH   1   9
TORSDOF 4
ENDMDL
MODEL 3
REMARK VINA RESULT:      -6.2      3.681      5.448
REMARK  Name = 219105
REMARK  4 active torsions:
REMARK  status: ('A' for Active; 'I' for Inactive)
REMARK    1  A    between atoms: C_1  and  C_9
REMARK    2  A    between atoms: C_4  and  O_7
REMARK    3  A    between atoms: C_9  and  C_10
REMARK    4  A    between atoms: C_10  and  N_12
REMARK                            x       y       z     vdW  Elec       q    Type
REMARK                         _______ _______ _______ _____ _____    ______ ____
ROOT
ATOM      1  C   UNL     1      35.188 -17.973 -22.628  0.00  0.00    -0.021 C 
ATOM      2  C   UNL     1      34.913 -16.616 -22.691  0.00  0.00    +0.032 C 
ATOM      3  C   UNL     1      35.052 -18.787 -23.741  0.00  0.00    -0.004 C 
ATOM      4  C   UNL     1      34.490 -16.060 -23.897  0.00  0.00    +0.133 C 
ATOM      5  C   UNL     1      34.630 -18.230 -24.948  0.00  0.00    +0.003 C 
ATOM      6  C   UNL     1      34.349 -16.866 -25.026  0.00  0.00    +0.037 C 
ENDROOT
BRANCH   4   7
ATOM      7  O   UNL     1      34.216 -14.729 -23.974  0.00  0.00    -0.506 OA
ATOM      8  H   UNL     1      34.901 -14.120 -24.169  0.00  0.00    +0.292 HD
ENDBRANCH   4   7
BRANCH   1   9
ATOM      9  C   UNL     1      35.647 -18.576 -21.322  0.00  0.00    +0.005 C 
BRANCH   9  10
ATOM     10  C   UNL     1      35.005 -19.941 -21.015  0.00  0.00    -0.061 C 
ATOM     11  C   UNL     1      33.517 -19.828 -20.688  0.00  0.00    -0.024 C 
BRANCH  10  12
ATOM     12  N   UNL     1      35.684 -20.553 -19.869  0.00  0.00    +0.382 N 
ATOM     13  H   UNL     1      35.049 -21.201 -19.402  0.00  0.00    -0.089 HD
ATOM     14  H   UNL     1      35.969 -19.825 -19.214  0.00  0.00    -0.089 HD
ATOM     15  H   UNL     1      36.509 -21.060 -20.192  0.00  0.00    -0.089 HD
ENDBRANCH  10  12
ENDBRANCH   9  10
ENDBRANCH   1   9
TORSDOF 4
ENDMDL
MODEL 4
REMARK VINA RESULT:      -6.2      3.198      5.102
REMARK  Name = 219105
REMARK  4 active torsions:
REMARK  status: ('A' for Active; 'I' for Inactive)
REMARK    1  A    between atoms: C_1  and  C_9
REMARK    2  A    between atoms: C_4  and  O_7
REMARK    3  A    between atoms: C_9  and  C_10
REMARK    4  A    between atoms: C_10  and  N_12
REMARK                            x       y       z     vdW  Elec       q    Type
REMARK                         _______ _______ _______ _____ _____    ______ ____
ROOT
ATOM      1  C   UNL     1      34.888 -18.852 -22.080  0.00  0.00    -0.021 C 
ATOM      2  C   UNL     1      34.779 -18.891 -23.461  0.00  0.00    +0.032 C 
ATOM      3  C   UNL     1      34.941 -17.648 -21.396  0.00  0.00    -0.004 C 
ATOM      4  C   UNL     1      34.723 -17.695 -24.176  0.00  0.00    +0.133 C 
ATOM      5  C   UNL     1      34.885 -16.452 -22.111  0.00  0.00    +0.003 C 
ATOM      6  C   UNL     1      34.776 -16.476 -23.502  0.00  0.00    +0.037 C 
ENDROOT
BRANCH   4   7
ATOM      7  O   UNL     1      34.616 -17.718 -25.533  0.00  0.00    -0.506 OA
ATOM      8  H   UNL     1      34.651 -16.917 -26.018  0.00  0.00    +0.292 HD
ENDBRANCH   4   7
BRANCH   1   9
ATOM      9  C   UNL     1      34.948 -20.146 -21.305  0.00  0.00    +0.005 C 
BRANCH   9  10
ATOM     10  C   UNL     1      33.827 -20.291 -20.260  0.00  0.00    -0.061 C 
ATOM     11  C   UNL     1      33.939 -21.586 -19.457  0.00  0.00    -0.024 C 
BRANCH  10  12
ATOM     12  N   UNL     1      32.526 -20.278 -20.934  0.00  0.00    +0.382 N 
ATOM     13  H   UNL     1      31.800 -20.574 -20.281  0.00  0.00    -0.089 HD
ATOM     14  H   UNL     1      32.549 -20.916 -21.729  0.00  0.00    -0.089 HD
ATOM     15  H   UNL     1      32.322 -19.334 -21.263  0.00  0.00    -0.089 HD
ENDBRANCH  10  12
ENDBRANCH   9  10
ENDBRANCH   1   9
TORSDOF 4
ENDMDL
MODEL 5
REMARK VINA RESULT:      -6.1      3.565      5.766
REMARK  Name = 219105
REMARK  4 active torsions:
REMARK  status: ('A' for Active; 'I' for Inactive)
REMARK    1  A    between atoms: C_1  and  C_9
REMARK    2  A    between atoms: C_4  and  O_7
REMARK    3  A    between atoms: C_9  and  C_10
REMARK    4  A    between atoms: C_10  and  N_12
REMARK                            x       y       z     vdW  Elec       q    Type
REMARK                         _______ _______ _______ _____ _____    ______ ____
ROOT
ATOM      1  C   UNL     1      34.729 -16.794 -22.235  0.00  0.00    -0.021 C 
ATOM      2  C   UNL     1      35.008 -17.220 -23.524  0.00  0.00    +0.032 C 
ATOM      3  C   UNL     1      33.980 -15.652 -22.000  0.00  0.00    -0.004 C 
ATOM      4  C   UNL     1      34.525 -16.485 -24.606  0.00  0.00    +0.133 C 
ATOM      5  C   UNL     1      33.497 -14.917 -23.083  0.00  0.00    +0.003 C 
ATOM      6  C   UNL     1      33.770 -15.334 -24.386  0.00  0.00    +0.037 C 
ENDROOT
BRANCH   4   7
ATOM      7  O   UNL     1      34.791 -16.891 -25.877  0.00  0.00    -0.506 OA
ATOM      8  H   UNL     1      34.404 -16.441 -26.603  0.00  0.00    +0.292 HD
ENDBRANCH   4   7
BRANCH   1   9
ATOM      9  C   UNL     1      35.251 -17.590 -21.063  0.00  0.00    +0.005 C 
BRANCH   9  10
ATOM     10  C   UNL     1      35.097 -19.112 -21.234  0.00  0.00    -0.061 C 
ATOM     11  C   UNL     1      33.676 -19.594 -20.941  0.00  0.00    -0.024 C 
BRANCH  10  12
ATOM     12  N   UNL     1      36.015 -19.802 -20.323  0.00  0.00    +0.382 N 
ATOM     13  H   UNL     1      36.558 -20.490 -20.844  0.00  0.00    -0.089 HD
ATOM     14  H   UNL     1      35.480 -20.272 -19.593  0.00  0.00    -0.089 HD
ATOM     15  H   UNL     1      36.646 -19.122 -19.897  0.00  0.00    -0.089 HD
ENDBRANCH  10  12
ENDBRANCH   9  10
ENDBRANCH   1   9
TORSDOF 4
ENDMDL
MODEL 6
REMARK VINA RESULT:      -6.1      3.115      4.740
REMARK  Name = 219105
REMARK  4 active torsions:
REMARK  status: ('A' for Active; 'I' for Inactive)
REMARK    1  A    between atoms: C_1  and  C_9
REMARK    2  A    between atoms: C_4  and  O_7
REMARK    3  A    between atoms: C_9  and  C_10
REMARK    4  A    between atoms: C_10  and  N_12
REMARK                            x       y       z     vdW  Elec       q    Type
REMARK                         _______ _______ _______ _____ _____    ______ ____
ROOT
ATOM      1  C   UNL     1      33.962 -19.130 -21.565  0.00  0.00    -0.021 C 
ATOM      2  C   UNL     1      34.067 -17.930 -20.879  0.00  0.00    +0.032 C 
ATOM      3  C   UNL     1      34.617 -19.331 -22.770  0.00  0.00    -0.004 C 
ATOM      4  C   UNL     1      34.848 -16.906 -21.411  0.00  0.00    +0.133 C 
ATOM      5  C   UNL     1      35.399 -18.305 -23.302  0.00  0.00    +0.003 C 
ATOM      6  C   UNL     1      35.514 -17.092 -22.622  0.00  0.00    +0.037 C 
ENDROOT
BRANCH   4   7
ATOM      7  O   UNL     1      34.961 -15.722 -20.749  0.00  0.00    -0.506 OA
ATOM      8  H   UNL     1      35.787 -15.465 -20.387  0.00  0.00    +0.292 HD
ENDBRANCH   4   7
BRANCH   1   9
ATOM      9  C   UNL     1      33.116 -20.241 -20.989  0.00  0.00    +0.005 C 
BRANCH   9  10
ATOM     10  C   UNL     1      33.683 -20.833 -19.686  0.00  0.00    -0.061 C 
ATOM     11  C   UNL     1      35.131 -21.298 -19.835  0.00  0.00    -0.024 C 
BRANCH  10  12
ATOM     12  N   UNL     1      32.869 -21.982 -19.278  0.00  0.00    +0.382 N 
ATOM     13  H   UNL     1      31.972 -21.654 -18.920  0.00  0.00    -0.089 HD
ATOM     14  H   UNL     1      33.356 -22.503 -18.549  0.00  0.00    -0.089 HD
ATOM     15  H   UNL     1      32.711 -22.590 -20.082  0.00  0.00    -0.089 HD
ENDBRANCH  10  12
ENDBRANCH   9  10
ENDBRANCH   1   9
TORSDOF 4
ENDMDL
MODEL 7
REMARK VINA RESULT:      -5.9      3.379      5.187
REMARK  Name = 219105
REMARK  4 active torsions:
REMARK  status: ('A' for Active; 'I' for Inactive)
REMARK    1  A    between atoms: C_1  and  C_9
REMARK    2  A    between atoms: C_4  and  O_7
REMARK    3  A    between atoms: C_9  and  C_10
REMARK    4  A    between atoms: C_10  and  N_12
REMARK                            x       y       z     vdW  Elec       q    Type
REMARK                         _______ _______ _______ _____ _____    ______ ____
ROOT
ATOM      1  C   UNL     1      34.162 -21.453 -19.723  0.00  0.00    -0.021 C 
ATOM      2  C   UNL     1      35.464 -21.013 -19.900  0.00  0.00    +0.032 C 
ATOM      3  C   UNL     1      33.085 -20.722 -20.198  0.00  0.00    -0.004 C 
ATOM      4  C   UNL     1      35.695 -19.812 -20.568  0.00  0.00    +0.133 C 
ATOM      5  C   UNL     1      33.315 -19.520 -20.867  0.00  0.00    +0.003 C 
ATOM      6  C   UNL     1      34.621 -19.065 -21.052  0.00  0.00    +0.037 C 
ENDROOT
BRANCH   4   7
ATOM      7  O   UNL     1      36.968 -19.367 -20.749  0.00  0.00    -0.506 OA
ATOM      8  H   UNL     1      37.565 -19.859 -21.277  0.00  0.00    +0.292 HD
ENDBRANCH   4   7
BRANCH   1   9
ATOM      9  C   UNL     1      33.912 -22.755 -19.000  0.00  0.00    +0.005 C 
BRANCH   9  10
ATOM     10  C   UNL     1      33.362 -22.571 -17.573  0.00  0.00    -0.061 C 
ATOM     11  C   UNL     1      34.078 -23.454 -16.552  0.00  0.00    -0.024 C 
BRANCH  10  12
ATOM     12  N   UNL     1      31.935 -22.906 -17.553  0.00  0.00    +0.382 N 
ATOM     13  H   UNL     1      31.658 -23.269 -18.465  0.00  0.00    -0.089 HD
ATOM     14  H   UNL     1      31.393 -22.069 -17.341  0.00  0.00    -0.089 HD
ATOM     15  H   UNL     1      31.762 -23.613 -16.839  0.00  0.00    -0.089 HD
ENDBRANCH  10  12
ENDBRANCH   9  10
ENDBRANCH   1   9
TORSDOF 4
ENDMDL
MODEL 8
REMARK VINA RESULT:      -5.9      3.855      6.375
REMARK  Name = 219105
REMARK  4 active torsions:
REMARK  status: ('A' for Active; 'I' for Inactive)
REMARK    1  A    between atoms: C_1  and  C_9
REMARK    2  A    between atoms: C_4  and  O_7
REMARK    3  A    between atoms: C_9  and  C_10
REMARK    4  A    between atoms: C_10  and  N_12
REMARK                            x       y       z     vdW  Elec       q    Type
REMARK                         _______ _______ _______ _____ _____    ______ ____
ROOT
ATOM      1  C   UNL     1      34.160 -15.686 -21.489  0.00  0.00    -0.021 C 
ATOM      2  C   UNL     1      34.542 -14.897 -22.562  0.00  0.00    +0.032 C 
ATOM      3  C   UNL     1      33.053 -15.366 -20.718  0.00  0.00    -0.004 C 
ATOM      4  C   UNL     1      33.799 -13.759 -22.873  0.00  0.00    +0.133 C 
ATOM      5  C   UNL     1      32.310 -14.227 -21.029  0.00  0.00    +0.003 C 
ATOM      6  C   UNL     1      32.683 -13.424 -22.107  0.00  0.00    +0.037 C 
ENDROOT
BRANCH   4   7
ATOM      7  O   UNL     1      34.163 -12.975 -23.924  0.00  0.00    -0.506 OA
ATOM      8  H   UNL     1      33.505 -12.580 -24.462  0.00  0.00    +0.292 HD
ENDBRANCH   4   7
BRANCH   1   9
ATOM      9  C   UNL     1      34.963 -16.919 -21.152  0.00  0.00    +0.005 C 
BRANCH   9  10
ATOM     10  C   UNL     1      34.929 -17.996 -22.252  0.00  0.00    -0.061 C 
ATOM     11  C   UNL     1      34.490 -19.360 -21.722  0.00  0.00    -0.024 C 
BRANCH  10  12
ATOM     12  N   UNL     1      36.265 -18.137 -22.838  0.00  0.00    +0.382 N 
ATOM     13  H   UNL     1      36.408 -17.410 -23.540  0.00  0.00    -0.089 HD
ATOM     14  H   UNL     1      36.349 -19.054 -23.277  0.00  0.00    -0.089 HD
ATOM     15  H   UNL     1      36.970 -18.046 -22.106  0.00  0.00    -0.089 HD
ENDBRANCH  10  12
ENDBRANCH   9  10
ENDBRANCH   1   9
TORSDOF 4
ENDMDL
MODEL 9
REMARK VINA RESULT:      -5.8      3.683      5.049
REMARK  Name = 219105
REMARK  4 active torsions:
REMARK  status: ('A' for Active; 'I' for Inactive)
REMARK    1  A    between atoms: C_1  and  C_9
REMARK    2  A    between atoms: C_4  and  O_7
REMARK    3  A    between atoms: C_9  and  C_10
REMARK    4  A    between atoms: C_10  and  N_12
REMARK                            x       y       z     vdW  Elec       q    Type
REMARK                         _______ _______ _______ _____ _____    ______ ____
ROOT
ATOM      1  C   UNL     1      34.633 -15.719 -22.606  0.00  0.00    -0.021 C 
ATOM      2  C   UNL     1      34.966 -16.495 -21.507  0.00  0.00    +0.032 C 
ATOM      3  C   UNL     1      34.651 -16.243 -23.889  0.00  0.00    -0.004 C 
ATOM      4  C   UNL     1      35.326 -17.829 -21.696  0.00  0.00    +0.133 C 
ATOM      5  C   UNL     1      35.011 -17.577 -24.078  0.00  0.00    +0.003 C 
ATOM      6  C   UNL     1      35.348 -18.370 -22.981  0.00  0.00    +0.037 C 
ENDROOT
BRANCH   4   7
ATOM      7  O   UNL     1      35.655 -18.603 -20.627  0.00  0.00    -0.506 OA
ATOM      8  H   UNL     1      36.449 -19.100 -20.636  0.00  0.00    +0.292 HD
ENDBRANCH   4   7
BRANCH   1   9
ATOM      9  C   UNL     1      34.243 -14.275 -22.402  0.00  0.00    +0.005 C 
BRANCH   9  10
ATOM     10  C   UNL     1      33.203 -13.768 -23.418  0.00  0.00    -0.061 C 
ATOM     11  C   UNL     1      33.733 -12.620 -24.276  0.00  0.00    -0.024 C 
BRANCH  10  12
ATOM     12  N   UNL     1      32.012 -13.299 -22.704  0.00  0.00    +0.382 N 
ATOM     13  H   UNL     1      31.603 -12.510 -23.206  0.00  0.00    -0.089 HD
ATOM     14  H   UNL     1      32.273 -13.006 -21.763  0.00  0.00    -0.089 HD
ATOM     15  H   UNL     1      31.329 -14.056 -22.647  0.00  0.00    -0.089 HD
ENDBRANCH  10  12
ENDBRANCH   9  10
ENDBRANCH   1   9
TORSDOF 4
ENDMDL
