MODEL 1
REMARK VINA RESULT:      -8.8      0.000      0.000
REMARK  Name = 449698
REMARK  8 active torsions:
REMARK  status: ('A' for Active; 'I' for Inactive)
REMARK    1  A    between atoms: N_1  and  C_23
REMARK    2  A    between atoms: C_2  and  N_9
REMARK    3  A    between atoms: C_2  and  C_20
REMARK    4  A    between atoms: N_9  and  C_11
REMARK    5  A    between atoms: C_10  and  C_17
REMARK    6  A    between atoms: C_20  and  O_21
REMARK    7  A    between atoms: C_23  and  C_24
REMARK    8  A    between atoms: C_24  and  C_25
REMARK                            x       y       z     vdW  Elec       q    Type
REMARK                         _______ _______ _______ _____ _____    ______ ____
ROOT
ATOM      1  N   UNL     1      36.190 -21.762 -17.400  0.00  0.00    +0.387 N 
ATOM      2  C   UNL     1      35.565 -23.571 -15.171  0.00  0.00    +0.149 C 
ATOM      3  C   UNL     1      34.546 -23.218 -16.257  0.00  0.00    +0.007 C 
ATOM      4  C   UNL     1      36.658 -22.502 -15.083  0.00  0.00    +0.007 C 
ATOM      5  C   UNL     1      35.215 -22.845 -17.584  0.00  0.00    -0.075 C 
ATOM      6  C   UNL     1      37.244 -22.157 -16.456  0.00  0.00    -0.075 C 
ATOM      7  H   UNL     1      35.700 -20.959 -17.008  0.00  0.00    -0.080 HD
ENDROOT
BRANCH   2   9
ATOM      8  O   UNL     1      36.851 -23.713 -12.527  0.00  0.00    -0.275 OA
ATOM      9  N   UNL     1      34.915 -23.746 -13.893  0.00  0.00    -0.252 N 
ATOM     10  C   UNL     1      35.627 -23.803 -12.659  0.00  0.00    +0.230 C 
BRANCH   9  11
ATOM     11  C   UNL     1      33.459 -23.871 -13.864  0.00  0.00    +0.054 C 
ATOM     12  C   UNL     1      32.660 -22.734 -13.986  0.00  0.00    +0.015 C 
ATOM     13  C   UNL     1      32.869 -25.126 -13.716  0.00  0.00    +0.015 C 
ATOM     14  C   UNL     1      31.270 -22.853 -13.958  0.00  0.00    +0.001 C 
ATOM     15  C   UNL     1      31.480 -25.245 -13.688  0.00  0.00    +0.001 C 
ATOM     16  C   UNL     1      30.681 -24.108 -13.809  0.00  0.00    +0.000 C 
ENDBRANCH   9  11
BRANCH  10  17
ATOM     17  C   UNL     1      34.761 -24.040 -11.424  0.00  0.00    +0.086 C 
ATOM     18  C   UNL     1      35.571 -24.460 -10.208  0.00  0.00    +0.010 C 
ENDBRANCH  10  17
ENDBRANCH   2   9
BRANCH   2  20
ATOM     19  O   UNL     1      35.511 -25.915 -15.741  0.00  0.00    -0.248 OA
ATOM     20  C   UNL     1      36.160 -24.933 -15.409  0.00  0.00    +0.333 C 
BRANCH  20  21
ATOM     21  O   UNL     1      37.506 -24.885 -15.196  0.00  0.00    -0.443 OA
ATOM     22  C   UNL     1      38.098 -26.103 -14.732  0.00  0.00    +0.256 C 
ENDBRANCH  20  21
ENDBRANCH   2  20
BRANCH   1  23
ATOM     23  C   UNL     1      36.773 -21.376 -18.684  0.00  0.00    -0.073 C 
BRANCH  23  24
ATOM     24  C   UNL     1      35.864 -21.783 -19.844  0.00  0.00    +0.004 C 
BRANCH  24  25
ATOM     25  C   UNL     1      35.014 -20.630 -20.313  0.00  0.00    -0.024 C 
ATOM     26  C   UNL     1      33.627 -20.686 -20.178  0.00  0.00    -0.004 C 
ATOM     27  C   UNL     1      35.615 -19.506 -20.881  0.00  0.00    -0.004 C 
ATOM     28  C   UNL     1      32.840 -19.618 -20.613  0.00  0.00    -0.000 C 
ATOM     29  C   UNL     1      34.828 -18.439 -21.314  0.00  0.00    -0.000 C 
ATOM     30  C   UNL     1      33.441 -18.495 -21.181  0.00  0.00    -0.000 C 
ENDBRANCH  24  25
ENDBRANCH  23  24
ENDBRANCH   1  23
TORSDOF 8
ENDMDL
MODEL 2
REMARK VINA RESULT:      -7.5      7.790     13.257
REMARK  Name = 449698
REMARK  8 active torsions:
REMARK  status: ('A' for Active; 'I' for Inactive)
REMARK    1  A    between atoms: N_1  and  C_23
REMARK    2  A    between atoms: C_2  and  N_9
REMARK    3  A    between atoms: C_2  and  C_20
REMARK    4  A    between atoms: N_9  and  C_11
REMARK    5  A    between atoms: C_10  and  C_17
REMARK    6  A    between atoms: C_20  and  O_21
REMARK    7  A    between atoms: C_23  and  C_24
REMARK    8  A    between atoms: C_24  and  C_25
REMARK                            x       y       z     vdW  Elec       q    Type
REMARK                         _______ _______ _______ _____ _____    ______ ____
ROOT
ATOM      1  N   UNL     1      34.169 -15.348 -20.984  0.00  0.00    +0.387 N 
ATOM      2  C   UNL     1      33.156 -13.403 -22.939  0.00  0.00    +0.149 C 
ATOM      3  C   UNL     1      34.647 -13.707 -22.775  0.00  0.00    +0.007 C 
ATOM      4  C   UNL     1      32.383 -13.777 -21.670  0.00  0.00    +0.007 C 
ATOM      5  C   UNL     1      34.897 -15.120 -22.238  0.00  0.00    -0.075 C 
ATOM      6  C   UNL     1      32.722 -15.186 -21.178  0.00  0.00    -0.075 C 
ATOM      7  H   UNL     1      34.477 -14.649 -20.308  0.00  0.00    -0.080 HD
ENDROOT
BRANCH   2   9
ATOM      8  O   UNL     1      31.107 -11.596 -21.843  0.00  0.00    -0.275 OA
ATOM      9  N   UNL     1      32.948 -12.014 -23.276  0.00  0.00    -0.252 N 
ATOM     10  C   UNL     1      31.923 -11.216 -22.688  0.00  0.00    +0.230 C 
BRANCH   9  11
ATOM     11  C   UNL     1      33.830 -11.399 -24.266  0.00  0.00    +0.054 C 
ATOM     12  C   UNL     1      33.909 -11.931 -25.553  0.00  0.00    +0.015 C 
ATOM     13  C   UNL     1      34.590 -10.280 -23.925  0.00  0.00    +0.015 C 
ATOM     14  C   UNL     1      34.750 -11.344 -26.499  0.00  0.00    +0.001 C 
ATOM     15  C   UNL     1      35.431  -9.694 -24.871  0.00  0.00    +0.001 C 
ATOM     16  C   UNL     1      35.510 -10.226 -26.158  0.00  0.00    +0.000 C 
ENDBRANCH   9  11
BRANCH  10  17
ATOM     17  C   UNL     1      31.838  -9.785 -23.214  0.00  0.00    +0.086 C 
ATOM     18  C   UNL     1      31.861  -8.746 -22.103  0.00  0.00    +0.010 C 
ENDBRANCH  10  17
ENDBRANCH   2   9
BRANCH   2  20
ATOM     19  O   UNL     1      31.546 -13.786 -24.694  0.00  0.00    -0.248 OA
ATOM     20  C   UNL     1      32.590 -14.106 -24.143  0.00  0.00    +0.333 C 
BRANCH  20  21
ATOM     21  O   UNL     1      33.415 -15.129 -24.503  0.00  0.00    -0.443 OA
ATOM     22  C   UNL     1      33.362 -15.505 -25.883  0.00  0.00    +0.256 C 
ENDBRANCH  20  21
ENDBRANCH   2  20
BRANCH   1  23
ATOM     23  C   UNL     1      34.468 -16.677 -20.453  0.00  0.00    -0.073 C 
BRANCH  23  24
ATOM     24  C   UNL     1      34.222 -17.757 -21.507  0.00  0.00    +0.004 C 
BRANCH  24  25
ATOM     25  C   UNL     1      34.247 -19.138 -20.901  0.00  0.00    -0.024 C 
ATOM     26  C   UNL     1      35.464 -19.785 -20.689  0.00  0.00    -0.004 C 
ATOM     27  C   UNL     1      33.052 -19.768 -20.552  0.00  0.00    -0.004 C 
ATOM     28  C   UNL     1      35.487 -21.063 -20.129  0.00  0.00    -0.000 C 
ATOM     29  C   UNL     1      33.075 -21.045 -19.991  0.00  0.00    -0.000 C 
ATOM     30  C   UNL     1      34.292 -21.692 -19.780  0.00  0.00    -0.000 C 
ENDBRANCH  24  25
ENDBRANCH  23  24
ENDBRANCH   1  23
TORSDOF 8
ENDMDL
MODEL 3
REMARK VINA RESULT:      -7.5      7.411     12.348
REMARK  Name = 449698
REMARK  8 active torsions:
REMARK  status: ('A' for Active; 'I' for Inactive)
REMARK    1  A    between atoms: N_1  and  C_23
REMARK    2  A    between atoms: C_2  and  N_9
REMARK    3  A    between atoms: C_2  and  C_20
REMARK    4  A    between atoms: N_9  and  C_11
REMARK    5  A    between atoms: C_10  and  C_17
REMARK    6  A    between atoms: C_20  and  O_21
REMARK    7  A    between atoms: C_23  and  C_24
REMARK    8  A    between atoms: C_24  and  C_25
REMARK                            x       y       z     vdW  Elec       q    Type
REMARK                         _______ _______ _______ _____ _____    ______ ____
ROOT
ATOM      1  N   UNL     1      34.469 -16.320 -21.705  0.00  0.00    +0.387 N 
ATOM      2  C   UNL     1      33.318 -13.943 -22.993  0.00  0.00    +0.149 C 
ATOM      3  C   UNL     1      34.820 -14.239 -23.000  0.00  0.00    +0.007 C 
ATOM      4  C   UNL     1      32.627 -14.670 -21.836  0.00  0.00    +0.007 C 
ATOM      5  C   UNL     1      35.118 -15.738 -22.887  0.00  0.00    -0.075 C 
ATOM      6  C   UNL     1      33.011 -16.151 -21.768  0.00  0.00    -0.075 C 
ATOM      7  H   UNL     1      34.809 -15.824 -20.882  0.00  0.00    -0.080 HD
ENDROOT
BRANCH   2   9
ATOM      8  O   UNL     1      34.331 -11.875 -24.827  0.00  0.00    -0.275 OA
ATOM      9  N   UNL     1      33.075 -12.521 -22.924  0.00  0.00    -0.252 N 
ATOM     10  C   UNL     1      33.612 -11.593 -23.864  0.00  0.00    +0.230 C 
BRANCH   9  11
ATOM     11  C   UNL     1      32.240 -12.010 -21.839  0.00  0.00    +0.054 C 
ATOM     12  C   UNL     1      31.000 -11.437 -22.125  0.00  0.00    +0.015 C 
ATOM     13  C   UNL     1      32.681 -12.095 -20.519  0.00  0.00    +0.015 C 
ATOM     14  C   UNL     1      30.203 -10.949 -21.090  0.00  0.00    +0.001 C 
ATOM     15  C   UNL     1      31.883 -11.606 -19.484  0.00  0.00    +0.001 C 
ATOM     16  C   UNL     1      30.644 -11.034 -19.770  0.00  0.00    +0.000 C 
ENDBRANCH   9  11
BRANCH  10  17
ATOM     17  C   UNL     1      33.277 -10.129 -23.589  0.00  0.00    +0.086 C 
ATOM     18  C   UNL     1      34.419  -9.187 -23.938  0.00  0.00    +0.010 C 
ENDBRANCH  10  17
ENDBRANCH   2   9
BRANCH   2  20
ATOM     19  O   UNL     1      31.621 -13.858 -24.705  0.00  0.00    -0.248 OA
ATOM     20  C   UNL     1      32.689 -14.305 -24.311  0.00  0.00    +0.333 C 
BRANCH  20  21
ATOM     21  O   UNL     1      33.489 -15.190 -24.970  0.00  0.00    -0.443 OA
ATOM     22  C   UNL     1      33.175 -15.393 -26.352  0.00  0.00    +0.256 C 
ENDBRANCH  20  21
ENDBRANCH   2  20
BRANCH   1  23
ATOM     23  C   UNL     1      34.815 -17.735 -21.577  0.00  0.00    -0.073 C 
BRANCH  23  24
ATOM     24  C   UNL     1      33.588 -18.568 -21.205  0.00  0.00    +0.004 C 
BRANCH  24  25
ATOM     25  C   UNL     1      33.978 -19.851 -20.517  0.00  0.00    -0.024 C 
ATOM     26  C   UNL     1      33.005 -20.636 -19.899  0.00  0.00    -0.004 C 
ATOM     27  C   UNL     1      35.314 -20.255 -20.499  0.00  0.00    -0.004 C 
ATOM     28  C   UNL     1      33.366 -21.824 -19.262  0.00  0.00    -0.000 C 
ATOM     29  C   UNL     1      35.675 -21.443 -19.864  0.00  0.00    -0.000 C 
ATOM     30  C   UNL     1      34.702 -22.227 -19.245  0.00  0.00    -0.000 C 
ENDBRANCH  24  25
ENDBRANCH  23  24
ENDBRANCH   1  23
TORSDOF 8
ENDMDL
MODEL 4
REMARK VINA RESULT:      -7.0     11.962     17.266
REMARK  Name = 449698
REMARK  8 active torsions:
REMARK  status: ('A' for Active; 'I' for Inactive)
REMARK    1  A    between atoms: N_1  and  C_23
REMARK    2  A    between atoms: C_2  and  N_9
REMARK    3  A    between atoms: C_2  and  C_20
REMARK    4  A    between atoms: N_9  and  C_11
REMARK    5  A    between atoms: C_10  and  C_17
REMARK    6  A    between atoms: C_20  and  O_21
REMARK    7  A    between atoms: C_23  and  C_24
REMARK    8  A    between atoms: C_24  and  C_25
REMARK                            x       y       z     vdW  Elec       q    Type
REMARK                         _______ _______ _______ _____ _____    ______ ____
ROOT
ATOM      1  N   UNL     1      33.420 -10.916 -24.296  0.00  0.00    +0.387 N 
ATOM      2  C   UNL     1      32.935  -8.126 -23.514  0.00  0.00    +0.149 C 
ATOM      3  C   UNL     1      31.807  -9.151 -23.655  0.00  0.00    +0.007 C 
ATOM      4  C   UNL     1      34.162  -8.554 -24.326  0.00  0.00    +0.007 C 
ATOM      5  C   UNL     1      32.291 -10.585 -23.417  0.00  0.00    -0.075 C 
ATOM      6  C   UNL     1      34.552 -10.011 -24.062  0.00  0.00    -0.075 C 
ATOM      7  H   UNL     1      33.114 -10.797 -25.261  0.00  0.00    -0.080 HD
ENDROOT
BRANCH   2   9
ATOM      8  O   UNL     1      30.729  -6.566 -22.346  0.00  0.00    -0.275 OA
ATOM      9  N   UNL     1      32.489  -6.812 -23.914  0.00  0.00    -0.252 N 
ATOM     10  C   UNL     1      31.405  -6.133 -23.283  0.00  0.00    +0.230 C 
BRANCH   9  11
ATOM     11  C   UNL     1      33.180  -6.147 -25.017  0.00  0.00    +0.054 C 
ATOM     12  C   UNL     1      32.458  -5.377 -25.928  0.00  0.00    +0.015 C 
ATOM     13  C   UNL     1      34.561  -6.283 -25.158  0.00  0.00    +0.015 C 
ATOM     14  C   UNL     1      33.117  -4.743 -26.981  0.00  0.00    +0.001 C 
ATOM     15  C   UNL     1      35.220  -5.648 -26.211  0.00  0.00    +0.001 C 
ATOM     16  C   UNL     1      34.498  -4.878 -27.122  0.00  0.00    +0.000 C 
ENDBRANCH   9  11
BRANCH  10  17
ATOM     17  C   UNL     1      31.058  -4.773 -23.885  0.00  0.00    +0.086 C 
ATOM     18  C   UNL     1      31.266  -3.626 -22.908  0.00  0.00    +0.010 C 
ENDBRANCH  10  17
ENDBRANCH   2   9
BRANCH   2  20
ATOM     19  O   UNL     1      34.127  -7.102 -21.684  0.00  0.00    -0.248 OA
ATOM     20  C   UNL     1      33.293  -7.909 -22.069  0.00  0.00    +0.333 C 
BRANCH  20  21
ATOM     21  O   UNL     1      32.551  -8.743 -21.286  0.00  0.00    -0.443 OA
ATOM     22  C   UNL     1      32.279  -8.265 -19.965  0.00  0.00    +0.256 C 
ENDBRANCH  20  21
ENDBRANCH   2  20
BRANCH   1  23
ATOM     23  C   UNL     1      33.828 -12.307 -24.102  0.00  0.00    -0.073 C 
BRANCH  23  24
ATOM     24  C   UNL     1      32.946 -12.997 -23.061  0.00  0.00    +0.004 C 
BRANCH  24  25
ATOM     25  C   UNL     1      33.634 -14.197 -22.461  0.00  0.00    -0.024 C 
ATOM     26  C   UNL     1      33.567 -14.426 -21.087  0.00  0.00    -0.004 C 
ATOM     27  C   UNL     1      34.337 -15.080 -23.281  0.00  0.00    -0.004 C 
ATOM     28  C   UNL     1      34.204 -15.536 -20.532  0.00  0.00    -0.000 C 
ATOM     29  C   UNL     1      34.973 -16.191 -22.726  0.00  0.00    -0.000 C 
ATOM     30  C   UNL     1      34.907 -16.419 -21.352  0.00  0.00    -0.000 C 
ENDBRANCH  24  25
ENDBRANCH  23  24
ENDBRANCH   1  23
TORSDOF 8
ENDMDL
MODEL 5
REMARK VINA RESULT:      -6.7      9.601     14.243
REMARK  Name = 449698
REMARK  8 active torsions:
REMARK  status: ('A' for Active; 'I' for Inactive)
REMARK    1  A    between atoms: N_1  and  C_23
REMARK    2  A    between atoms: C_2  and  N_9
REMARK    3  A    between atoms: C_2  and  C_20
REMARK    4  A    between atoms: N_9  and  C_11
REMARK    5  A    between atoms: C_10  and  C_17
REMARK    6  A    between atoms: C_20  and  O_21
REMARK    7  A    between atoms: C_23  and  C_24
REMARK    8  A    between atoms: C_24  and  C_25
REMARK                            x       y       z     vdW  Elec       q    Type
REMARK                         _______ _______ _______ _____ _____    ______ ____
ROOT
ATOM      1  N   UNL     1      33.243 -14.115 -24.174  0.00  0.00    +0.387 N 
ATOM      2  C   UNL     1      33.114 -11.223 -23.673  0.00  0.00    +0.149 C 
ATOM      3  C   UNL     1      33.469 -12.234 -22.580  0.00  0.00    +0.007 C 
ATOM      4  C   UNL     1      32.337 -11.899 -24.807  0.00  0.00    +0.007 C 
ATOM      5  C   UNL     1      34.103 -13.508 -23.149  0.00  0.00    -0.075 C 
ATOM      6  C   UNL     1      33.015 -13.186 -25.288  0.00  0.00    -0.075 C 
ATOM      7  H   UNL     1      32.341 -14.324 -23.746  0.00  0.00    -0.080 HD
ENDROOT
BRANCH   2   9
ATOM      8  O   UNL     1      32.330  -8.748 -25.061  0.00  0.00    -0.275 OA
ATOM      9  N   UNL     1      32.364 -10.116 -23.126  0.00  0.00    -0.252 N 
ATOM     10  C   UNL     1      32.031  -8.953 -23.881  0.00  0.00    +0.230 C 
BRANCH   9  11
ATOM     11  C   UNL     1      31.928 -10.192 -21.733  0.00  0.00    +0.054 C 
ATOM     12  C   UNL     1      32.481  -9.334 -20.783  0.00  0.00    +0.015 C 
ATOM     13  C   UNL     1      30.959 -11.121 -21.355  0.00  0.00    +0.015 C 
ATOM     14  C   UNL     1      32.065  -9.406 -19.453  0.00  0.00    +0.001 C 
ATOM     15  C   UNL     1      30.543 -11.192 -20.025  0.00  0.00    +0.001 C 
ATOM     16  C   UNL     1      31.096 -10.334 -19.075  0.00  0.00    +0.000 C 
ENDBRANCH   9  11
BRANCH  10  17
ATOM     17  C   UNL     1      31.275  -7.876 -23.107  0.00  0.00    +0.086 C 
ATOM     18  C   UNL     1      31.917  -6.503 -23.228  0.00  0.00    +0.010 C 
ENDBRANCH  10  17
ENDBRANCH   2   9
BRANCH   2  20
ATOM     19  O   UNL     1      35.009  -9.734 -23.555  0.00  0.00    -0.248 OA
ATOM     20  C   UNL     1      34.347 -10.537 -24.198  0.00  0.00    +0.333 C 
BRANCH  20  21
ATOM     21  O   UNL     1      34.591 -10.952 -25.473  0.00  0.00    -0.443 OA
ATOM     22  C   UNL     1      35.696 -10.318 -26.125  0.00  0.00    +0.256 C 
ENDBRANCH  20  21
ENDBRANCH   2  20
BRANCH   1  23
ATOM     23  C   UNL     1      33.832 -15.362 -24.661  0.00  0.00    -0.073 C 
BRANCH  23  24
ATOM     24  C   UNL     1      35.082 -15.728 -23.860  0.00  0.00    +0.004 C 
BRANCH  24  25
ATOM     25  C   UNL     1      34.932 -17.066 -23.181  0.00  0.00    -0.024 C 
ATOM     26  C   UNL     1      34.742 -17.130 -21.801  0.00  0.00    -0.004 C 
ATOM     27  C   UNL     1      34.983 -18.240 -23.933  0.00  0.00    -0.004 C 
ATOM     28  C   UNL     1      34.604 -18.368 -21.172  0.00  0.00    -0.000 C 
ATOM     29  C   UNL     1      34.844 -19.477 -23.305  0.00  0.00    -0.000 C 
ATOM     30  C   UNL     1      34.655 -19.542 -21.925  0.00  0.00    -0.000 C 
ENDBRANCH  24  25
ENDBRANCH  23  24
ENDBRANCH   1  23
TORSDOF 8
ENDMDL
MODEL 6
REMARK VINA RESULT:      -6.7      3.069      5.882
REMARK  Name = 449698
REMARK  8 active torsions:
REMARK  status: ('A' for Active; 'I' for Inactive)
REMARK    1  A    between atoms: N_1  and  C_23
REMARK    2  A    between atoms: C_2  and  N_9
REMARK    3  A    between atoms: C_2  and  C_20
REMARK    4  A    between atoms: N_9  and  C_11
REMARK    5  A    between atoms: C_10  and  C_17
REMARK    6  A    between atoms: C_20  and  O_21
REMARK    7  A    between atoms: C_23  and  C_24
REMARK    8  A    between atoms: C_24  and  C_25
REMARK                            x       y       z     vdW  Elec       q    Type
REMARK                         _______ _______ _______ _____ _____    ______ ____
ROOT
ATOM      1  N   UNL     1      31.132 -23.895 -14.104  0.00  0.00    +0.387 N 
ATOM      2  C   UNL     1      34.014 -24.213 -14.578  0.00  0.00    +0.149 C 
ATOM      3  C   UNL     1      33.008 -25.341 -14.823  0.00  0.00    +0.007 C 
ATOM      4  C   UNL     1      33.448 -23.186 -13.592  0.00  0.00    +0.007 C 
ATOM      5  C   UNL     1      31.608 -24.812 -15.148  0.00  0.00    -0.075 C 
ATOM      6  C   UNL     1      32.031 -22.742 -13.965  0.00  0.00    -0.075 C 
ATOM      7  H   UNL     1      31.127 -24.401 -13.218  0.00  0.00    -0.080 HD
ENDROOT
BRANCH   2   9
ATOM      8  O   UNL     1      35.708 -26.225 -15.899  0.00  0.00    -0.275 OA
ATOM      9  N   UNL     1      35.272 -24.740 -14.105  0.00  0.00    -0.252 N 
ATOM     10  C   UNL     1      36.025 -25.718 -14.819  0.00  0.00    +0.230 C 
BRANCH   9  11
ATOM     11  C   UNL     1      35.799 -24.247 -12.833  0.00  0.00    +0.054 C 
ATOM     12  C   UNL     1      36.789 -23.265 -12.824  0.00  0.00    +0.015 C 
ATOM     13  C   UNL     1      35.312 -24.759 -11.631  0.00  0.00    +0.015 C 
ATOM     14  C   UNL     1      37.292 -22.794 -11.611  0.00  0.00    +0.001 C 
ATOM     15  C   UNL     1      35.816 -24.288 -10.418  0.00  0.00    +0.001 C 
ATOM     16  C   UNL     1      36.805 -23.306 -10.409  0.00  0.00    +0.000 C 
ENDBRANCH   9  11
BRANCH  10  17
ATOM     17  C   UNL     1      37.304 -26.181 -14.127  0.00  0.00    +0.086 C 
ATOM     18  C   UNL     1      38.563 -25.736 -14.855  0.00  0.00    +0.010 C 
ENDBRANCH  10  17
ENDBRANCH   2   9
BRANCH   2  20
ATOM     19  O   UNL     1      34.033 -23.924 -16.973  0.00  0.00    -0.248 OA
ATOM     20  C   UNL     1      34.415 -23.556 -15.871  0.00  0.00    +0.333 C 
BRANCH  20  21
ATOM     21  O   UNL     1      35.252 -22.512 -15.610  0.00  0.00    -0.443 OA
ATOM     22  C   UNL     1      36.384 -22.399 -16.479  0.00  0.00    +0.256 C 
ENDBRANCH  20  21
ENDBRANCH   2  20
BRANCH   1  23
ATOM     23  C   UNL     1      29.770 -23.449 -14.397  0.00  0.00    -0.073 C 
BRANCH  23  24
ATOM     24  C   UNL     1      29.360 -23.837 -15.818  0.00  0.00    +0.004 C 
BRANCH  24  25
ATOM     25  C   UNL     1      28.172 -23.037 -16.289  0.00  0.00    -0.024 C 
ATOM     26  C   UNL     1      27.923 -22.895 -17.654  0.00  0.00    -0.004 C 
ATOM     27  C   UNL     1      27.322 -22.438 -15.359  0.00  0.00    -0.004 C 
ATOM     28  C   UNL     1      26.824 -22.154 -18.089  0.00  0.00    -0.000 C 
ATOM     29  C   UNL     1      26.222 -21.698 -15.794  0.00  0.00    -0.000 C 
ATOM     30  C   UNL     1      25.974 -21.556 -17.159  0.00  0.00    -0.000 C 
ENDBRANCH  24  25
ENDBRANCH  23  24
ENDBRANCH   1  23
TORSDOF 8
ENDMDL
MODEL 7
REMARK VINA RESULT:      -6.7      7.588     13.142
REMARK  Name = 449698
REMARK  8 active torsions:
REMARK  status: ('A' for Active; 'I' for Inactive)
REMARK    1  A    between atoms: N_1  and  C_23
REMARK    2  A    between atoms: C_2  and  N_9
REMARK    3  A    between atoms: C_2  and  C_20
REMARK    4  A    between atoms: N_9  and  C_11
REMARK    5  A    between atoms: C_10  and  C_17
REMARK    6  A    between atoms: C_20  and  O_21
REMARK    7  A    between atoms: C_23  and  C_24
REMARK    8  A    between atoms: C_24  and  C_25
REMARK                            x       y       z     vdW  Elec       q    Type
REMARK                         _______ _______ _______ _____ _____    ______ ____
ROOT
ATOM      1  N   UNL     1      34.928 -16.089 -21.905  0.00  0.00    +0.387 N 
ATOM      2  C   UNL     1      33.551 -13.896 -23.294  0.00  0.00    +0.149 C 
ATOM      3  C   UNL     1      33.514 -15.342 -23.795  0.00  0.00    +0.007 C 
ATOM      4  C   UNL     1      34.766 -13.666 -22.390  0.00  0.00    +0.007 C 
ATOM      5  C   UNL     1      33.698 -16.356 -22.662  0.00  0.00    -0.075 C 
ATOM      6  C   UNL     1      34.900 -14.745 -21.312  0.00  0.00    -0.075 C 
ATOM      7  H   UNL     1      35.714 -16.131 -22.554  0.00  0.00    -0.080 HD
ENDROOT
BRANCH   2   9
ATOM      8  O   UNL     1      33.203 -14.531 -26.147  0.00  0.00    -0.275 OA
ATOM      9  N   UNL     1      33.552 -12.968 -24.400  0.00  0.00    -0.252 N 
ATOM     10  C   UNL     1      33.375 -13.373 -25.756  0.00  0.00    +0.230 C 
BRANCH   9  11
ATOM     11  C   UNL     1      33.744 -11.547 -24.117  0.00  0.00    +0.054 C 
ATOM     12  C   UNL     1      32.757 -10.833 -23.438  0.00  0.00    +0.015 C 
ATOM     13  C   UNL     1      34.914 -10.906 -24.523  0.00  0.00    +0.015 C 
ATOM     14  C   UNL     1      32.939  -9.477 -23.167  0.00  0.00    +0.001 C 
ATOM     15  C   UNL     1      35.097  -9.550 -24.253  0.00  0.00    +0.001 C 
ATOM     16  C   UNL     1      34.109  -8.836 -23.574  0.00  0.00    +0.000 C 
ENDBRANCH   9  11
BRANCH  10  17
ATOM     17  C   UNL     1      33.455 -12.245 -26.782  0.00  0.00    +0.086 C 
ATOM     18  C   UNL     1      34.724 -12.299 -27.618  0.00  0.00    +0.010 C 
ENDBRANCH  10  17
ENDBRANCH   2   9
BRANCH   2  20
ATOM     19  O   UNL     1      31.199 -13.379 -23.146  0.00  0.00    -0.248 OA
ATOM     20  C   UNL     1      32.274 -13.537 -22.584  0.00  0.00    +0.333 C 
BRANCH  20  21
ATOM     21  O   UNL     1      32.513 -13.421 -21.247  0.00  0.00    -0.443 OA
ATOM     22  C   UNL     1      31.757 -12.410 -20.572  0.00  0.00    +0.256 C 
ENDBRANCH  20  21
ENDBRANCH   2  20
BRANCH   1  23
ATOM     23  C   UNL     1      35.121 -17.102 -20.869  0.00  0.00    -0.073 C 
BRANCH  23  24
ATOM     24  C   UNL     1      35.593 -18.424 -21.474  0.00  0.00    +0.004 C 
BRANCH  24  25
ATOM     25  C   UNL     1      34.983 -19.606 -20.766  0.00  0.00    -0.024 C 
ATOM     26  C   UNL     1      35.804 -20.558 -20.163  0.00  0.00    -0.004 C 
ATOM     27  C   UNL     1      33.596 -19.749 -20.713  0.00  0.00    -0.004 C 
ATOM     28  C   UNL     1      35.240 -21.653 -19.507  0.00  0.00    -0.000 C 
ATOM     29  C   UNL     1      33.031 -20.842 -20.057  0.00  0.00    -0.000 C 
ATOM     30  C   UNL     1      33.853 -21.795 -19.454  0.00  0.00    -0.000 C 
ENDBRANCH  24  25
ENDBRANCH  23  24
ENDBRANCH   1  23
TORSDOF 8
ENDMDL
MODEL 8
REMARK VINA RESULT:      -6.5      7.303     11.053
REMARK  Name = 449698
REMARK  8 active torsions:
REMARK  status: ('A' for Active; 'I' for Inactive)
REMARK    1  A    between atoms: N_1  and  C_23
REMARK    2  A    between atoms: C_2  and  N_9
REMARK    3  A    between atoms: C_2  and  C_20
REMARK    4  A    between atoms: N_9  and  C_11
REMARK    5  A    between atoms: C_10  and  C_17
REMARK    6  A    between atoms: C_20  and  O_21
REMARK    7  A    between atoms: C_23  and  C_24
REMARK    8  A    between atoms: C_24  and  C_25
REMARK                            x       y       z     vdW  Elec       q    Type
REMARK                         _______ _______ _______ _____ _____    ______ ____
ROOT
ATOM      1  N   UNL     1      32.999 -14.712 -20.426  0.00  0.00    +0.387 N 
ATOM      2  C   UNL     1      34.254 -16.413 -22.465  0.00  0.00    +0.149 C 
ATOM      3  C   UNL     1      32.736 -16.315 -22.294  0.00  0.00    +0.007 C 
ATOM      4  C   UNL     1      34.974 -16.003 -21.177  0.00  0.00    +0.007 C 
ATOM      5  C   UNL     1      32.305 -14.973 -21.693  0.00  0.00    -0.075 C 
ATOM      6  C   UNL     1      34.454 -14.674 -20.620  0.00  0.00    -0.075 C 
ATOM      7  H   UNL     1      32.785 -15.476 -19.785  0.00  0.00    -0.080 HD
ENDROOT
BRANCH   2   9
ATOM      8  O   UNL     1      34.233 -17.526 -25.190  0.00  0.00    -0.275 OA
ATOM      9  N   UNL     1      34.641 -17.746 -22.867  0.00  0.00    -0.252 N 
ATOM     10  C   UNL     1      34.596 -18.195 -24.219  0.00  0.00    +0.230 C 
BRANCH   9  11
ATOM     11  C   UNL     1      35.099 -18.677 -21.838  0.00  0.00    +0.054 C 
ATOM     12  C   UNL     1      34.185 -19.521 -21.207  0.00  0.00    +0.015 C 
ATOM     13  C   UNL     1      36.448 -18.723 -21.487  0.00  0.00    +0.015 C 
ATOM     14  C   UNL     1      34.620 -20.411 -20.224  0.00  0.00    +0.001 C 
ATOM     15  C   UNL     1      36.883 -19.612 -20.505  0.00  0.00    +0.001 C 
ATOM     16  C   UNL     1      35.970 -20.456 -19.874  0.00  0.00    +0.000 C 
ENDBRANCH   9  11
BRANCH  10  17
ATOM     17  C   UNL     1      35.000 -19.652 -24.429  0.00  0.00    +0.086 C 
ATOM     18  C   UNL     1      34.192 -20.337 -25.520  0.00  0.00    +0.010 C 
ENDBRANCH  10  17
ENDBRANCH   2   9
BRANCH   2  20
ATOM     19  O   UNL     1      35.866 -15.599 -24.065  0.00  0.00    -0.248 OA
ATOM     20  C   UNL     1      34.722 -15.586 -23.632  0.00  0.00    +0.333 C 
BRANCH  20  21
ATOM     21  O   UNL     1      33.684 -14.843 -24.109  0.00  0.00    -0.443 OA
ATOM     22  C   UNL     1      33.919 -13.433 -24.180  0.00  0.00    +0.256 C 
ENDBRANCH  20  21
ENDBRANCH   2  20
BRANCH   1  23
ATOM     23  C   UNL     1      32.529 -13.460 -19.834  0.00  0.00    -0.073 C 
BRANCH  23  24
ATOM     24  C   UNL     1      31.547 -12.747 -20.765  0.00  0.00    +0.004 C 
BRANCH  24  25
ATOM     25  C   UNL     1      31.736 -11.252 -20.729  0.00  0.00    -0.024 C 
ATOM     26  C   UNL     1      31.762 -10.581 -19.507  0.00  0.00    -0.004 C 
ATOM     27  C   UNL     1      31.885 -10.540 -21.920  0.00  0.00    -0.004 C 
ATOM     28  C   UNL     1      31.936  -9.197 -19.474  0.00  0.00    -0.000 C 
ATOM     29  C   UNL     1      32.061  -9.156 -21.887  0.00  0.00    -0.000 C 
ATOM     30  C   UNL     1      32.086  -8.485 -20.665  0.00  0.00    -0.000 C 
ENDBRANCH  24  25
ENDBRANCH  23  24
ENDBRANCH   1  23
TORSDOF 8
ENDMDL
MODEL 9
REMARK VINA RESULT:      -6.5      5.124     10.422
REMARK  Name = 449698
REMARK  8 active torsions:
REMARK  status: ('A' for Active; 'I' for Inactive)
REMARK    1  A    between atoms: N_1  and  C_23
REMARK    2  A    between atoms: C_2  and  N_9
REMARK    3  A    between atoms: C_2  and  C_20
REMARK    4  A    between atoms: N_9  and  C_11
REMARK    5  A    between atoms: C_10  and  C_17
REMARK    6  A    between atoms: C_20  and  O_21
REMARK    7  A    between atoms: C_23  and  C_24
REMARK    8  A    between atoms: C_24  and  C_25
REMARK                            x       y       z     vdW  Elec       q    Type
REMARK                         _______ _______ _______ _____ _____    ______ ____
ROOT
ATOM      1  N   UNL     1      36.022 -19.262 -20.742  0.00  0.00    +0.387 N 
ATOM      2  C   UNL     1      34.784 -17.751 -22.937  0.00  0.00    +0.149 C 
ATOM      3  C   UNL     1      36.296 -17.774 -22.702  0.00  0.00    +0.007 C 
ATOM      4  C   UNL     1      34.030 -18.107 -21.652  0.00  0.00    +0.007 C 
ATOM      5  C   UNL     1      36.757 -19.054 -21.997  0.00  0.00    -0.075 C 
ATOM      6  C   UNL     1      34.579 -19.374 -20.989  0.00  0.00    -0.075 C 
ATOM      7  H   UNL     1      36.179 -18.449 -20.147  0.00  0.00    -0.080 HD
ENDROOT
BRANCH   2   9
ATOM      8  O   UNL     1      34.882 -16.814 -25.725  0.00  0.00    -0.275 OA
ATOM      9  N   UNL     1      34.361 -16.465 -23.440  0.00  0.00    -0.252 N 
ATOM     10  C   UNL     1      34.448 -16.101 -24.816  0.00  0.00    +0.230 C 
BRANCH   9  11
ATOM     11  C   UNL     1      33.820 -15.491 -22.494  0.00  0.00    +0.054 C 
ATOM     12  C   UNL     1      32.658 -14.786 -22.810  0.00  0.00    +0.015 C 
ATOM     13  C   UNL     1      34.463 -15.268 -21.277  0.00  0.00    +0.015 C 
ATOM     14  C   UNL     1      32.141 -13.856 -21.908  0.00  0.00    +0.001 C 
ATOM     15  C   UNL     1      33.945 -14.338 -20.375  0.00  0.00    +0.001 C 
ATOM     16  C   UNL     1      32.784 -13.633 -20.691  0.00  0.00    +0.000 C 
ENDBRANCH   9  11
BRANCH  10  17
ATOM     17  C   UNL     1      33.994 -14.679 -25.137  0.00  0.00    +0.086 C 
ATOM     18  C   UNL     1      33.103 -14.608 -26.367  0.00  0.00    +0.010 C 
ENDBRANCH  10  17
ENDBRANCH   2   9
BRANCH   2  20
ATOM     19  O   UNL     1      33.273 -18.733 -24.540  0.00  0.00    -0.248 OA
ATOM     20  C   UNL     1      34.397 -18.671 -24.063  0.00  0.00    +0.333 C 
BRANCH  20  21
ATOM     21  O   UNL     1      35.481 -19.402 -24.448  0.00  0.00    -0.443 OA
ATOM     22  C   UNL     1      35.191 -20.587 -25.195  0.00  0.00    +0.256 C 
ENDBRANCH  20  21
ENDBRANCH   2  20
BRANCH   1  23
ATOM     23  C   UNL     1      36.517 -20.452 -20.052  0.00  0.00    -0.073 C 
BRANCH  23  24
ATOM     24  C   UNL     1      35.384 -21.444 -19.788  0.00  0.00    +0.004 C 
BRANCH  24  25
ATOM     25  C   UNL     1      35.448 -21.998 -18.387  0.00  0.00    -0.024 C 
ATOM     26  C   UNL     1      34.350 -22.672 -17.852  0.00  0.00    -0.004 C 
ATOM     27  C   UNL     1      36.606 -21.836 -17.625  0.00  0.00    -0.004 C 
ATOM     28  C   UNL     1      34.409 -23.184 -16.556  0.00  0.00    -0.000 C 
ATOM     29  C   UNL     1      36.665 -22.349 -16.330  0.00  0.00    -0.000 C 
ATOM     30  C   UNL     1      35.567 -23.022 -15.795  0.00  0.00    -0.000 C 
ENDBRANCH  24  25
ENDBRANCH  23  24
ENDBRANCH   1  23
TORSDOF 8
ENDMDL
