MODEL 1
REMARK VINA RESULT:      -9.0      0.000      0.000
REMARK  Name = 5327154
REMARK  3 active torsions:
REMARK  status: ('A' for Active; 'I' for Inactive)
REMARK    1  A    between atoms: C_3  and  N_13
REMARK    2  A    between atoms: C_4  and  C_7
REMARK    3  A    between atoms: N_13  and  S_15
REMARK                            x       y       z     vdW  Elec       q    Type
REMARK                         _______ _______ _______ _____ _____    ______ ____
ROOT
ATOM      1  N   UNL     1      34.655 -17.813 -23.685  0.00  0.00    -0.195 N 
ATOM      2  N   UNL     1      34.557 -19.039 -23.141  0.00  0.00    -0.177 NA
ATOM      3  C   UNL     1      34.785 -16.812 -22.768  0.00  0.00    +0.136 C 
ATOM      4  C   UNL     1      34.627 -18.798 -21.828  0.00  0.00    +0.101 C 
ATOM      5  C   UNL     1      34.769 -17.425 -21.539  0.00  0.00    +0.053 C 
ATOM      6  C   UNL     1      34.619 -17.669 -25.122  0.00  0.00    +0.141 C 
ENDROOT
BRANCH   4   7
ATOM      7  C   UNL     1      34.560 -19.875 -20.880  0.00  0.00    +0.019 C 
ATOM      8  C   UNL     1      33.322 -20.320 -20.417  0.00  0.00    +0.002 C 
ATOM      9  C   UNL     1      35.733 -20.476 -20.423  0.00  0.00    +0.002 C 
ATOM     10  C   UNL     1      33.257 -21.366 -19.497  0.00  0.00    +0.000 C 
ATOM     11  C   UNL     1      35.668 -21.522 -19.503  0.00  0.00    +0.000 C 
ATOM     12  C   UNL     1      34.430 -21.967 -19.040  0.00  0.00    +0.000 C 
ENDBRANCH   4   7
BRANCH   3  13
ATOM     13  N   UNL     1      34.911 -15.393 -23.028  0.00  0.00    -0.199 N 
ATOM     14  H   UNL     1      35.778 -14.926 -23.037  0.00  0.00    +0.175 HD
BRANCH  13  15
ATOM     15  S   UNL     1      33.396 -14.586 -23.325  0.00  0.00    +0.092 S 
ATOM     16  O   UNL     1      33.753 -13.004 -23.149  0.00  0.00    -0.050 OA
ATOM     17  O   UNL     1      32.466 -14.937 -22.269  0.00  0.00    -0.050 OA
ATOM     18  O   UNL     1      33.039 -14.795 -24.717  0.00  0.00    -0.050 OA
ENDBRANCH  13  15
ENDBRANCH   3  13
TORSDOF 3
ENDMDL
MODEL 2
REMARK VINA RESULT:      -8.8      0.597      1.672
REMARK  Name = 5327154
REMARK  3 active torsions:
REMARK  status: ('A' for Active; 'I' for Inactive)
REMARK    1  A    between atoms: C_3  and  N_13
REMARK    2  A    between atoms: C_4  and  C_7
REMARK    3  A    between atoms: N_13  and  S_15
REMARK                            x       y       z     vdW  Elec       q    Type
REMARK                         _______ _______ _______ _____ _____    ______ ____
ROOT
ATOM      1  N   UNL     1      34.705 -17.138 -23.772  0.00  0.00    -0.195 N 
ATOM      2  N   UNL     1      34.656 -18.402 -23.316  0.00  0.00    -0.177 NA
ATOM      3  C   UNL     1      34.665 -16.196 -22.788  0.00  0.00    +0.136 C 
ATOM      4  C   UNL     1      34.581 -18.247 -21.990  0.00  0.00    +0.101 C 
ATOM      5  C   UNL     1      34.583 -16.890 -21.605  0.00  0.00    +0.053 C 
ATOM      6  C   UNL     1      34.794 -16.900 -25.194  0.00  0.00    +0.141 C 
ENDROOT
BRANCH   4   7
ATOM      7  C   UNL     1      34.511 -19.388 -21.120  0.00  0.00    +0.019 C 
ATOM      8  C   UNL     1      35.683 -20.010 -20.690  0.00  0.00    +0.002 C 
ATOM      9  C   UNL     1      33.271 -19.874 -20.707  0.00  0.00    +0.002 C 
ATOM     10  C   UNL     1      35.615 -21.117 -19.845  0.00  0.00    +0.000 C 
ATOM     11  C   UNL     1      33.203 -20.982 -19.862  0.00  0.00    +0.000 C 
ATOM     12  C   UNL     1      34.375 -21.603 -19.432  0.00  0.00    +0.000 C 
ENDBRANCH   4   7
BRANCH   3  13
ATOM     13  N   UNL     1      34.701 -14.757 -22.947  0.00  0.00    -0.199 N 
ATOM     14  H   UNL     1      35.539 -14.240 -22.963  0.00  0.00    +0.175 HD
BRANCH  13  15
ATOM     15  S   UNL     1      33.131 -14.019 -23.110  0.00  0.00    +0.092 S 
ATOM     16  O   UNL     1      32.687 -14.373 -24.640  0.00  0.00    -0.050 OA
ATOM     17  O   UNL     1      33.282 -12.579 -23.029  0.00  0.00    -0.050 OA
ATOM     18  O   UNL     1      32.213 -14.712 -22.223  0.00  0.00    -0.050 OA
ENDBRANCH  13  15
ENDBRANCH   3  13
TORSDOF 3
ENDMDL
MODEL 3
REMARK VINA RESULT:      -8.6     10.719     11.746
REMARK  Name = 5327154
REMARK  3 active torsions:
REMARK  status: ('A' for Active; 'I' for Inactive)
REMARK    1  A    between atoms: C_3  and  N_13
REMARK    2  A    between atoms: C_4  and  C_7
REMARK    3  A    between atoms: N_13  and  S_15
REMARK                            x       y       z     vdW  Elec       q    Type
REMARK                         _______ _______ _______ _____ _____    ______ ____
ROOT
ATOM      1  N   UNL     1      35.163 -24.397 -12.930  0.00  0.00    -0.195 N 
ATOM      2  N   UNL     1      33.835 -24.195 -12.885  0.00  0.00    -0.177 NA
ATOM      3  C   UNL     1      35.643 -24.629 -14.185  0.00  0.00    +0.136 C 
ATOM      4  C   UNL     1      33.464 -24.305 -14.165  0.00  0.00    +0.101 C 
ATOM      5  C   UNL     1      34.554 -24.575 -15.020  0.00  0.00    +0.053 C 
ATOM      6  C   UNL     1      35.930 -24.353 -11.706  0.00  0.00    +0.141 C 
ENDROOT
BRANCH   4   7
ATOM      7  C   UNL     1      32.089 -24.149 -14.547  0.00  0.00    +0.019 C 
ATOM      8  C   UNL     1      31.717 -23.116 -15.408  0.00  0.00    +0.002 C 
ATOM      9  C   UNL     1      31.125 -25.030 -14.057  0.00  0.00    +0.002 C 
ATOM     10  C   UNL     1      30.381 -22.965 -15.779  0.00  0.00    +0.000 C 
ATOM     11  C   UNL     1      29.789 -24.879 -14.427  0.00  0.00    +0.000 C 
ATOM     12  C   UNL     1      29.417 -23.846 -15.288  0.00  0.00    +0.000 C 
ENDBRANCH   4   7
BRANCH   3  13
ATOM     13  N   UNL     1      37.017 -24.881 -14.568  0.00  0.00    -0.199 N 
ATOM     14  H   UNL     1      37.665 -24.160 -14.741  0.00  0.00    +0.175 HD
BRANCH  13  15
ATOM     15  S   UNL     1      37.422 -26.570 -14.695  0.00  0.00    +0.092 S 
ATOM     16  O   UNL     1      39.043 -26.573 -14.877  0.00  0.00    -0.050 OA
ATOM     17  O   UNL     1      36.851 -27.095 -15.921  0.00  0.00    -0.050 OA
ATOM     18  O   UNL     1      37.130 -27.202 -13.420  0.00  0.00    -0.050 OA
ENDBRANCH  13  15
ENDBRANCH   3  13
TORSDOF 3
ENDMDL
MODEL 4
REMARK VINA RESULT:      -8.5      1.518      2.098
REMARK  Name = 5327154
REMARK  3 active torsions:
REMARK  status: ('A' for Active; 'I' for Inactive)
REMARK    1  A    between atoms: C_3  and  N_13
REMARK    2  A    between atoms: C_4  and  C_7
REMARK    3  A    between atoms: N_13  and  S_15
REMARK                            x       y       z     vdW  Elec       q    Type
REMARK                         _______ _______ _______ _____ _____    ______ ____
ROOT
ATOM      1  N   UNL     1      34.764 -16.223 -22.001  0.00  0.00    -0.195 N 
ATOM      2  N   UNL     1      34.627 -17.107 -20.999  0.00  0.00    -0.177 NA
ATOM      3  C   UNL     1      35.014 -16.797 -23.212  0.00  0.00    +0.136 C 
ATOM      4  C   UNL     1      34.798 -18.287 -21.604  0.00  0.00    +0.101 C 
ATOM      5  C   UNL     1      35.043 -18.152 -22.987  0.00  0.00    +0.053 C 
ATOM      6  C   UNL     1      34.640 -14.810 -21.724  0.00  0.00    +0.141 C 
ENDROOT
BRANCH   4   7
ATOM      7  C   UNL     1      34.723 -19.512 -20.859  0.00  0.00    +0.019 C 
ATOM      8  C   UNL     1      33.481 -20.029 -20.490  0.00  0.00    +0.002 C 
ATOM      9  C   UNL     1      35.892 -20.186 -20.505  0.00  0.00    +0.002 C 
ATOM     10  C   UNL     1      33.408 -21.219 -19.766  0.00  0.00    +0.000 C 
ATOM     11  C   UNL     1      35.819 -21.376 -19.782  0.00  0.00    +0.000 C 
ATOM     12  C   UNL     1      34.577 -21.892 -19.412  0.00  0.00    +0.000 C 
ENDBRANCH   4   7
BRANCH   3  13
ATOM     13  N   UNL     1      35.211 -16.125 -24.480  0.00  0.00    -0.199 N 
ATOM     14  H   UNL     1      36.097 -15.843 -24.805  0.00  0.00    +0.175 HD
BRANCH  13  15
ATOM     15  S   UNL     1      33.744 -15.858 -25.380  0.00  0.00    +0.092 S 
ATOM     16  O   UNL     1      34.219 -14.943 -26.645  0.00  0.00    -0.050 OA
ATOM     17  O   UNL     1      32.846 -15.049 -24.578  0.00  0.00    -0.050 OA
ATOM     18  O   UNL     1      33.302 -17.135 -25.913  0.00  0.00    -0.050 OA
ENDBRANCH  13  15
ENDBRANCH   3  13
TORSDOF 3
ENDMDL
MODEL 5
REMARK VINA RESULT:      -8.4      8.893     10.681
REMARK  Name = 5327154
REMARK  3 active torsions:
REMARK  status: ('A' for Active; 'I' for Inactive)
REMARK    1  A    between atoms: C_3  and  N_13
REMARK    2  A    between atoms: C_4  and  C_7
REMARK    3  A    between atoms: N_13  and  S_15
REMARK                            x       y       z     vdW  Elec       q    Type
REMARK                         _______ _______ _______ _____ _____    ______ ____
ROOT
ATOM      1  N   UNL     1      34.001 -24.213 -14.432  0.00  0.00    -0.195 N 
ATOM      2  N   UNL     1      33.758 -23.472 -15.527  0.00  0.00    -0.177 NA
ATOM      3  C   UNL     1      35.308 -24.574 -14.290  0.00  0.00    +0.136 C 
ATOM      4  C   UNL     1      34.963 -23.364 -16.098  0.00  0.00    +0.101 C 
ATOM      5  C   UNL     1      35.967 -24.033 -15.367  0.00  0.00    +0.053 C 
ATOM      6  C   UNL     1      32.911 -24.545 -13.544  0.00  0.00    +0.141 C 
ENDROOT
BRANCH   4   7
ATOM      7  C   UNL     1      35.133 -22.627 -17.319  0.00  0.00    +0.019 C 
ATOM      8  C   UNL     1      36.353 -22.012 -17.598  0.00  0.00    +0.002 C 
ATOM      9  C   UNL     1      34.077 -22.527 -18.225  0.00  0.00    +0.002 C 
ATOM     10  C   UNL     1      36.518 -21.297 -18.784  0.00  0.00    +0.000 C 
ATOM     11  C   UNL     1      34.242 -21.812 -19.411  0.00  0.00    +0.000 C 
ATOM     12  C   UNL     1      35.462 -21.197 -19.691  0.00  0.00    +0.000 C 
ENDBRANCH   4   7
BRANCH   3  13
ATOM     13  N   UNL     1      35.890 -25.365 -13.226  0.00  0.00    -0.199 N 
ATOM     14  H   UNL     1      36.110 -26.320 -13.327  0.00  0.00    +0.175 HD
BRANCH  13  15
ATOM     15  S   UNL     1      36.167 -24.481 -11.751  0.00  0.00    +0.092 S 
ATOM     16  O   UNL     1      37.697 -24.872 -11.340  0.00  0.00    -0.050 OA
ATOM     17  O   UNL     1      35.297 -25.012 -10.719  0.00  0.00    -0.050 OA
ATOM     18  O   UNL     1      36.153 -23.063 -12.065  0.00  0.00    -0.050 OA
ENDBRANCH  13  15
ENDBRANCH   3  13
TORSDOF 3
ENDMDL
MODEL 6
REMARK VINA RESULT:      -8.3      9.860     11.353
REMARK  Name = 5327154
REMARK  3 active torsions:
REMARK  status: ('A' for Active; 'I' for Inactive)
REMARK    1  A    between atoms: C_3  and  N_13
REMARK    2  A    between atoms: C_4  and  C_7
REMARK    3  A    between atoms: N_13  and  S_15
REMARK                            x       y       z     vdW  Elec       q    Type
REMARK                         _______ _______ _______ _____ _____    ______ ____
ROOT
ATOM      1  N   UNL     1      37.009 -24.287 -13.159  0.00  0.00    -0.195 N 
ATOM      2  N   UNL     1      35.805 -23.720 -13.344  0.00  0.00    -0.177 NA
ATOM      3  C   UNL     1      37.331 -25.217 -14.103  0.00  0.00    +0.136 C 
ATOM      4  C   UNL     1      35.350 -24.319 -14.450  0.00  0.00    +0.101 C 
ATOM      5  C   UNL     1      36.263 -25.263 -14.965  0.00  0.00    +0.053 C 
ATOM      6  C   UNL     1      37.820 -23.882 -12.034  0.00  0.00    +0.141 C 
ENDROOT
BRANCH   4   7
ATOM      7  C   UNL     1      34.064 -23.980 -14.991  0.00  0.00    +0.019 C 
ATOM      8  C   UNL     1      32.919 -24.111 -14.205  0.00  0.00    +0.002 C 
ATOM      9  C   UNL     1      33.959 -23.519 -16.304  0.00  0.00    +0.002 C 
ATOM     10  C   UNL     1      31.670 -23.781 -14.731  0.00  0.00    +0.000 C 
ATOM     11  C   UNL     1      32.711 -23.190 -16.830  0.00  0.00    +0.000 C 
ATOM     12  C   UNL     1      31.566 -23.321 -16.044  0.00  0.00    +0.000 C 
ENDBRANCH   4   7
BRANCH   3  13
ATOM     13  N   UNL     1      38.546 -26.001 -14.186  0.00  0.00    -0.199 N 
ATOM     14  H   UNL     1      38.616 -26.918 -13.833  0.00  0.00    +0.175 HD
BRANCH  13  15
ATOM     15  S   UNL     1      39.871 -25.181 -14.963  0.00  0.00    +0.092 S 
ATOM     16  O   UNL     1      40.890 -24.832 -13.738  0.00  0.00    -0.050 OA
ATOM     17  O   UNL     1      39.391 -23.920 -15.494  0.00  0.00    -0.050 OA
ATOM     18  O   UNL     1      40.546 -26.132 -15.829  0.00  0.00    -0.050 OA
ENDBRANCH  13  15
ENDBRANCH   3  13
TORSDOF 3
ENDMDL
MODEL 7
REMARK VINA RESULT:      -8.3      8.494     10.060
REMARK  Name = 5327154
REMARK  3 active torsions:
REMARK  status: ('A' for Active; 'I' for Inactive)
REMARK    1  A    between atoms: C_3  and  N_13
REMARK    2  A    between atoms: C_4  and  C_7
REMARK    3  A    between atoms: N_13  and  S_15
REMARK                            x       y       z     vdW  Elec       q    Type
REMARK                         _______ _______ _______ _____ _____    ______ ____
ROOT
ATOM      1  N   UNL     1      35.380 -23.868 -15.295  0.00  0.00    -0.195 N 
ATOM      2  N   UNL     1      34.808 -23.338 -16.390  0.00  0.00    -0.177 NA
ATOM      3  C   UNL     1      36.698 -23.549 -15.152  0.00  0.00    +0.136 C 
ATOM      4  C   UNL     1      35.809 -22.658 -16.960  0.00  0.00    +0.101 C 
ATOM      5  C   UNL     1      37.011 -22.756 -16.229  0.00  0.00    +0.053 C 
ATOM      6  C   UNL     1      34.588 -24.688 -14.407  0.00  0.00    +0.141 C 
ENDROOT
BRANCH   4   7
ATOM      7  C   UNL     1      35.600 -21.931 -18.181  0.00  0.00    +0.019 C 
ATOM      8  C   UNL     1      36.672 -21.294 -18.806  0.00  0.00    +0.002 C 
ATOM      9  C   UNL     1      34.324 -21.862 -18.742  0.00  0.00    +0.002 C 
ATOM     10  C   UNL     1      36.469 -20.589 -19.991  0.00  0.00    +0.000 C 
ATOM     11  C   UNL     1      34.121 -21.157 -19.927  0.00  0.00    +0.000 C 
ATOM     12  C   UNL     1      35.193 -20.520 -20.552  0.00  0.00    +0.000 C 
ENDBRANCH   4   7
BRANCH   3  13
ATOM     13  N   UNL     1      37.591 -23.959 -14.088  0.00  0.00    -0.199 N 
ATOM     14  H   UNL     1      37.597 -23.533 -13.201  0.00  0.00    +0.175 HD
BRANCH  13  15
ATOM     15  S   UNL     1      38.653 -25.272 -14.517  0.00  0.00    +0.092 S 
ATOM     16  O   UNL     1      39.005 -25.974 -13.087  0.00  0.00    -0.050 OA
ATOM     17  O   UNL     1      39.888 -24.720 -15.039  0.00  0.00    -0.050 OA
ATOM     18  O   UNL     1      37.892 -26.233 -15.294  0.00  0.00    -0.050 OA
ENDBRANCH  13  15
ENDBRANCH   3  13
TORSDOF 3
ENDMDL
MODEL 8
REMARK VINA RESULT:      -8.3      1.532      2.433
REMARK  Name = 5327154
REMARK  3 active torsions:
REMARK  status: ('A' for Active; 'I' for Inactive)
REMARK    1  A    between atoms: C_3  and  N_13
REMARK    2  A    between atoms: C_4  and  C_7
REMARK    3  A    between atoms: N_13  and  S_15
REMARK                            x       y       z     vdW  Elec       q    Type
REMARK                         _______ _______ _______ _____ _____    ______ ____
ROOT
ATOM      1  N   UNL     1      34.736 -16.175 -22.104  0.00  0.00    -0.195 N 
ATOM      2  N   UNL     1      34.553 -17.045 -21.096  0.00  0.00    -0.177 NA
ATOM      3  C   UNL     1      35.017 -16.767 -23.299  0.00  0.00    +0.136 C 
ATOM      4  C   UNL     1      34.727 -18.235 -21.682  0.00  0.00    +0.101 C 
ATOM      5  C   UNL     1      35.019 -18.119 -23.057  0.00  0.00    +0.053 C 
ATOM      6  C   UNL     1      34.623 -14.758 -21.847  0.00  0.00    +0.141 C 
ENDROOT
BRANCH   4   7
ATOM      7  C   UNL     1      34.609 -19.450 -20.926  0.00  0.00    +0.019 C 
ATOM      8  C   UNL     1      35.755 -20.146 -20.542  0.00  0.00    +0.002 C 
ATOM      9  C   UNL     1      33.349 -19.933 -20.574  0.00  0.00    +0.002 C 
ATOM     10  C   UNL     1      35.641 -21.326 -19.807  0.00  0.00    +0.000 C 
ATOM     11  C   UNL     1      33.234 -21.113 -19.839  0.00  0.00    +0.000 C 
ATOM     12  C   UNL     1      34.380 -21.809 -19.455  0.00  0.00    +0.000 C 
ENDBRANCH   4   7
BRANCH   3  13
ATOM     13  N   UNL     1      35.265 -16.113 -24.567  0.00  0.00    -0.199 N 
ATOM     14  H   UNL     1      36.161 -15.821 -24.853  0.00  0.00    +0.175 HD
BRANCH  13  15
ATOM     15  S   UNL     1      33.840 -15.890 -25.544  0.00  0.00    +0.092 S 
ATOM     16  O   UNL     1      32.818 -15.076 -24.567  0.00  0.00    -0.050 OA
ATOM     17  O   UNL     1      33.245 -17.187 -25.803  0.00  0.00    -0.050 OA
ATOM     18  O   UNL     1      34.181 -15.006 -26.645  0.00  0.00    -0.050 OA
ENDBRANCH  13  15
ENDBRANCH   3  13
TORSDOF 3
ENDMDL
MODEL 9
REMARK VINA RESULT:      -8.3      9.669     10.814
REMARK  Name = 5327154
REMARK  3 active torsions:
REMARK  status: ('A' for Active; 'I' for Inactive)
REMARK    1  A    between atoms: C_3  and  N_13
REMARK    2  A    between atoms: C_4  and  C_7
REMARK    3  A    between atoms: N_13  and  S_15
REMARK                            x       y       z     vdW  Elec       q    Type
REMARK                         _______ _______ _______ _____ _____    ______ ____
ROOT
ATOM      1  N   UNL     1      36.291 -23.077 -15.824  0.00  0.00    -0.195 N 
ATOM      2  N   UNL     1      35.018 -22.701 -16.032  0.00  0.00    -0.177 NA
ATOM      3  C   UNL     1      36.426 -24.089 -14.920  0.00  0.00    +0.136 C 
ATOM      4  C   UNL     1      34.323 -23.510 -15.225  0.00  0.00    +0.101 C 
ATOM      5  C   UNL     1      35.153 -24.396 -14.507  0.00  0.00    +0.053 C 
ATOM      6  C   UNL     1      37.354 -22.411 -16.540  0.00  0.00    +0.141 C 
ENDROOT
BRANCH   4   7
ATOM      7  C   UNL     1      32.891 -23.424 -15.156  0.00  0.00    +0.019 C 
ATOM      8  C   UNL     1      32.147 -23.230 -16.320  0.00  0.00    +0.002 C 
ATOM      9  C   UNL     1      32.244 -23.535 -13.925  0.00  0.00    +0.002 C 
ATOM     10  C   UNL     1      30.756 -23.148 -16.252  0.00  0.00    +0.000 C 
ATOM     11  C   UNL     1      30.854 -23.453 -13.857  0.00  0.00    +0.000 C 
ATOM     12  C   UNL     1      30.110 -23.259 -15.021  0.00  0.00    +0.000 C 
ENDBRANCH   4   7
BRANCH   3  13
ATOM     13  N   UNL     1      37.655 -24.715 -14.479  0.00  0.00    -0.199 N 
ATOM     14  H   UNL     1      38.425 -24.204 -14.138  0.00  0.00    +0.175 HD
BRANCH  13  15
ATOM     15  S   UNL     1      37.654 -26.453 -14.606  0.00  0.00    +0.092 S 
ATOM     16  O   UNL     1      39.233 -26.838 -14.752  0.00  0.00    -0.050 OA
ATOM     17  O   UNL     1      37.004 -26.829 -15.847  0.00  0.00    -0.050 OA
ATOM     18  O   UNL     1      37.192 -26.997 -13.341  0.00  0.00    -0.050 OA
ENDBRANCH  13  15
ENDBRANCH   3  13
TORSDOF 3
ENDMDL
