MODEL 1
REMARK VINA RESULT:     -10.8      0.000      0.000
REMARK  Name = 9842127
REMARK  4 active torsions:
REMARK  status: ('A' for Active; 'I' for Inactive)
REMARK    1  A    between atoms: C_5  and  O_19
REMARK    2  A    between atoms: C_5  and  C_21
REMARK    3  A    between atoms: C_18  and  O_23
REMARK    4  A    between atoms: O_23  and  C_24
REMARK                            x       y       z     vdW  Elec       q    Type
REMARK                         _______ _______ _______ _____ _____    ______ ____
ROOT
ATOM      1  C   UNL     1      36.329 -25.102 -14.130  0.00  0.00    +0.033 C 
ATOM      2  C   UNL     1      37.104 -23.845 -14.580  0.00  0.00    +0.004 C 
ATOM      3  C   UNL     1      36.758 -23.406 -16.005  0.00  0.00    +0.005 C 
ATOM      4  C   UNL     1      35.234 -23.118 -16.106  0.00  0.00    +0.004 C 
ATOM      5  C   UNL     1      36.978 -25.348 -12.733  0.00  0.00    +0.142 C 
ATOM      6  C   UNL     1      34.827 -24.763 -14.152  0.00  0.00    +0.003 C 
ATOM      7  C   UNL     1      38.557 -24.184 -14.257  0.00  0.00    +0.004 C 
ATOM      8  C   UNL     1      34.371 -24.270 -15.537  0.00  0.00    +0.000 C 
ATOM      9  C   UNL     1      38.482 -25.066 -12.994  0.00  0.00    +0.039 C 
ATOM     10  C   UNL     1      34.871 -22.786 -17.584  0.00  0.00    +0.023 C 
ATOM     11  C   UNL     1      37.565 -22.167 -16.424  0.00  0.00    +0.026 C 
ATOM     12  C   UNL     1      36.568 -26.342 -15.039  0.00  0.00    +0.003 C 
ATOM     13  C   UNL     1      35.832 -21.774 -18.198  0.00  0.00    -0.024 C 
ATOM     14  C   UNL     1      33.418 -22.288 -17.724  0.00  0.00    +0.012 C 
ATOM     15  C   UNL     1      37.036 -21.507 -17.662  0.00  0.00    -0.030 C 
ATOM     16  C   UNL     1      33.065 -21.972 -19.182  0.00  0.00    +0.064 C 
ATOM     17  C   UNL     1      35.393 -21.091 -19.403  0.00  0.00    +0.028 C 
ATOM     18  C   UNL     1      34.142 -21.189 -19.875  0.00  0.00    +0.116 C 
ENDROOT
BRANCH   5  19
ATOM     19  O   UNL     1      36.819 -26.690 -12.292  0.00  0.00    -0.375 OA
ATOM     20  H   UNL     1      37.669 -27.029 -11.970  0.00  0.00    +0.211 HD
ENDBRANCH   5  19
BRANCH   5  21
ATOM     21  C   UNL     1      36.477 -24.450 -11.675  0.00  0.00    -0.053 C 
ATOM     22  C   UNL     1      36.069 -23.721 -10.814  0.00  0.00    -0.012 C 
ENDBRANCH   5  21
BRANCH  18  23
ATOM     23  O   UNL     1      33.780 -20.535 -21.037  0.00  0.00    -0.483 OA
BRANCH  23  24
ATOM     24  C   UNL     1      34.709 -19.519 -21.350  0.00  0.00    +0.165 C 
ATOM     25  C   UNL     1      34.157 -18.147 -21.000  0.00  0.00    +0.044 C 
ATOM     26  C   UNL     1      34.944 -19.410 -22.849  0.00  0.00    +0.044 C 
ATOM     27  C   UNL     1      34.994 -17.189 -21.837  0.00  0.00    +0.004 C 
ATOM     28  C   UNL     1      35.489 -17.999 -23.038  0.00  0.00    +0.004 C 
ENDBRANCH  23  24
ENDBRANCH  18  23
TORSDOF 4
ENDMDL
MODEL 2
REMARK VINA RESULT:     -10.0      1.693      9.037
REMARK  Name = 9842127
REMARK  4 active torsions:
REMARK  status: ('A' for Active; 'I' for Inactive)
REMARK    1  A    between atoms: C_5  and  O_19
REMARK    2  A    between atoms: C_5  and  C_21
REMARK    3  A    between atoms: C_18  and  O_23
REMARK    4  A    between atoms: O_23  and  C_24
REMARK                            x       y       z     vdW  Elec       q    Type
REMARK                         _______ _______ _______ _____ _____    ______ ____
ROOT
ATOM      1  C   UNL     1      34.390 -18.845 -21.777  0.00  0.00    +0.033 C 
ATOM      2  C   UNL     1      35.670 -19.613 -21.385  0.00  0.00    +0.004 C 
ATOM      3  C   UNL     1      35.608 -20.199 -19.971  0.00  0.00    +0.005 C 
ATOM      4  C   UNL     1      34.391 -21.161 -19.859  0.00  0.00    +0.004 C 
ATOM      5  C   UNL     1      34.810 -18.290 -23.172  0.00  0.00    +0.142 C 
ATOM      6  C   UNL     1      33.214 -19.839 -21.745  0.00  0.00    +0.003 C 
ATOM      7  C   UNL     1      36.793 -18.634 -21.716  0.00  0.00    +0.004 C 
ATOM      8  C   UNL     1      33.078 -20.522 -20.372  0.00  0.00    +0.000 C 
ATOM      9  C   UNL     1      36.281 -17.854 -22.945  0.00  0.00    +0.039 C 
ATOM     10  C   UNL     1      34.266 -21.662 -18.390  0.00  0.00    +0.023 C 
ATOM     11  C   UNL     1      36.906 -20.938 -19.611  0.00  0.00    +0.026 C 
ATOM     12  C   UNL     1      34.058 -17.658 -20.826  0.00  0.00    +0.003 C 
ATOM     13  C   UNL     1      35.604 -22.132 -17.827  0.00  0.00    -0.024 C 
ATOM     14  C   UNL     1      33.211 -22.776 -18.247  0.00  0.00    +0.012 C 
ATOM     15  C   UNL     1      36.778 -21.799 -18.391  0.00  0.00    -0.030 C 
ATOM     16  C   UNL     1      33.087 -23.258 -16.797  0.00  0.00    +0.064 C 
ATOM     17  C   UNL     1      35.564 -22.971 -16.642  0.00  0.00    +0.028 C 
ATOM     18  C   UNL     1      34.424 -23.474 -16.148  0.00  0.00    +0.116 C 
ENDROOT
BRANCH   5  19
ATOM     19  O   UNL     1      34.037 -17.162 -23.561  0.00  0.00    -0.375 OA
ATOM     20  H   UNL     1      34.124 -16.464 -22.893  0.00  0.00    +0.211 HD
ENDBRANCH   5  19
BRANCH   5  21
ATOM     21  C   UNL     1      34.747 -19.290 -24.256  0.00  0.00    -0.053 C 
ATOM     22  C   UNL     1      34.697 -20.104 -25.136  0.00  0.00    -0.012 C 
ENDBRANCH   5  21
BRANCH  18  23
ATOM     23  O   UNL     1      34.439 -24.250 -15.006  0.00  0.00    -0.483 OA
BRANCH  23  24
ATOM     24  C   UNL     1      35.754 -24.664 -14.699  0.00  0.00    +0.165 C 
ATOM     25  C   UNL     1      35.989 -26.102 -15.132  0.00  0.00    +0.044 C 
ATOM     26  C   UNL     1      35.990 -24.726 -13.198  0.00  0.00    +0.044 C 
ATOM     27  C   UNL     1      37.188 -26.544 -14.303  0.00  0.00    +0.004 C 
ATOM     28  C   UNL     1      37.180 -25.667 -13.048  0.00  0.00    +0.004 C 
ENDBRANCH  23  24
ENDBRANCH  18  23
TORSDOF 4
ENDMDL
MODEL 3
REMARK VINA RESULT:     -10.0      1.245      2.742
REMARK  Name = 9842127
REMARK  4 active torsions:
REMARK  status: ('A' for Active; 'I' for Inactive)
REMARK    1  A    between atoms: C_5  and  O_19
REMARK    2  A    between atoms: C_5  and  C_21
REMARK    3  A    between atoms: C_18  and  O_23
REMARK    4  A    between atoms: O_23  and  C_24
REMARK                            x       y       z     vdW  Elec       q    Type
REMARK                         _______ _______ _______ _____ _____    ______ ____
ROOT
ATOM      1  C   UNL     1      36.951 -23.571 -14.556  0.00  0.00    +0.033 C 
ATOM      2  C   UNL     1      35.628 -24.040 -15.198  0.00  0.00    +0.004 C 
ATOM      3  C   UNL     1      35.046 -23.022 -16.183  0.00  0.00    +0.005 C 
ATOM      4  C   UNL     1      36.079 -22.738 -17.311  0.00  0.00    +0.004 C 
ATOM      5  C   UNL     1      37.205 -24.736 -13.551  0.00  0.00    +0.142 C 
ATOM      6  C   UNL     1      37.983 -23.384 -15.684  0.00  0.00    +0.003 C 
ATOM      7  C   UNL     1      34.778 -24.462 -14.003  0.00  0.00    +0.004 C 
ATOM      8  C   UNL     1      37.486 -22.402 -16.759  0.00  0.00    +0.000 C 
ATOM      9  C   UNL     1      35.790 -25.017 -12.980  0.00  0.00    +0.039 C 
ATOM     10  C   UNL     1      35.529 -21.618 -18.242  0.00  0.00    +0.023 C 
ATOM     11  C   UNL     1      33.721 -23.514 -16.785  0.00  0.00    +0.026 C 
ATOM     12  C   UNL     1      36.825 -22.230 -13.776  0.00  0.00    +0.003 C 
ATOM     13  C   UNL     1      34.079 -21.867 -18.645  0.00  0.00    -0.024 C 
ATOM     14  C   UNL     1      36.403 -21.429 -19.497  0.00  0.00    +0.012 C 
ATOM     15  C   UNL     1      33.284 -22.724 -17.981  0.00  0.00    -0.030 C 
ATOM     16  C   UNL     1      35.860 -20.318 -20.404  0.00  0.00    +0.064 C 
ATOM     17  C   UNL     1      33.578 -21.136 -19.797  0.00  0.00    +0.028 C 
ATOM     18  C   UNL     1      34.373 -20.409 -20.594  0.00  0.00    +0.116 C 
ENDROOT
BRANCH   5  19
ATOM     19  O   UNL     1      38.074 -24.357 -12.492  0.00  0.00    -0.375 OA
ATOM     20  H   UNL     1      37.860 -23.456 -12.203  0.00  0.00    +0.211 HD
ENDBRANCH   5  19
BRANCH   5  21
ATOM     21  C   UNL     1      37.743 -25.958 -14.177  0.00  0.00    -0.053 C 
ATOM     22  C   UNL     1      38.180 -26.954 -14.687  0.00  0.00    -0.012 C 
ENDBRANCH   5  21
BRANCH  18  23
ATOM     23  O   UNL     1      33.844 -19.716 -21.665  0.00  0.00    -0.483 OA
BRANCH  23  24
ATOM     24  C   UNL     1      34.725 -18.695 -22.086  0.00  0.00    +0.165 C 
ATOM     25  C   UNL     1      34.281 -17.340 -21.562  0.00  0.00    +0.044 C 
ATOM     26  C   UNL     1      34.683 -18.499 -23.593  0.00  0.00    +0.044 C 
ATOM     27  C   UNL     1      34.974 -16.344 -22.483  0.00  0.00    +0.004 C 
ATOM     28  C   UNL     1      35.219 -17.086 -23.799  0.00  0.00    +0.004 C 
ENDBRANCH  23  24
ENDBRANCH  18  23
TORSDOF 4
ENDMDL
MODEL 4
REMARK VINA RESULT:      -8.9      3.046      9.073
REMARK  Name = 9842127
REMARK  4 active torsions:
REMARK  status: ('A' for Active; 'I' for Inactive)
REMARK    1  A    between atoms: C_5  and  O_19
REMARK    2  A    between atoms: C_5  and  C_21
REMARK    3  A    between atoms: C_18  and  O_23
REMARK    4  A    between atoms: O_23  and  C_24
REMARK                            x       y       z     vdW  Elec       q    Type
REMARK                         _______ _______ _______ _____ _____    ______ ____
ROOT
ATOM      1  C   UNL     1      34.426 -18.641 -21.966  0.00  0.00    +0.033 C 
ATOM      2  C   UNL     1      35.605 -19.536 -21.526  0.00  0.00    +0.004 C 
ATOM      3  C   UNL     1      35.421 -20.125 -20.125  0.00  0.00    +0.005 C 
ATOM      4  C   UNL     1      34.111 -20.963 -20.080  0.00  0.00    +0.004 C 
ATOM      5  C   UNL     1      34.963 -18.119 -23.333  0.00  0.00    +0.142 C 
ATOM      6  C   UNL     1      33.158 -19.515 -22.000  0.00  0.00    +0.003 C 
ATOM      7  C   UNL     1      36.833 -18.670 -21.794  0.00  0.00    +0.004 C 
ATOM      8  C   UNL     1      32.892 -20.193 -20.644  0.00  0.00    +0.000 C 
ATOM      9  C   UNL     1      36.458 -17.832 -23.034  0.00  0.00    +0.039 C 
ATOM     10  C   UNL     1      33.871 -21.461 -18.624  0.00  0.00    +0.023 C 
ATOM     11  C   UNL     1      36.623 -20.991 -19.715  0.00  0.00    +0.026 C 
ATOM     12  C   UNL     1      34.169 -17.436 -21.015  0.00  0.00    +0.003 C 
ATOM     13  C   UNL     1      35.128 -22.065 -18.008  0.00  0.00    -0.024 C 
ATOM     14  C   UNL     1      32.706 -22.467 -18.544  0.00  0.00    +0.012 C 
ATOM     15  C   UNL     1      36.354 -21.845 -18.514  0.00  0.00    -0.030 C 
ATOM     16  C   UNL     1      32.468 -22.946 -17.107  0.00  0.00    +0.064 C 
ATOM     17  C   UNL     1      34.952 -22.907 -16.837  0.00  0.00    +0.028 C 
ATOM     18  C   UNL     1      33.746 -23.298 -16.402  0.00  0.00    +0.116 C 
ENDROOT
BRANCH   5  19
ATOM     19  O   UNL     1      34.324 -16.917 -23.742  0.00  0.00    -0.375 OA
ATOM     20  H   UNL     1      34.817 -16.155 -23.399  0.00  0.00    +0.211 HD
ENDBRANCH   5  19
BRANCH   5  21
ATOM     21  C   UNL     1      34.852 -19.099 -24.431  0.00  0.00    -0.053 C 
ATOM     22  C   UNL     1      34.763 -19.897 -25.324  0.00  0.00    -0.012 C 
ENDBRANCH   5  21
BRANCH  18  23
ATOM     23  O   UNL     1      33.632 -24.082 -15.270  0.00  0.00    -0.483 OA
BRANCH  23  24
ATOM     24  C   UNL     1      32.296 -24.106 -14.811  0.00  0.00    +0.165 C 
ATOM     25  C   UNL     1      32.003 -22.909 -13.922  0.00  0.00    +0.044 C 
ATOM     26  C   UNL     1      32.040 -25.282 -13.881  0.00  0.00    +0.044 C 
ATOM     27  C   UNL     1      30.776 -23.335 -13.125  0.00  0.00    +0.004 C 
ATOM     28  C   UNL     1      30.809 -24.865 -13.085  0.00  0.00    +0.004 C 
ENDBRANCH  23  24
ENDBRANCH  18  23
TORSDOF 4
ENDMDL
MODEL 5
REMARK VINA RESULT:      -8.4      7.864     14.933
REMARK  Name = 9842127
REMARK  4 active torsions:
REMARK  status: ('A' for Active; 'I' for Inactive)
REMARK    1  A    between atoms: C_5  and  O_19
REMARK    2  A    between atoms: C_5  and  C_21
REMARK    3  A    between atoms: C_18  and  O_23
REMARK    4  A    between atoms: O_23  and  C_24
REMARK                            x       y       z     vdW  Elec       q    Type
REMARK                         _______ _______ _______ _____ _____    ______ ____
ROOT
ATOM      1  C   UNL     1      32.852  -7.898 -22.768  0.00  0.00    +0.033 C 
ATOM      2  C   UNL     1      33.235  -8.796 -23.963  0.00  0.00    +0.004 C 
ATOM      3  C   UNL     1      33.643 -10.210 -23.544  0.00  0.00    +0.005 C 
ATOM      4  C   UNL     1      32.475 -10.881 -22.766  0.00  0.00    +0.004 C 
ATOM      5  C   UNL     1      32.616  -6.540 -23.498  0.00  0.00    +0.142 C 
ATOM      6  C   UNL     1      31.638  -8.536 -22.068  0.00  0.00    +0.003 C 
ATOM      7  C   UNL     1      34.240  -7.950 -24.741  0.00  0.00    +0.004 C 
ATOM      8  C   UNL     1      31.923  -9.984 -21.632  0.00  0.00    +0.000 C 
ATOM      9  C   UNL     1      33.772  -6.495 -24.532  0.00  0.00    +0.039 C 
ATOM     10  C   UNL     1      32.938 -12.272 -22.243  0.00  0.00    +0.023 C 
ATOM     11  C   UNL     1      34.037 -11.067 -24.758  0.00  0.00    +0.026 C 
ATOM     12  C   UNL     1      33.993  -7.731 -21.721  0.00  0.00    +0.003 C 
ATOM     13  C   UNL     1      33.640 -13.089 -23.324  0.00  0.00    -0.024 C 
ATOM     14  C   UNL     1      31.772 -13.081 -21.643  0.00  0.00    +0.012 C 
ATOM     15  C   UNL     1      34.124 -12.530 -24.447  0.00  0.00    -0.030 C 
ATOM     16  C   UNL     1      32.237 -14.446 -21.121  0.00  0.00    +0.064 C 
ATOM     17  C   UNL     1      33.766 -14.518 -23.096  0.00  0.00    +0.028 C 
ATOM     18  C   UNL     1      33.151 -15.147 -22.085  0.00  0.00    +0.116 C 
ENDROOT
BRANCH   5  19
ATOM     19  O   UNL     1      32.723  -5.428 -22.621  0.00  0.00    -0.375 OA
ATOM     20  H   UNL     1      31.985  -5.439 -21.991  0.00  0.00    +0.211 HD
ENDBRANCH   5  19
BRANCH   5  21
ATOM     21  C   UNL     1      31.319  -6.457 -24.197  0.00  0.00    -0.053 C 
ATOM     22  C   UNL     1      30.263  -6.387 -24.764  0.00  0.00    -0.012 C 
ENDBRANCH   5  21
BRANCH  18  23
ATOM     23  O   UNL     1      33.319 -16.505 -21.900  0.00  0.00    -0.483 OA
BRANCH  23  24
ATOM     24  C   UNL     1      34.634 -16.897 -22.236  0.00  0.00    +0.165 C 
ATOM     25  C   UNL     1      34.630 -17.907 -23.371  0.00  0.00    +0.044 C 
ATOM     26  C   UNL     1      35.299 -17.669 -21.107  0.00  0.00    +0.044 C 
ATOM     27  C   UNL     1      35.986 -18.590 -23.260  0.00  0.00    +0.004 C 
ATOM     28  C   UNL     1      36.411 -18.451 -21.796  0.00  0.00    +0.004 C 
ENDBRANCH  23  24
ENDBRANCH  18  23
TORSDOF 4
ENDMDL
MODEL 6
REMARK VINA RESULT:      -8.3      1.849      3.730
REMARK  Name = 9842127
REMARK  4 active torsions:
REMARK  status: ('A' for Active; 'I' for Inactive)
REMARK    1  A    between atoms: C_5  and  O_19
REMARK    2  A    between atoms: C_5  and  C_21
REMARK    3  A    between atoms: C_18  and  O_23
REMARK    4  A    between atoms: O_23  and  C_24
REMARK                            x       y       z     vdW  Elec       q    Type
REMARK                         _______ _______ _______ _____ _____    ______ ____
ROOT
ATOM      1  C   UNL     1      35.689 -23.258 -15.493  0.00  0.00    +0.033 C 
ATOM      2  C   UNL     1      34.679 -23.420 -16.649  0.00  0.00    +0.004 C 
ATOM      3  C   UNL     1      34.659 -22.220 -17.600  0.00  0.00    +0.005 C 
ATOM      4  C   UNL     1      36.078 -22.006 -18.200  0.00  0.00    +0.004 C 
ATOM      5  C   UNL     1      35.385 -24.546 -14.670  0.00  0.00    +0.142 C 
ATOM      6  C   UNL     1      37.096 -23.137 -16.108  0.00  0.00    +0.003 C 
ATOM      7  C   UNL     1      33.384 -23.809 -15.943  0.00  0.00    +0.004 C 
ATOM      8  C   UNL     1      37.183 -21.978 -17.116  0.00  0.00    +0.000 C 
ATOM      9  C   UNL     1      33.836 -24.635 -14.721  0.00  0.00    +0.039 C 
ATOM     10  C   UNL     1      36.077 -20.716 -19.073  0.00  0.00    +0.023 C 
ATOM     11  C   UNL     1      33.628 -22.410 -18.724  0.00  0.00    +0.026 C 
ATOM     12  C   UNL     1      35.429 -22.004 -14.609  0.00  0.00    +0.003 C 
ATOM     13  C   UNL     1      34.884 -20.666 -20.022  0.00  0.00    -0.024 C 
ATOM     14  C   UNL     1      37.390 -20.553 -19.863  0.00  0.00    +0.012 C 
ATOM     15  C   UNL     1      33.795 -21.436 -19.851  0.00  0.00    -0.030 C 
ATOM     16  C   UNL     1      37.386 -19.278 -20.714  0.00  0.00    +0.064 C 
ATOM     17  C   UNL     1      34.969 -19.744 -21.142  0.00  0.00    +0.028 C 
ATOM     18  C   UNL     1      36.094 -19.088 -21.456  0.00  0.00    +0.116 C 
ENDROOT
BRANCH   5  19
ATOM     19  O   UNL     1      35.806 -24.436 -13.317  0.00  0.00    -0.375 OA
ATOM     20  H   UNL     1      35.089 -24.061 -12.783  0.00  0.00    +0.211 HD
ENDBRANCH   5  19
BRANCH   5  21
ATOM     21  C   UNL     1      35.974 -25.773 -15.240  0.00  0.00    -0.053 C 
ATOM     22  C   UNL     1      36.456 -26.770 -15.704  0.00  0.00    -0.012 C 
ENDBRANCH   5  21
BRANCH  18  23
ATOM     23  O   UNL     1      36.117 -18.206 -22.519  0.00  0.00    -0.483 OA
BRANCH  23  24
ATOM     24  C   UNL     1      34.935 -18.314 -23.284  0.00  0.00    +0.165 C 
ATOM     25  C   UNL     1      35.041 -19.441 -24.298  0.00  0.00    +0.044 C 
ATOM     26  C   UNL     1      34.718 -17.094 -24.165  0.00  0.00    +0.044 C 
ATOM     27  C   UNL     1      33.978 -19.104 -25.335  0.00  0.00    +0.004 C 
ATOM     28  C   UNL     1      33.781 -17.588 -25.261  0.00  0.00    +0.004 C 
ENDBRANCH  23  24
ENDBRANCH  18  23
TORSDOF 4
ENDMDL
MODEL 7
REMARK VINA RESULT:      -8.1      7.516     10.914
REMARK  Name = 9842127
REMARK  4 active torsions:
REMARK  status: ('A' for Active; 'I' for Inactive)
REMARK    1  A    between atoms: C_5  and  O_19
REMARK    2  A    between atoms: C_5  and  C_21
REMARK    3  A    between atoms: C_18  and  O_23
REMARK    4  A    between atoms: O_23  and  C_24
REMARK                            x       y       z     vdW  Elec       q    Type
REMARK                         _______ _______ _______ _____ _____    ______ ____
ROOT
ATOM      1  C   UNL     1      34.441 -18.096 -21.921  0.00  0.00    +0.033 C 
ATOM      2  C   UNL     1      34.555 -17.183 -23.161  0.00  0.00    +0.004 C 
ATOM      3  C   UNL     1      33.572 -16.009 -23.133  0.00  0.00    +0.005 C 
ATOM      4  C   UNL     1      33.817 -15.155 -21.857  0.00  0.00    +0.004 C 
ATOM      5  C   UNL     1      35.452 -19.219 -22.305  0.00  0.00    +0.142 C 
ATOM      6  C   UNL     1      34.776 -17.249 -20.680  0.00  0.00    +0.003 C 
ATOM      7  C   UNL     1      34.488 -18.159 -24.333  0.00  0.00    +0.004 C 
ATOM      8  C   UNL     1      33.868 -16.011 -20.568  0.00  0.00    +0.000 C 
ATOM      9  C   UNL     1      35.170 -19.441 -23.815  0.00  0.00    +0.039 C 
ATOM     10  C   UNL     1      32.741 -14.033 -21.776  0.00  0.00    +0.023 C 
ATOM     11  C   UNL     1      33.701 -15.137 -24.392  0.00  0.00    +0.026 C 
ATOM     12  C   UNL     1      33.026 -18.715 -21.729  0.00  0.00    +0.003 C 
ATOM     13  C   UNL     1      32.570 -13.302 -23.104  0.00  0.00    -0.024 C 
ATOM     14  C   UNL     1      33.043 -13.023 -20.651  0.00  0.00    +0.012 C 
ATOM     15  C   UNL     1      33.010 -13.813 -24.267  0.00  0.00    -0.030 C 
ATOM     16  C   UNL     1      31.974 -11.926 -20.571  0.00  0.00    +0.064 C 
ATOM     17  C   UNL     1      31.908 -12.009 -23.067  0.00  0.00    +0.028 C 
ATOM     18  C   UNL     1      31.610 -11.381 -21.921  0.00  0.00    +0.116 C 
ENDROOT
BRANCH   5  19
ATOM     19  O   UNL     1      35.211 -20.428 -21.597  0.00  0.00    -0.375 OA
ATOM     20  H   UNL     1      34.255 -20.559 -21.495  0.00  0.00    +0.211 HD
ENDBRANCH   5  19
BRANCH   5  21
ATOM     21  C   UNL     1      36.865 -18.843 -22.111  0.00  0.00    -0.053 C 
ATOM     22  C   UNL     1      38.016 -18.537 -21.953  0.00  0.00    -0.012 C 
ENDBRANCH   5  21
BRANCH  18  23
ATOM     23  O   UNL     1      30.962 -10.162 -21.941  0.00  0.00    -0.483 OA
BRANCH  23  24
ATOM     24  C   UNL     1      31.813  -9.149 -22.435  0.00  0.00    +0.165 C 
ATOM     25  C   UNL     1      32.304  -8.251 -21.311  0.00  0.00    +0.044 C 
ATOM     26  C   UNL     1      31.071  -8.176 -23.337  0.00  0.00    +0.044 C 
ATOM     27  C   UNL     1      32.742  -6.978 -22.022  0.00  0.00    +0.004 C 
ATOM     28  C   UNL     1      31.935  -6.921 -23.321  0.00  0.00    +0.004 C 
ENDBRANCH  23  24
ENDBRANCH  18  23
TORSDOF 4
ENDMDL
