MODEL 1
REMARK VINA RESULT:      -9.4      0.000      0.000
REMARK  Name = 471161
REMARK  6 active torsions:
REMARK  status: ('A' for Active; 'I' for Inactive)
REMARK    1  A    between atoms: N_3  and  C1*_15
REMARK    2  A    between atoms: N_4  and  C_26
REMARK    3  A    between atoms: C2*_16  and  O2*_19
REMARK    4  A    between atoms: C3*_17  and  O3*_21
REMARK    5  A    between atoms: C4*_18  and  C5*_23
REMARK    6  A    between atoms: C5*_23  and  O5*_24
REMARK                            x       y       z     vdW  Elec       q    Type
REMARK                         _______ _______ _______ _____ _____    ______ ____
ROOT
ATOM      1 CL   UNL     1      37.017 -21.243 -19.842  0.00  0.00    -0.082 Cl
ATOM      2 CL   UNL     1      34.422 -19.924 -21.225  0.00  0.00    -0.086 Cl
ATOM      3  N   UNL     1      33.523 -23.451 -16.681  0.00  0.00    -0.224 N 
ATOM      4  N   UNL     1      31.435 -24.009 -15.752  0.00  0.00    -0.298 N 
ATOM      5  N   UNL     1      31.726 -22.542 -17.634  0.00  0.00    -0.376 NA
ATOM      6  C   UNL     1      34.000 -22.675 -17.711  0.00  0.00    +0.084 C 
ATOM      7  C   UNL     1      32.157 -23.336 -16.679  0.00  0.00    +0.243 C 
ATOM      8  C   UNL     1      32.860 -22.121 -18.288  0.00  0.00    +0.131 C 
ATOM      9  C   UNL     1      35.292 -22.423 -18.170  0.00  0.00    +0.029 C 
ATOM     10  C   UNL     1      33.002 -21.259 -19.389  0.00  0.00    +0.099 C 
ATOM     11  C   UNL     1      35.414 -21.564 -19.267  0.00  0.00    +0.066 C 
ATOM     12  C   UNL     1      34.291 -20.991 -19.867  0.00  0.00    +0.053 C 
ATOM     13  H   UNL     1      31.925 -24.566 -15.104  0.00  0.00    +0.150 HD
ENDROOT
BRANCH   3  15
ATOM     14  O4* UNL     1      35.716 -24.217 -16.194  0.00  0.00    -0.333 OA
ATOM     15  C1* UNL     1      34.338 -24.250 -15.765  0.00  0.00    +0.229 C 
ATOM     16  C2* UNL     1      34.292 -23.761 -14.317  0.00  0.00    +0.187 C 
ATOM     17  C3* UNL     1      35.618 -23.039 -14.162  0.00  0.00    +0.171 C 
ATOM     18  C4* UNL     1      36.532 -23.845 -15.071  0.00  0.00    +0.175 C 
BRANCH  16  19
ATOM     19  O2* UNL     1      34.210 -24.888 -13.445  0.00  0.00    -0.378 OA
ATOM     20  H2* UNL     1      35.097 -25.112 -13.123  0.00  0.00    +0.211 HD
ENDBRANCH  16  19
BRANCH  17  21
ATOM     21  O3* UNL     1      36.061 -23.003 -12.823  0.00  0.00    -0.379 OA
ATOM     22  H3* UNL     1      36.203 -23.909 -12.505  0.00  0.00    +0.211 HD
ENDBRANCH  17  21
BRANCH  18  23
ATOM     23  C5* UNL     1      37.743 -23.070 -15.556  0.00  0.00    +0.169 C 
BRANCH  23  24
ATOM     24  O5* UNL     1      38.861 -23.941 -15.578  0.00  0.00    -0.379 OA
ATOM     25  H5* UNL     1      38.679 -24.684 -16.174  0.00  0.00    +0.211 HD
ENDBRANCH  23  24
ENDBRANCH  18  23
ENDBRANCH   3  15
BRANCH   4  26
ATOM     26  C   UNL     1      29.988 -23.967 -15.650  0.00  0.00    +0.073 C 
ATOM     27  C   UNL     1      29.572 -22.681 -14.948  0.00  0.00    +0.021 C 
ATOM     28  C   UNL     1      29.496 -25.195 -14.897  0.00  0.00    +0.021 C 
ENDBRANCH   4  26
TORSDOF 6
ENDMDL
MODEL 2
REMARK VINA RESULT:      -9.2      3.145      5.183
REMARK  Name = 471161
REMARK  6 active torsions:
REMARK  status: ('A' for Active; 'I' for Inactive)
REMARK    1  A    between atoms: N_3  and  C1*_15
REMARK    2  A    between atoms: N_4  and  C_26
REMARK    3  A    between atoms: C2*_16  and  O2*_19
REMARK    4  A    between atoms: C3*_17  and  O3*_21
REMARK    5  A    between atoms: C4*_18  and  C5*_23
REMARK    6  A    between atoms: C5*_23  and  O5*_24
REMARK                            x       y       z     vdW  Elec       q    Type
REMARK                         _______ _______ _______ _____ _____    ______ ____
ROOT
ATOM      1 CL   UNL     1      30.626 -24.671 -12.897  0.00  0.00    -0.082 Cl
ATOM      2 CL   UNL     1      28.577 -24.011 -15.295  0.00  0.00    -0.086 Cl
ATOM      3  N   UNL     1      34.243 -23.141 -16.310  0.00  0.00    -0.224 N 
ATOM      4  N   UNL     1      35.186 -22.349 -18.314  0.00  0.00    -0.298 N 
ATOM      5  N   UNL     1      32.831 -22.683 -17.970  0.00  0.00    -0.376 NA
ATOM      6  C   UNL     1      32.990 -23.426 -15.822  0.00  0.00    +0.084 C 
ATOM      7  C   UNL     1      34.091 -22.700 -17.599  0.00  0.00    +0.243 C 
ATOM      8  C   UNL     1      32.129 -23.132 -16.875  0.00  0.00    +0.131 C 
ATOM      9  C   UNL     1      32.554 -23.901 -14.585  0.00  0.00    +0.029 C 
ATOM     10  C   UNL     1      30.747 -23.318 -16.702  0.00  0.00    +0.099 C 
ATOM     11  C   UNL     1      31.176 -24.080 -14.430  0.00  0.00    +0.066 C 
ATOM     12  C   UNL     1      30.287 -23.794 -15.468  0.00  0.00    +0.053 C 
ATOM     13  H   UNL     1      36.064 -22.424 -17.875  0.00  0.00    +0.150 HD
ENDROOT
BRANCH   3  15
ATOM     14  O4* UNL     1      35.318 -22.824 -14.217  0.00  0.00    -0.333 OA
ATOM     15  C1* UNL     1      35.500 -23.285 -15.573  0.00  0.00    +0.229 C 
ATOM     16  C2* UNL     1      36.011 -24.724 -15.508  0.00  0.00    +0.187 C 
ATOM     17  C3* UNL     1      35.649 -25.148 -14.096  0.00  0.00    +0.171 C 
ATOM     18  C4* UNL     1      35.788 -23.847 -13.324  0.00  0.00    +0.175 C 
BRANCH  16  19
ATOM     19  O2* UNL     1      37.425 -24.728 -15.704  0.00  0.00    -0.378 OA
ATOM     20  H2* UNL     1      37.644 -24.198 -16.485  0.00  0.00    +0.211 HD
ENDBRANCH  16  19
BRANCH  17  21
ATOM     21  O3* UNL     1      36.486 -26.174 -13.607  0.00  0.00    -0.379 OA
ATOM     22  H3* UNL     1      35.975 -26.759 -13.026  0.00  0.00    +0.211 HD
ENDBRANCH  17  21
BRANCH  18  23
ATOM     23  C5* UNL     1      34.979 -23.812 -12.039  0.00  0.00    +0.169 C 
BRANCH  23  24
ATOM     24  O5* UNL     1      34.970 -25.111 -11.474  0.00  0.00    -0.379 OA
ATOM     25  H5* UNL     1      35.137 -25.768 -12.169  0.00  0.00    +0.211 HD
ENDBRANCH  23  24
ENDBRANCH  18  23
ENDBRANCH   3  15
BRANCH   4  26
ATOM     26  C   UNL     1      35.153 -21.869 -19.683  0.00  0.00    +0.073 C 
ATOM     27  C   UNL     1      36.497 -21.242 -20.027  0.00  0.00    +0.021 C 
ATOM     28  C   UNL     1      34.016 -20.870 -19.843  0.00  0.00    +0.021 C 
ENDBRANCH   4  26
TORSDOF 6
ENDMDL
MODEL 3
REMARK VINA RESULT:      -9.0      1.499      2.416
REMARK  Name = 471161
REMARK  6 active torsions:
REMARK  status: ('A' for Active; 'I' for Inactive)
REMARK    1  A    between atoms: N_3  and  C1*_15
REMARK    2  A    between atoms: N_4  and  C_26
REMARK    3  A    between atoms: C2*_16  and  O2*_19
REMARK    4  A    between atoms: C3*_17  and  O3*_21
REMARK    5  A    between atoms: C4*_18  and  C5*_23
REMARK    6  A    between atoms: C5*_23  and  O5*_24
REMARK                            x       y       z     vdW  Elec       q    Type
REMARK                         _______ _______ _______ _____ _____    ______ ____
ROOT
ATOM      1 CL   UNL     1      37.388 -20.400 -20.314  0.00  0.00    -0.082 Cl
ATOM      2 CL   UNL     1      34.412 -20.238 -21.540  0.00  0.00    -0.086 Cl
ATOM      3  N   UNL     1      35.048 -22.947 -16.427  0.00  0.00    -0.224 N 
ATOM      4  N   UNL     1      33.331 -23.940 -15.162  0.00  0.00    -0.298 N 
ATOM      5  N   UNL     1      32.989 -22.837 -17.270  0.00  0.00    -0.376 NA
ATOM      6  C   UNL     1      35.169 -22.270 -17.618  0.00  0.00    +0.084 C 
ATOM      7  C   UNL     1      33.724 -23.263 -16.268  0.00  0.00    +0.243 C 
ATOM      8  C   UNL     1      33.873 -22.216 -18.122  0.00  0.00    +0.131 C 
ATOM      9  C   UNL     1      36.270 -21.720 -18.272  0.00  0.00    +0.029 C 
ATOM     10  C   UNL     1      33.644 -21.577 -19.353  0.00  0.00    +0.099 C 
ATOM     11  C   UNL     1      36.024 -21.088 -19.496  0.00  0.00    +0.066 C 
ATOM     12  C   UNL     1      34.736 -21.017 -20.028  0.00  0.00    +0.053 C 
ATOM     13  H   UNL     1      34.022 -24.184 -14.504  0.00  0.00    +0.150 HD
ENDROOT
BRANCH   3  15
ATOM     14  O4* UNL     1      35.803 -22.821 -14.180  0.00  0.00    -0.333 OA
ATOM     15  C1* UNL     1      36.144 -23.266 -15.511  0.00  0.00    +0.229 C 
ATOM     16  C2* UNL     1      36.463 -24.759 -15.431  0.00  0.00    +0.187 C 
ATOM     17  C3* UNL     1      35.831 -25.170 -14.114  0.00  0.00    +0.171 C 
ATOM     18  C4* UNL     1      35.998 -23.917 -13.271  0.00  0.00    +0.175 C 
BRANCH  16  19
ATOM     19  O2* UNL     1      37.879 -24.934 -15.404  0.00  0.00    -0.378 OA
ATOM     20  H2* UNL     1      38.284 -24.401 -16.104  0.00  0.00    +0.211 HD
ENDBRANCH  16  19
BRANCH  17  21
ATOM     21  O3* UNL     1      36.450 -26.305 -13.547  0.00  0.00    -0.379 OA
ATOM     22  H3* UNL     1      36.122 -26.435 -12.644  0.00  0.00    +0.211 HD
ENDBRANCH  17  21
BRANCH  18  23
ATOM     23  C5* UNL     1      35.004 -23.814 -12.129  0.00  0.00    +0.169 C 
BRANCH  23  24
ATOM     24  O5* UNL     1      34.903 -25.080 -11.500  0.00  0.00    -0.379 OA
ATOM     25  H5* UNL     1      35.778 -25.356 -11.186  0.00  0.00    +0.211 HD
ENDBRANCH  23  24
ENDBRANCH  18  23
ENDBRANCH   3  15
BRANCH   4  26
ATOM     26  C   UNL     1      31.962 -24.331 -14.883  0.00  0.00    +0.073 C 
ATOM     27  C   UNL     1      31.107 -23.081 -14.721  0.00  0.00    +0.021 C 
ATOM     28  C   UNL     1      31.926 -25.195 -13.630  0.00  0.00    +0.021 C 
ENDBRANCH   4  26
TORSDOF 6
ENDMDL
MODEL 4
REMARK VINA RESULT:      -8.7      2.415      4.506
REMARK  Name = 471161
REMARK  6 active torsions:
REMARK  status: ('A' for Active; 'I' for Inactive)
REMARK    1  A    between atoms: N_3  and  C1*_15
REMARK    2  A    between atoms: N_4  and  C_26
REMARK    3  A    between atoms: C2*_16  and  O2*_19
REMARK    4  A    between atoms: C3*_17  and  O3*_21
REMARK    5  A    between atoms: C4*_18  and  C5*_23
REMARK    6  A    between atoms: C5*_23  and  O5*_24
REMARK                            x       y       z     vdW  Elec       q    Type
REMARK                         _______ _______ _______ _____ _____    ______ ____
ROOT
ATOM      1 CL   UNL     1      33.128 -20.020 -21.343  0.00  0.00    -0.082 Cl
ATOM      2 CL   UNL     1      36.301 -19.600 -20.977  0.00  0.00    -0.086 Cl
ATOM      3  N   UNL     1      33.626 -23.142 -17.210  0.00  0.00    -0.224 N 
ATOM      4  N   UNL     1      34.646 -24.303 -15.436  0.00  0.00    -0.298 N 
ATOM      5  N   UNL     1      35.820 -22.854 -16.953  0.00  0.00    -0.376 NA
ATOM      6  C   UNL     1      34.008 -22.276 -18.208  0.00  0.00    +0.084 C 
ATOM      7  C   UNL     1      34.748 -23.456 -16.489  0.00  0.00    +0.243 C 
ATOM      8  C   UNL     1      35.378 -22.114 -18.025  0.00  0.00    +0.131 C 
ATOM      9  C   UNL     1      33.289 -21.643 -19.221  0.00  0.00    +0.029 C 
ATOM     10  C   UNL     1      36.089 -21.273 -18.898  0.00  0.00    +0.099 C 
ATOM     11  C   UNL     1      34.013 -20.810 -20.080  0.00  0.00    +0.066 C 
ATOM     12  C   UNL     1      35.388 -20.627 -19.923  0.00  0.00    +0.053 C 
ATOM     13  H   UNL     1      33.755 -24.665 -15.225  0.00  0.00    +0.150 HD
ENDROOT
BRANCH   3  15
ATOM     14  O4* UNL     1      32.292 -24.666 -15.973  0.00  0.00    -0.333 OA
ATOM     15  C1* UNL     1      32.265 -23.626 -16.974  0.00  0.00    +0.229 C 
ATOM     16  C2* UNL     1      31.303 -22.542 -16.488  0.00  0.00    +0.187 C 
ATOM     17  C3* UNL     1      31.190 -22.832 -15.003  0.00  0.00    +0.171 C 
ATOM     18  C4* UNL     1      31.327 -24.344 -14.958  0.00  0.00    +0.175 C 
BRANCH  16  19
ATOM     19  O2* UNL     1      30.047 -22.702 -17.145  0.00  0.00    -0.378 OA
ATOM     20  H2* UNL     1      29.330 -22.490 -16.528  0.00  0.00    +0.211 HD
ENDBRANCH  16  19
BRANCH  17  21
ATOM     21  O3* UNL     1      29.974 -22.370 -14.453  0.00  0.00    -0.379 OA
ATOM     22  H3* UNL     1      29.533 -23.099 -13.988  0.00  0.00    +0.211 HD
ENDBRANCH  17  21
BRANCH  18  23
ATOM     23  C5* UNL     1      31.804 -24.873 -13.617  0.00  0.00    +0.169 C 
BRANCH  23  24
ATOM     24  O5* UNL     1      30.701 -24.916 -12.728  0.00  0.00    -0.379 OA
ATOM     25  H5* UNL     1      29.907 -25.192 -13.212  0.00  0.00    +0.211 HD
ENDBRANCH  23  24
ENDBRANCH  18  23
ENDBRANCH   3  15
BRANCH   4  26
ATOM     26  C   UNL     1      35.758 -24.709 -14.599  0.00  0.00    +0.073 C 
ATOM     27  C   UNL     1      36.204 -26.108 -15.002  0.00  0.00    +0.021 C 
ATOM     28  C   UNL     1      35.339 -24.660 -13.137  0.00  0.00    +0.021 C 
ENDBRANCH   4  26
TORSDOF 6
ENDMDL
MODEL 5
REMARK VINA RESULT:      -8.7      8.881     11.521
REMARK  Name = 471161
REMARK  6 active torsions:
REMARK  status: ('A' for Active; 'I' for Inactive)
REMARK    1  A    between atoms: N_3  and  C1*_15
REMARK    2  A    between atoms: N_4  and  C_26
REMARK    3  A    between atoms: C2*_16  and  O2*_19
REMARK    4  A    between atoms: C3*_17  and  O3*_21
REMARK    5  A    between atoms: C4*_18  and  C5*_23
REMARK    6  A    between atoms: C5*_23  and  O5*_24
REMARK                            x       y       z     vdW  Elec       q    Type
REMARK                         _______ _______ _______ _____ _____    ______ ____
ROOT
ATOM      1 CL   UNL     1      31.398  -9.887 -22.687  0.00  0.00    -0.082 Cl
ATOM      2 CL   UNL     1      30.695 -10.651 -19.636  0.00  0.00    -0.086 Cl
ATOM      3  N   UNL     1      33.708 -14.549 -22.737  0.00  0.00    -0.224 N 
ATOM      4  N   UNL     1      34.466 -16.641 -21.972  0.00  0.00    -0.298 N 
ATOM      5  N   UNL     1      33.224 -15.082 -20.629  0.00  0.00    -0.376 NA
ATOM      6  C   UNL     1      33.004 -13.480 -22.235  0.00  0.00    +0.084 C 
ATOM      7  C   UNL     1      33.811 -15.479 -21.735  0.00  0.00    +0.243 C 
ATOM      8  C   UNL     1      32.715 -13.838 -20.921  0.00  0.00    +0.131 C 
ATOM      9  C   UNL     1      32.610 -12.270 -22.805  0.00  0.00    +0.029 C 
ATOM     10  C   UNL     1      31.991 -12.945 -20.113  0.00  0.00    +0.099 C 
ATOM     11  C   UNL     1      31.890 -11.394 -21.986  0.00  0.00    +0.066 C 
ATOM     12  C   UNL     1      31.584 -11.723 -20.664  0.00  0.00    +0.053 C 
ATOM     13  H   UNL     1      34.849 -16.776 -22.869  0.00  0.00    +0.150 HD
ENDROOT
BRANCH   3  15
ATOM     14  O4* UNL     1      34.884 -15.941 -24.258  0.00  0.00    -0.333 OA
ATOM     15  C1* UNL     1      34.240 -14.659 -24.096  0.00  0.00    +0.229 C 
ATOM     16  C2* UNL     1      33.173 -14.537 -25.184  0.00  0.00    +0.187 C 
ATOM     17  C3* UNL     1      32.971 -15.976 -25.622  0.00  0.00    +0.171 C 
ATOM     18  C4* UNL     1      34.359 -16.567 -25.440  0.00  0.00    +0.175 C 
BRANCH  16  19
ATOM     19  O2* UNL     1      33.682 -13.737 -26.251  0.00  0.00    -0.378 OA
ATOM     20  H2* UNL     1      33.497 -12.803 -26.071  0.00  0.00    +0.211 HD
ENDBRANCH  16  19
BRANCH  17  21
ATOM     21  O3* UNL     1      32.496 -16.077 -26.948  0.00  0.00    -0.379 OA
ATOM     22  H3* UNL     1      31.544 -15.891 -26.965  0.00  0.00    +0.211 HD
ENDBRANCH  17  21
BRANCH  18  23
ATOM     23  C5* UNL     1      34.360 -18.074 -25.262  0.00  0.00    +0.169 C 
BRANCH  23  24
ATOM     24  O5* UNL     1      35.347 -18.418 -24.305  0.00  0.00    -0.379 OA
ATOM     25  H5* UNL     1      35.923 -17.653 -24.146  0.00  0.00    +0.211 HD
ENDBRANCH  23  24
ENDBRANCH  18  23
ENDBRANCH   3  15
BRANCH   4  26
ATOM     26  C   UNL     1      34.640 -17.698 -20.995  0.00  0.00    +0.073 C 
ATOM     27  C   UNL     1      36.024 -18.311 -21.160  0.00  0.00    +0.021 C 
ATOM     28  C   UNL     1      33.546 -18.742 -21.175  0.00  0.00    +0.021 C 
ENDBRANCH   4  26
TORSDOF 6
ENDMDL
MODEL 6
REMARK VINA RESULT:      -8.4      2.217      4.426
REMARK  Name = 471161
REMARK  6 active torsions:
REMARK  status: ('A' for Active; 'I' for Inactive)
REMARK    1  A    between atoms: N_3  and  C1*_15
REMARK    2  A    between atoms: N_4  and  C_26
REMARK    3  A    between atoms: C2*_16  and  O2*_19
REMARK    4  A    between atoms: C3*_17  and  O3*_21
REMARK    5  A    between atoms: C4*_18  and  C5*_23
REMARK    6  A    between atoms: C5*_23  and  O5*_24
REMARK                            x       y       z     vdW  Elec       q    Type
REMARK                         _______ _______ _______ _____ _____    ______ ____
ROOT
ATOM      1 CL   UNL     1      32.795 -20.901 -20.626  0.00  0.00    -0.082 Cl
ATOM      2 CL   UNL     1      35.765 -19.760 -21.131  0.00  0.00    -0.086 Cl
ATOM      3  N   UNL     1      34.994 -23.255 -16.540  0.00  0.00    -0.224 N 
ATOM      4  N   UNL     1      36.652 -23.918 -15.009  0.00  0.00    -0.298 N 
ATOM      5  N   UNL     1      37.049 -22.469 -16.885  0.00  0.00    -0.376 NA
ATOM      6  C   UNL     1      34.908 -22.470 -17.665  0.00  0.00    +0.084 C 
ATOM      7  C   UNL     1      36.296 -23.219 -16.113  0.00  0.00    +0.243 C 
ATOM      8  C   UNL     1      36.201 -21.992 -17.858  0.00  0.00    +0.131 C 
ATOM      9  C   UNL     1      33.839 -22.149 -18.502  0.00  0.00    +0.029 C 
ATOM     10  C   UNL     1      36.461 -21.143 -18.947  0.00  0.00    +0.099 C 
ATOM     11  C   UNL     1      34.117 -21.303 -19.580  0.00  0.00    +0.066 C 
ATOM     12  C   UNL     1      35.403 -20.808 -19.801  0.00  0.00    +0.053 C 
ATOM     13  H   UNL     1      35.952 -24.433 -14.546  0.00  0.00    +0.150 HD
ENDROOT
BRANCH   3  15
ATOM     14  O4* UNL     1      34.392 -24.809 -14.849  0.00  0.00    -0.333 OA
ATOM     15  C1* UNL     1      33.887 -23.986 -15.922  0.00  0.00    +0.229 C 
ATOM     16  C2* UNL     1      32.803 -23.078 -15.337  0.00  0.00    +0.187 C 
ATOM     17  C3* UNL     1      33.086 -23.132 -13.847  0.00  0.00    +0.171 C 
ATOM     18  C4* UNL     1      33.616 -24.545 -13.669  0.00  0.00    +0.175 C 
BRANCH  16  19
ATOM     19  O2* UNL     1      31.521 -23.626 -15.640  0.00  0.00    -0.378 OA
ATOM     20  H2* UNL     1      31.436 -23.738 -16.599  0.00  0.00    +0.211 HD
ENDBRANCH  16  19
BRANCH  17  21
ATOM     21  O3* UNL     1      31.939 -22.868 -13.068  0.00  0.00    -0.379 OA
ATOM     22  H3* UNL     1      31.767 -21.914 -13.059  0.00  0.00    +0.211 HD
ENDBRANCH  17  21
BRANCH  18  23
ATOM     23  C5* UNL     1      34.486 -24.718 -12.437  0.00  0.00    +0.169 C 
BRANCH  23  24
ATOM     24  O5* UNL     1      34.616 -23.463 -11.794  0.00  0.00    -0.379 OA
ATOM     25  H5* UNL     1      35.557 -23.257 -11.673  0.00  0.00    +0.211 HD
ENDBRANCH  23  24
ENDBRANCH  18  23
ENDBRANCH   3  15
BRANCH   4  26
ATOM     26  C   UNL     1      37.995 -23.958 -14.462  0.00  0.00    +0.073 C 
ATOM     27  C   UNL     1      38.713 -25.195 -14.985  0.00  0.00    +0.021 C 
ATOM     28  C   UNL     1      37.924 -23.959 -12.941  0.00  0.00    +0.021 C 
ENDBRANCH   4  26
TORSDOF 6
ENDMDL
MODEL 7
REMARK VINA RESULT:      -8.3      3.401      5.920
REMARK  Name = 471161
REMARK  6 active torsions:
REMARK  status: ('A' for Active; 'I' for Inactive)
REMARK    1  A    between atoms: N_3  and  C1*_15
REMARK    2  A    between atoms: N_4  and  C_26
REMARK    3  A    between atoms: C2*_16  and  O2*_19
REMARK    4  A    between atoms: C3*_17  and  O3*_21
REMARK    5  A    between atoms: C4*_18  and  C5*_23
REMARK    6  A    between atoms: C5*_23  and  O5*_24
REMARK                            x       y       z     vdW  Elec       q    Type
REMARK                         _______ _______ _______ _____ _____    ______ ____
ROOT
ATOM      1 CL   UNL     1      34.871 -24.677 -11.961  0.00  0.00    -0.082 Cl
ATOM      2 CL   UNL     1      37.675 -23.511 -13.041  0.00  0.00    -0.086 Cl
ATOM      3  N   UNL     1      33.122 -23.292 -16.662  0.00  0.00    -0.224 N 
ATOM      4  N   UNL     1      33.132 -22.429 -18.850  0.00  0.00    -0.298 N 
ATOM      5  N   UNL     1      35.057 -22.485 -17.413  0.00  0.00    -0.376 NA
ATOM      6  C   UNL     1      34.019 -23.459 -15.634  0.00  0.00    +0.084 C 
ATOM      7  C   UNL     1      33.795 -22.705 -17.702  0.00  0.00    +0.243 C 
ATOM      8  C   UNL     1      35.216 -22.949 -16.127  0.00  0.00    +0.131 C 
ATOM      9  C   UNL     1      33.885 -23.999 -14.355  0.00  0.00    +0.029 C 
ATOM     10  C   UNL     1      36.357 -22.969 -15.308  0.00  0.00    +0.099 C 
ATOM     11  C   UNL     1      35.031 -24.011 -13.553  0.00  0.00    +0.066 C 
ATOM     12  C   UNL     1      36.246 -23.505 -14.019  0.00  0.00    +0.053 C 
ATOM     13  H   UNL     1      32.177 -22.664 -18.896  0.00  0.00    +0.150 HD
ENDROOT
BRANCH   3  15
ATOM     14  O4* UNL     1      31.500 -24.664 -15.602  0.00  0.00    -0.333 OA
ATOM     15  C1* UNL     1      31.711 -23.679 -16.636  0.00  0.00    +0.229 C 
ATOM     16  C2* UNL     1      30.760 -22.512 -16.363  0.00  0.00    +0.187 C 
ATOM     17  C3* UNL     1      30.385 -22.716 -14.906  0.00  0.00    +0.171 C 
ATOM     18  C4* UNL     1      30.408 -24.230 -14.776  0.00  0.00    +0.175 C 
BRANCH  16  19
ATOM     19  O2* UNL     1      29.620 -22.629 -17.213  0.00  0.00    -0.378 OA
ATOM     20  H2* UNL     1      29.019 -23.302 -16.857  0.00  0.00    +0.211 HD
ENDBRANCH  16  19
BRANCH  17  21
ATOM     21  O3* UNL     1      29.132 -22.152 -14.586  0.00  0.00    -0.379 OA
ATOM     22  H3* UNL     1      29.241 -21.205 -14.403  0.00  0.00    +0.211 HD
ENDBRANCH  17  21
BRANCH  18  23
ATOM     23  C5* UNL     1      30.621 -24.715 -13.353  0.00  0.00    +0.169 C 
BRANCH  23  24
ATOM     24  O5* UNL     1      30.854 -23.592 -12.521  0.00  0.00    -0.379 OA
ATOM     25  H5* UNL     1      30.959 -23.887 -11.603  0.00  0.00    +0.211 HD
ENDBRANCH  23  24
ENDBRANCH  18  23
ENDBRANCH   3  15
BRANCH   4  26
ATOM     26  C   UNL     1      33.734 -21.812 -20.017  0.00  0.00    +0.073 C 
ATOM     27  C   UNL     1      35.237 -21.692 -19.801  0.00  0.00    +0.021 C 
ATOM     28  C   UNL     1      33.098 -20.450 -20.257  0.00  0.00    +0.021 C 
ENDBRANCH   4  26
TORSDOF 6
ENDMDL
MODEL 8
REMARK VINA RESULT:      -8.2      3.732      6.248
REMARK  Name = 471161
REMARK  6 active torsions:
REMARK  status: ('A' for Active; 'I' for Inactive)
REMARK    1  A    between atoms: N_3  and  C1*_15
REMARK    2  A    between atoms: N_4  and  C_26
REMARK    3  A    between atoms: C2*_16  and  O2*_19
REMARK    4  A    between atoms: C3*_17  and  O3*_21
REMARK    5  A    between atoms: C4*_18  and  C5*_23
REMARK    6  A    between atoms: C5*_23  and  O5*_24
REMARK                            x       y       z     vdW  Elec       q    Type
REMARK                         _______ _______ _______ _____ _____    ______ ____
ROOT
ATOM      1 CL   UNL     1      35.921 -25.034 -10.890  0.00  0.00    -0.082 Cl
ATOM      2 CL   UNL     1      38.431 -25.305 -12.893  0.00  0.00    -0.086 Cl
ATOM      3  N   UNL     1      33.431 -23.331 -15.129  0.00  0.00    -0.224 N 
ATOM      4  N   UNL     1      33.065 -22.708 -17.368  0.00  0.00    -0.298 N 
ATOM      5  N   UNL     1      35.163 -23.517 -16.518  0.00  0.00    -0.376 NA
ATOM      6  C   UNL     1      34.470 -23.810 -14.367  0.00  0.00    +0.084 C 
ATOM      7  C   UNL     1      33.900 -23.173 -16.408  0.00  0.00    +0.243 C 
ATOM      8  C   UNL     1      35.536 -23.917 -15.256  0.00  0.00    +0.131 C 
ATOM      9  C   UNL     1      34.561 -24.148 -13.017  0.00  0.00    +0.029 C 
ATOM     10  C   UNL     1      36.774 -24.386 -14.785  0.00  0.00    +0.099 C 
ATOM     11  C   UNL     1      35.800 -24.614 -12.566  0.00  0.00    +0.066 C 
ATOM     12  C   UNL     1      36.888 -24.732 -13.433  0.00  0.00    +0.053 C 
ATOM     13  H   UNL     1      32.139 -22.498 -17.108  0.00  0.00    +0.150 HD
ENDROOT
BRANCH   3  15
ATOM     14  O4* UNL     1      31.221 -22.748 -15.771  0.00  0.00    -0.333 OA
ATOM     15  C1* UNL     1      32.078 -23.049 -14.649  0.00  0.00    +0.229 C 
ATOM     16  C2* UNL     1      31.445 -24.211 -13.882  0.00  0.00    +0.187 C 
ATOM     17  C3* UNL     1      30.483 -24.801 -14.898  0.00  0.00    +0.171 C 
ATOM     18  C4* UNL     1      30.049 -23.574 -15.682  0.00  0.00    +0.175 C 
BRANCH  16  19
ATOM     19  O2* UNL     1      30.749 -23.699 -12.747  0.00  0.00    -0.378 OA
ATOM     20  H2* UNL     1      30.641 -24.403 -12.089  0.00  0.00    +0.211 HD
ENDBRANCH  16  19
BRANCH  17  21
ATOM     21  O3* UNL     1      29.405 -25.480 -14.291  0.00  0.00    -0.379 OA
ATOM     22  H3* UNL     1      29.509 -25.455 -13.327  0.00  0.00    +0.211 HD
ENDBRANCH  17  21
BRANCH  18  23
ATOM     23  C5* UNL     1      29.543 -23.891 -17.077  0.00  0.00    +0.169 C 
BRANCH  23  24
ATOM     24  O5* UNL     1      28.208 -24.355 -16.981  0.00  0.00    -0.379 OA
ATOM     25  H5* UNL     1      27.620 -23.610 -16.779  0.00  0.00    +0.211 HD
ENDBRANCH  23  24
ENDBRANCH  18  23
ENDBRANCH   3  15
BRANCH   4  26
ATOM     26  C   UNL     1      33.444 -22.500 -18.753  0.00  0.00    +0.073 C 
ATOM     27  C   UNL     1      34.948 -22.279 -18.834  0.00  0.00    +0.021 C 
ATOM     28  C   UNL     1      32.677 -21.312 -19.317  0.00  0.00    +0.021 C 
ENDBRANCH   4  26
TORSDOF 6
ENDMDL
MODEL 9
REMARK VINA RESULT:      -8.0      2.771      5.252
REMARK  Name = 471161
REMARK  6 active torsions:
REMARK  status: ('A' for Active; 'I' for Inactive)
REMARK    1  A    between atoms: N_3  and  C1*_15
REMARK    2  A    between atoms: N_4  and  C_26
REMARK    3  A    between atoms: C2*_16  and  O2*_19
REMARK    4  A    between atoms: C3*_17  and  O3*_21
REMARK    5  A    between atoms: C4*_18  and  C5*_23
REMARK    6  A    between atoms: C5*_23  and  O5*_24
REMARK                            x       y       z     vdW  Elec       q    Type
REMARK                         _______ _______ _______ _____ _____    ______ ____
ROOT
ATOM      1 CL   UNL     1      33.019 -21.858 -19.340  0.00  0.00    -0.082 Cl
ATOM      2 CL   UNL     1      36.238 -21.816 -19.474  0.00  0.00    -0.086 Cl
ATOM      3  N   UNL     1      33.796 -23.436 -14.443  0.00  0.00    -0.224 N 
ATOM      4  N   UNL     1      34.941 -24.066 -12.487  0.00  0.00    -0.298 N 
ATOM      5  N   UNL     1      36.022 -23.408 -14.531  0.00  0.00    -0.376 NA
ATOM      6  C   UNL     1      34.114 -23.025 -15.716  0.00  0.00    +0.084 C 
ATOM      7  C   UNL     1      34.974 -23.651 -13.776  0.00  0.00    +0.243 C 
ATOM      8  C   UNL     1      35.506 -23.016 -15.744  0.00  0.00    +0.131 C 
ATOM      9  C   UNL     1      33.323 -22.672 -16.809  0.00  0.00    +0.029 C 
ATOM     10  C   UNL     1      36.164 -22.636 -16.926  0.00  0.00    +0.099 C 
ATOM     11  C   UNL     1      33.995 -22.296 -17.977  0.00  0.00    +0.066 C 
ATOM     12  C   UNL     1      35.389 -22.278 -18.037  0.00  0.00    +0.053 C 
ATOM     13  H   UNL     1      34.059 -24.200 -12.071  0.00  0.00    +0.150 HD
ENDROOT
BRANCH   3  15
ATOM     14  O4* UNL     1      31.546 -22.692 -14.583  0.00  0.00    -0.333 OA
ATOM     15  C1* UNL     1      32.443 -23.604 -13.912  0.00  0.00    +0.229 C 
ATOM     16  C2* UNL     1      31.885 -25.016 -14.092  0.00  0.00    +0.187 C 
ATOM     17  C3* UNL     1      30.930 -24.856 -15.260  0.00  0.00    +0.171 C 
ATOM     18  C4* UNL     1      30.418 -23.438 -15.067  0.00  0.00    +0.175 C 
BRANCH  16  19
ATOM     19  O2* UNL     1      31.192 -25.399 -12.905  0.00  0.00    -0.378 OA
ATOM     20  H2* UNL     1      30.293 -25.684 -13.132  0.00  0.00    +0.211 HD
ENDBRANCH  16  19
BRANCH  17  21
ATOM     21  O3* UNL     1      29.900 -25.822 -15.254  0.00  0.00    -0.379 OA
ATOM     22  H3* UNL     1      29.261 -25.617 -15.954  0.00  0.00    +0.211 HD
ENDBRANCH  17  21
BRANCH  18  23
ATOM     23  C5* UNL     1      29.895 -22.801 -16.342  0.00  0.00    +0.169 C 
BRANCH  23  24
ATOM     24  O5* UNL     1      28.780 -23.547 -16.798  0.00  0.00    -0.379 OA
ATOM     25  H5* UNL     1      27.966 -23.170 -16.428  0.00  0.00    +0.211 HD
ENDBRANCH  23  24
ENDBRANCH  18  23
ENDBRANCH   3  15
BRANCH   4  26
ATOM     26  C   UNL     1      36.117 -24.326 -11.679  0.00  0.00    +0.073 C 
ATOM     27  C   UNL     1      36.954 -23.057 -11.588  0.00  0.00    +0.021 C 
ATOM     28  C   UNL     1      36.911 -25.473 -12.290  0.00  0.00    +0.021 C 
ENDBRANCH   4  26
TORSDOF 6
ENDMDL
