MODEL 1
REMARK VINA RESULT:      -8.1      0.000      0.000
REMARK  Name = 9841834
REMARK  5 active torsions:
REMARK  status: ('A' for Active; 'I' for Inactive)
REMARK    1  A    between atoms: N_3  and  C_22
REMARK    2  A    between atoms: N_3  and  O_23
REMARK    3  A    between atoms: O_23  and  C_24
REMARK    4  A    between atoms: C_24  and  C_25
REMARK    5  A    between atoms: C_25  and  N_26
REMARK                            x       y       z     vdW  Elec       q    Type
REMARK                         _______ _______ _______ _____ _____    ______ ____
ROOT
ATOM      1  O   UNL     1      37.621 -21.631 -19.646  0.00  0.00    -0.296 OA
ATOM      2  O   UNL     1      34.537 -24.351 -12.464  0.00  0.00    -0.296 OA
ATOM      3  C   UNL     1      34.366 -22.235 -17.242  0.00  0.00    +0.001 C 
ATOM      4  C   UNL     1      35.792 -22.767 -16.872  0.00  0.00    +0.008 C 
ATOM      5  C   UNL     1      35.858 -22.945 -15.353  0.00  0.00    +0.007 C 
ATOM      6  C   UNL     1      34.215 -21.987 -18.792  0.00  0.00    +0.007 C 
ATOM      7  C   UNL     1      34.819 -23.966 -14.850  0.00  0.00    +0.052 C 
ATOM      8  C   UNL     1      33.236 -23.098 -16.617  0.00  0.00    +0.000 C 
ATOM      9  C   UNL     1      35.327 -20.979 -19.219  0.00  0.00    +0.059 C 
ATOM     10  C   UNL     1      33.432 -23.391 -15.117  0.00  0.00    +0.007 C 
ATOM     11  C   UNL     1      36.892 -21.828 -17.374  0.00  0.00    +0.064 C 
ATOM     12  C   UNL     1      37.162 -23.382 -14.695  0.00  0.00    +0.008 C 
ATOM     13  C   UNL     1      32.838 -21.324 -19.103  0.00  0.00    +0.002 C 
ATOM     14  C   UNL     1      36.699 -21.517 -18.841  0.00  0.00    +0.150 C 
ATOM     15  C   UNL     1      35.260 -24.030 -13.398  0.00  0.00    +0.150 C 
ATOM     16  C   UNL     1      36.730 -23.676 -13.250  0.00  0.00    +0.064 C 
ATOM     17  C   UNL     1      34.320 -23.316 -19.583  0.00  0.00    +0.000 C 
ATOM     18  C   UNL     1      35.248 -20.561 -20.688  0.00  0.00    +0.027 C 
ATOM     19  C   UNL     1      34.951 -25.395 -15.411  0.00  0.00    +0.007 C 
ATOM     20  C   UNL     1      32.686 -20.852 -20.550  0.00  0.00    +0.020 C 
ATOM     21  C   UNL     1      33.869 -20.014 -20.960  0.00  0.00    +0.103 C 
ENDROOT
BRANCH  21  22
ATOM     22  N   UNL     1      33.686 -18.884 -21.560  0.00  0.00    -0.085 NA
BRANCH  22  23
ATOM     23  O   UNL     1      34.595 -17.956 -21.037  0.00  0.00    -0.269 OA
BRANCH  23  24
ATOM     24  C   UNL     1      34.533 -16.784 -21.836  0.00  0.00    +0.145 C 
BRANCH  24  25
ATOM     25  C   UNL     1      35.047 -17.115 -23.229  0.00  0.00    -0.051 C 
BRANCH  25  26
ATOM     26  N   UNL     1      36.152 -18.060 -23.158  0.00  0.00    +0.382 N 
ATOM     27  H   UNL     1      36.502 -18.244 -24.097  0.00  0.00    -0.089 HD
ATOM     28  H   UNL     1      35.827 -18.930 -22.738  0.00  0.00    -0.089 HD
ATOM     29  H   UNL     1      36.900 -17.665 -22.587  0.00  0.00    -0.089 HD
ENDBRANCH  25  26
ENDBRANCH  24  25
ENDBRANCH  23  24
ENDBRANCH  22  23
ENDBRANCH  21  22
TORSDOF 5
ENDMDL
MODEL 2
REMARK VINA RESULT:      -7.8      4.742      6.030
REMARK  Name = 9841834
REMARK  5 active torsions:
REMARK  status: ('A' for Active; 'I' for Inactive)
REMARK    1  A    between atoms: N_3  and  C_22
REMARK    2  A    between atoms: N_3  and  O_23
REMARK    3  A    between atoms: O_23  and  C_24
REMARK    4  A    between atoms: C_24  and  C_25
REMARK    5  A    between atoms: C_25  and  N_26
REMARK                            x       y       z     vdW  Elec       q    Type
REMARK                         _______ _______ _______ _____ _____    ______ ____
ROOT
ATOM      1  O   UNL     1      33.228 -23.836 -17.952  0.00  0.00    -0.296 OA
ATOM      2  O   UNL     1      38.588 -24.119 -11.653  0.00  0.00    -0.296 OA
ATOM      3  C   UNL     1      33.899 -23.662 -13.920  0.00  0.00    +0.001 C 
ATOM      4  C   UNL     1      35.026 -24.033 -14.943  0.00  0.00    +0.008 C 
ATOM      5  C   UNL     1      36.379 -23.709 -14.303  0.00  0.00    +0.007 C 
ATOM      6  C   UNL     1      32.460 -23.930 -14.509  0.00  0.00    +0.007 C 
ATOM      7  C   UNL     1      36.612 -24.523 -13.014  0.00  0.00    +0.052 C 
ATOM      8  C   UNL     1      34.146 -24.288 -12.520  0.00  0.00    +0.000 C 
ATOM      9  C   UNL     1      32.329 -23.103 -15.826  0.00  0.00    +0.059 C 
ATOM     10  C   UNL     1      35.576 -24.079 -11.988  0.00  0.00    +0.007 C 
ATOM     11  C   UNL     1      34.846 -23.295 -16.272  0.00  0.00    +0.064 C 
ATOM     12  C   UNL     1      37.663 -23.898 -15.102  0.00  0.00    +0.008 C 
ATOM     13  C   UNL     1      31.367 -23.417 -13.523  0.00  0.00    +0.002 C 
ATOM     14  C   UNL     1      33.439 -23.477 -16.796  0.00  0.00    +0.150 C 
ATOM     15  C   UNL     1      38.050 -24.110 -12.752  0.00  0.00    +0.150 C 
ATOM     16  C   UNL     1      38.755 -23.713 -14.038  0.00  0.00    +0.064 C 
ATOM     17  C   UNL     1      32.234 -25.442 -14.763  0.00  0.00    +0.000 C 
ATOM     18  C   UNL     1      30.942 -23.183 -16.466  0.00  0.00    +0.027 C 
ATOM     19  C   UNL     1      36.619 -26.055 -13.177  0.00  0.00    +0.007 C 
ATOM     20  C   UNL     1      29.949 -23.439 -14.096  0.00  0.00    +0.020 C 
ATOM     21  C   UNL     1      29.914 -22.766 -15.444  0.00  0.00    +0.103 C 
ENDROOT
BRANCH  21  22
ATOM     22  N   UNL     1      28.999 -21.893 -15.709  0.00  0.00    -0.085 NA
BRANCH  22  23
ATOM     23  O   UNL     1      28.710 -21.960 -17.078  0.00  0.00    -0.269 OA
BRANCH  23  24
ATOM     24  C   UNL     1      27.475 -22.642 -17.231  0.00  0.00    +0.145 C 
BRANCH  24  25
ATOM     25  C   UNL     1      26.351 -21.731 -16.762  0.00  0.00    -0.051 C 
BRANCH  25  26
ATOM     26  N   UNL     1      25.826 -20.949 -17.873  0.00  0.00    +0.382 N 
ATOM     27  H   UNL     1      24.821 -21.103 -17.951  0.00  0.00    -0.089 HD
ATOM     28  H   UNL     1      26.283 -21.238 -18.737  0.00  0.00    -0.089 HD
ATOM     29  H   UNL     1      26.007 -19.959 -17.707  0.00  0.00    -0.089 HD
ENDBRANCH  25  26
ENDBRANCH  24  25
ENDBRANCH  23  24
ENDBRANCH  22  23
ENDBRANCH  21  22
TORSDOF 5
ENDMDL
MODEL 3
REMARK VINA RESULT:      -7.4      5.983      9.458
REMARK  Name = 9841834
REMARK  5 active torsions:
REMARK  status: ('A' for Active; 'I' for Inactive)
REMARK    1  A    between atoms: N_3  and  C_22
REMARK    2  A    between atoms: N_3  and  O_23
REMARK    3  A    between atoms: O_23  and  C_24
REMARK    4  A    between atoms: C_24  and  C_25
REMARK    5  A    between atoms: C_25  and  N_26
REMARK                            x       y       z     vdW  Elec       q    Type
REMARK                         _______ _______ _______ _____ _____    ______ ____
ROOT
ATOM      1  O   UNL     1      32.994 -15.329 -26.642  0.00  0.00    -0.296 OA
ATOM      2  O   UNL     1      35.857 -19.531 -20.112  0.00  0.00    -0.296 OA
ATOM      3  C   UNL     1      34.479 -15.283 -22.830  0.00  0.00    +0.001 C 
ATOM      4  C   UNL     1      34.118 -16.613 -23.573  0.00  0.00    +0.008 C 
ATOM      5  C   UNL     1      34.933 -17.748 -22.947  0.00  0.00    +0.007 C 
ATOM      6  C   UNL     1      33.708 -14.045 -23.433  0.00  0.00    +0.007 C 
ATOM      7  C   UNL     1      34.606 -17.929 -21.451  0.00  0.00    +0.052 C 
ATOM      8  C   UNL     1      34.361 -15.421 -21.287  0.00  0.00    +0.000 C 
ATOM      9  C   UNL     1      34.063 -13.964 -24.950  0.00  0.00    +0.059 C 
ATOM     10  C   UNL     1      35.059 -16.671 -20.719  0.00  0.00    +0.007 C 
ATOM     11  C   UNL     1      34.374 -16.505 -25.079  0.00  0.00    +0.064 C 
ATOM     12  C   UNL     1      34.843 -19.156 -23.523  0.00  0.00    +0.008 C 
ATOM     13  C   UNL     1      34.199 -12.724 -22.766  0.00  0.00    +0.002 C 
ATOM     14  C   UNL     1      33.711 -15.270 -25.645  0.00  0.00    +0.150 C 
ATOM     15  C   UNL     1      35.417 -19.190 -21.202  0.00  0.00    +0.150 C 
ATOM     16  C   UNL     1      35.588 -19.999 -22.477  0.00  0.00    +0.064 C 
ATOM     17  C   UNL     1      32.180 -14.178 -23.214  0.00  0.00    +0.000 C 
ATOM     18  C   UNL     1      33.465 -12.746 -25.657  0.00  0.00    +0.027 C 
ATOM     19  C   UNL     1      33.144 -18.277 -21.118  0.00  0.00    +0.007 C 
ATOM     20  C   UNL     1      33.666 -11.453 -23.431  0.00  0.00    +0.020 C 
ATOM     21  C   UNL     1      33.892 -11.502 -24.920  0.00  0.00    +0.103 C 
ENDROOT
BRANCH  21  22
ATOM     22  N   UNL     1      34.400 -10.483 -25.531  0.00  0.00    -0.085 NA
BRANCH  22  23
ATOM     23  O   UNL     1      35.116  -9.723 -24.598  0.00  0.00    -0.269 OA
BRANCH  23  24
ATOM     24  C   UNL     1      34.696  -8.372 -24.718  0.00  0.00    +0.145 C 
BRANCH  24  25
ATOM     25  C   UNL     1      34.779  -7.711 -23.351  0.00  0.00    -0.051 C 
BRANCH  25  26
ATOM     26  N   UNL     1      33.526  -7.867 -22.628  0.00  0.00    +0.382 N 
ATOM     27  H   UNL     1      33.593  -7.397 -21.726  0.00  0.00    -0.089 HD
ATOM     28  H   UNL     1      33.340  -8.859 -22.482  0.00  0.00    -0.089 HD
ATOM     29  H   UNL     1      32.766  -7.455 -23.170  0.00  0.00    -0.089 HD
ENDBRANCH  25  26
ENDBRANCH  24  25
ENDBRANCH  23  24
ENDBRANCH  22  23
ENDBRANCH  21  22
TORSDOF 5
ENDMDL
MODEL 4
REMARK VINA RESULT:      -7.4     12.011     18.476
REMARK  Name = 9841834
REMARK  5 active torsions:
REMARK  status: ('A' for Active; 'I' for Inactive)
REMARK    1  A    between atoms: N_3  and  C_22
REMARK    2  A    between atoms: N_3  and  O_23
REMARK    3  A    between atoms: O_23  and  C_24
REMARK    4  A    between atoms: C_24  and  C_25
REMARK    5  A    between atoms: C_25  and  N_26
REMARK                            x       y       z     vdW  Elec       q    Type
REMARK                         _______ _______ _______ _____ _____    ______ ____
ROOT
ATOM      1  O   UNL     1      29.969  -4.349 -22.502  0.00  0.00    -0.296 OA
ATOM      2  O   UNL     1      35.329  -3.217 -28.706  0.00  0.00    -0.296 OA
ATOM      3  C   UNL     1      33.247  -5.652 -24.574  0.00  0.00    +0.001 C 
ATOM      4  C   UNL     1      32.387  -4.432 -25.047  0.00  0.00    +0.008 C 
ATOM      5  C   UNL     1      33.264  -3.541 -25.931  0.00  0.00    +0.007 C 
ATOM      6  C   UNL     1      32.433  -6.613 -23.624  0.00  0.00    +0.007 C 
ATOM      7  C   UNL     1      33.765  -4.291 -27.182  0.00  0.00    +0.052 C 
ATOM      8  C   UNL     1      33.954  -6.369 -25.758  0.00  0.00    +0.000 C 
ATOM      9  C   UNL     1      31.932  -5.766 -22.414  0.00  0.00    +0.059 C 
ATOM     10  C   UNL     1      34.688  -5.411 -26.716  0.00  0.00    +0.007 C 
ATOM     11  C   UNL     1      31.814  -3.653 -23.860  0.00  0.00    +0.064 C 
ATOM     12  C   UNL     1      32.710  -2.230 -26.476  0.00  0.00    +0.008 C 
ATOM     13  C   UNL     1      33.360  -7.733 -23.061  0.00  0.00    +0.002 C 
ATOM     14  C   UNL     1      31.108  -4.584 -22.902  0.00  0.00    +0.150 C 
ATOM     15  C   UNL     1      34.422  -3.119 -27.890  0.00  0.00    +0.150 C 
ATOM     16  C   UNL     1      33.788  -1.799 -27.482  0.00  0.00    +0.064 C 
ATOM     17  C   UNL     1      31.253  -7.275 -24.380  0.00  0.00    +0.000 C 
ATOM     18  C   UNL     1      31.204  -6.586 -21.348  0.00  0.00    +0.027 C 
ATOM     19  C   UNL     1      32.674  -4.820 -28.131  0.00  0.00    +0.007 C 
ATOM     20  C   UNL     1      32.715  -8.586 -21.968  0.00  0.00    +0.020 C 
ATOM     21  C   UNL     1      32.106  -7.710 -20.903  0.00  0.00    +0.103 C 
ENDROOT
BRANCH  21  22
ATOM     22  N   UNL     1      32.331  -7.956 -19.655  0.00  0.00    -0.085 NA
BRANCH  22  23
ATOM     23  O   UNL     1      32.688  -9.304 -19.530  0.00  0.00    -0.269 OA
BRANCH  23  24
ATOM     24  C   UNL     1      31.562 -10.010 -19.030  0.00  0.00    +0.145 C 
BRANCH  24  25
ATOM     25  C   UNL     1      31.557 -11.408 -19.629  0.00  0.00    -0.051 C 
BRANCH  25  26
ATOM     26  N   UNL     1      30.817 -11.428 -20.882  0.00  0.00    +0.382 N 
ATOM     27  H   UNL     1      30.813 -10.492 -21.288  0.00  0.00    -0.089 HD
ATOM     28  H   UNL     1      29.860 -11.728 -20.706  0.00  0.00    -0.089 HD
ATOM     29  H   UNL     1      31.264 -12.077 -21.530  0.00  0.00    -0.089 HD
ENDBRANCH  25  26
ENDBRANCH  24  25
ENDBRANCH  23  24
ENDBRANCH  22  23
ENDBRANCH  21  22
TORSDOF 5
ENDMDL
MODEL 5
REMARK VINA RESULT:      -7.4     10.002     15.807
REMARK  Name = 9841834
REMARK  5 active torsions:
REMARK  status: ('A' for Active; 'I' for Inactive)
REMARK    1  A    between atoms: N_3  and  C_22
REMARK    2  A    between atoms: N_3  and  O_23
REMARK    3  A    between atoms: O_23  and  C_24
REMARK    4  A    between atoms: C_24  and  C_25
REMARK    5  A    between atoms: C_25  and  N_26
REMARK                            x       y       z     vdW  Elec       q    Type
REMARK                         _______ _______ _______ _____ _____    ______ ____
ROOT
ATOM      1  O   UNL     1      35.597  -9.452 -24.048  0.00  0.00    -0.296 OA
ATOM      2  O   UNL     1      30.259  -3.225 -25.156  0.00  0.00    -0.296 OA
ATOM      3  C   UNL     1      31.779  -8.018 -23.723  0.00  0.00    +0.001 C 
ATOM      4  C   UNL     1      32.981  -7.112 -24.155  0.00  0.00    +0.008 C 
ATOM      5  C   UNL     1      32.427  -5.933 -24.960  0.00  0.00    +0.007 C 
ATOM      6  C   UNL     1      32.259  -9.284 -22.914  0.00  0.00    +0.007 C 
ATOM      7  C   UNL     1      31.455  -5.075 -24.124  0.00  0.00    +0.052 C 
ATOM      8  C   UNL     1      30.650  -7.206 -23.031  0.00  0.00    +0.000 C 
ATOM      9  C   UNL     1      33.265 -10.065 -23.815  0.00  0.00    +0.059 C 
ATOM     10  C   UNL     1      30.239  -5.934 -23.797  0.00  0.00    +0.007 C 
ATOM     11  C   UNL     1      34.019  -7.899 -24.960  0.00  0.00    +0.064 C 
ATOM     12  C   UNL     1      33.382  -4.919 -25.580  0.00  0.00    +0.008 C 
ATOM     13  C   UNL     1      31.055 -10.232 -22.625  0.00  0.00    +0.002 C 
ATOM     14  C   UNL     1      34.416  -9.160 -24.227  0.00  0.00    +0.150 C 
ATOM     15  C   UNL     1      31.245  -3.949 -25.120  0.00  0.00    +0.150 C 
ATOM     16  C   UNL     1      32.435  -3.808 -26.055  0.00  0.00    +0.064 C 
ATOM     17  C   UNL     1      32.905  -8.874 -21.566  0.00  0.00    +0.000 C 
ATOM     18  C   UNL     1      33.747 -11.381 -23.202  0.00  0.00    +0.027 C 
ATOM     19  C   UNL     1      32.045  -4.433 -22.854  0.00  0.00    +0.007 C 
ATOM     20  C   UNL     1      31.453 -11.585 -22.033  0.00  0.00    +0.020 C 
ATOM     21  C   UNL     1      32.543 -12.221 -22.856  0.00  0.00    +0.103 C 
ENDROOT
BRANCH  21  22
ATOM     22  N   UNL     1      32.448 -13.461 -23.209  0.00  0.00    -0.085 NA
BRANCH  22  23
ATOM     23  O   UNL     1      33.584 -13.793 -23.959  0.00  0.00    -0.269 OA
BRANCH  23  24
ATOM     24  C   UNL     1      33.543 -15.188 -24.221  0.00  0.00    +0.145 C 
BRANCH  24  25
ATOM     25  C   UNL     1      33.425 -15.399 -25.723  0.00  0.00    -0.051 C 
BRANCH  25  26
ATOM     26  N   UNL     1      32.414 -14.517 -26.288  0.00  0.00    +0.382 N 
ATOM     27  H   UNL     1      32.201 -14.811 -27.240  0.00  0.00    -0.089 HD
ATOM     28  H   UNL     1      32.766 -13.560 -26.298  0.00  0.00    -0.089 HD
ATOM     29  H   UNL     1      31.567 -14.562 -25.720  0.00  0.00    -0.089 HD
ENDBRANCH  25  26
ENDBRANCH  24  25
ENDBRANCH  23  24
ENDBRANCH  22  23
ENDBRANCH  21  22
TORSDOF 5
ENDMDL
MODEL 6
REMARK VINA RESULT:      -7.3      7.680     13.792
REMARK  Name = 9841834
REMARK  5 active torsions:
REMARK  status: ('A' for Active; 'I' for Inactive)
REMARK    1  A    between atoms: N_3  and  C_22
REMARK    2  A    between atoms: N_3  and  O_23
REMARK    3  A    between atoms: O_23  and  C_24
REMARK    4  A    between atoms: C_24  and  C_25
REMARK    5  A    between atoms: C_25  and  N_26
REMARK                            x       y       z     vdW  Elec       q    Type
REMARK                         _______ _______ _______ _____ _____    ______ ____
ROOT
ATOM      1  O   UNL     1      31.000 -10.879 -18.621  0.00  0.00    -0.296 OA
ATOM      2  O   UNL     1      32.569  -5.166 -24.400  0.00  0.00    -0.296 OA
ATOM      3  C   UNL     1      32.403  -9.976 -22.357  0.00  0.00    +0.001 C 
ATOM      4  C   UNL     1      31.708  -8.911 -21.442  0.00  0.00    +0.008 C 
ATOM      5  C   UNL     1      32.185  -7.522 -21.876  0.00  0.00    +0.007 C 
ATOM      6  C   UNL     1      31.997 -11.448 -21.958  0.00  0.00    +0.007 C 
ATOM      7  C   UNL     1      31.806  -7.219 -23.340  0.00  0.00    +0.052 C 
ATOM      8  C   UNL     1      32.237  -9.652 -23.867  0.00  0.00    +0.000 C 
ATOM      9  C   UNL     1      32.376 -11.651 -20.459  0.00  0.00    +0.059 C 
ATOM     10  C   UNL     1      32.570  -8.192 -24.231  0.00  0.00    +0.007 C 
ATOM     11  C   UNL     1      32.000  -9.165 -19.960  0.00  0.00    +0.064 C 
ATOM     12  C   UNL     1      31.728  -6.287 -21.108  0.00  0.00    +0.008 C 
ATOM     13  C   UNL     1      32.816 -12.480 -22.793  0.00  0.00    +0.002 C 
ATOM     14  C   UNL     1      31.696 -10.600 -19.595  0.00  0.00    +0.150 C 
ATOM     15  C   UNL     1      32.248  -5.767 -23.383  0.00  0.00    +0.150 C 
ATOM     16  C   UNL     1      32.210  -5.135 -22.002  0.00  0.00    +0.064 C 
ATOM     17  C   UNL     1      30.487 -11.695 -22.200  0.00  0.00    +0.000 C 
ATOM     18  C   UNL     1      32.133 -13.073 -19.950  0.00  0.00    +0.027 C 
ATOM     19  C   UNL     1      30.300  -7.228 -23.662  0.00  0.00    +0.007 C 
ATOM     20  C   UNL     1      32.648 -13.929 -22.332  0.00  0.00    +0.020 C 
ATOM     21  C   UNL     1      32.869 -14.038 -20.845  0.00  0.00    +0.103 C 
ENDROOT
BRANCH  21  22
ATOM     22  N   UNL     1      33.637 -14.963 -20.371  0.00  0.00    -0.085 NA
BRANCH  22  23
ATOM     23  O   UNL     1      34.614 -15.257 -21.330  0.00  0.00    -0.269 OA
BRANCH  23  24
ATOM     24  C   UNL     1      34.898 -16.646 -21.253  0.00  0.00    +0.145 C 
BRANCH  24  25
ATOM     25  C   UNL     1      34.842 -17.234 -22.655  0.00  0.00    -0.051 C 
BRANCH  25  26
ATOM     26  N   UNL     1      35.391 -16.299 -23.626  0.00  0.00    +0.382 N 
ATOM     27  H   UNL     1      34.827 -16.323 -24.476  0.00  0.00    -0.089 HD
ATOM     28  H   UNL     1      36.350 -16.562 -23.846  0.00  0.00    -0.089 HD
ATOM     29  H   UNL     1      35.377 -15.356 -23.236  0.00  0.00    -0.089 HD
ENDBRANCH  25  26
ENDBRANCH  24  25
ENDBRANCH  23  24
ENDBRANCH  22  23
ENDBRANCH  21  22
TORSDOF 5
ENDMDL
MODEL 7
REMARK VINA RESULT:      -7.0      4.792      7.761
REMARK  Name = 9841834
REMARK  5 active torsions:
REMARK  status: ('A' for Active; 'I' for Inactive)
REMARK    1  A    between atoms: N_3  and  C_22
REMARK    2  A    between atoms: N_3  and  O_23
REMARK    3  A    between atoms: O_23  and  C_24
REMARK    4  A    between atoms: C_24  and  C_25
REMARK    5  A    between atoms: C_25  and  N_26
REMARK                            x       y       z     vdW  Elec       q    Type
REMARK                         _______ _______ _______ _____ _____    ______ ____
ROOT
ATOM      1  O   UNL     1      36.207 -21.873 -16.721  0.00  0.00    -0.296 OA
ATOM      2  O   UNL     1      28.659 -24.675 -14.809  0.00  0.00    -0.296 OA
ATOM      3  C   UNL     1      33.886 -24.584 -14.722  0.00  0.00    +0.001 C 
ATOM      4  C   UNL     1      33.277 -23.355 -15.479  0.00  0.00    +0.008 C 
ATOM      5  C   UNL     1      31.826 -23.686 -15.839  0.00  0.00    +0.007 C 
ATOM      6  C   UNL     1      35.398 -24.348 -14.340  0.00  0.00    +0.007 C 
ATOM      7  C   UNL     1      30.970 -23.949 -14.583  0.00  0.00    +0.052 C 
ATOM      8  C   UNL     1      32.991 -25.050 -13.541  0.00  0.00    +0.000 C 
ATOM      9  C   UNL     1      36.176 -24.049 -15.659  0.00  0.00    +0.059 C 
ATOM     10  C   UNL     1      31.504 -25.209 -13.911  0.00  0.00    +0.007 C 
ATOM     11  C   UNL     1      34.095 -22.998 -16.723  0.00  0.00    +0.064 C 
ATOM     12  C   UNL     1      31.000 -22.696 -16.653  0.00  0.00    +0.008 C 
ATOM     13  C   UNL     1      36.008 -25.642 -13.719  0.00  0.00    +0.002 C 
ATOM     14  C   UNL     1      35.559 -22.859 -16.377  0.00  0.00    +0.150 C 
ATOM     15  C   UNL     1      29.616 -24.062 -15.261  0.00  0.00    +0.150 C 
ATOM     16  C   UNL     1      29.584 -23.284 -16.566  0.00  0.00    +0.064 C 
ATOM     17  C   UNL     1      35.542 -23.190 -13.321  0.00  0.00    +0.000 C 
ATOM     18  C   UNL     1      37.685 -23.896 -15.461  0.00  0.00    +0.027 C 
ATOM     19  C   UNL     1      30.864 -22.782 -13.583  0.00  0.00    +0.007 C 
ATOM     20  C   UNL     1      37.522 -25.581 -13.512  0.00  0.00    +0.020 C 
ATOM     21  C   UNL     1      38.211 -25.131 -14.775  0.00  0.00    +0.103 C 
ENDROOT
BRANCH  21  22
ATOM     22  N   UNL     1      39.241 -25.774 -15.216  0.00  0.00    -0.085 NA
BRANCH  22  23
ATOM     23  O   UNL     1      40.393 -25.087 -14.813  0.00  0.00    -0.269 OA
BRANCH  23  24
ATOM     24  C   UNL     1      40.972 -25.800 -13.730  0.00  0.00    +0.145 C 
BRANCH  24  25
ATOM     25  C   UNL     1      41.258 -27.224 -14.180  0.00  0.00    -0.051 C 
BRANCH  25  26
ATOM     26  N   UNL     1      42.106 -27.908 -13.215  0.00  0.00    +0.382 N 
ATOM     27  H   UNL     1      41.523 -28.353 -12.507  0.00  0.00    -0.089 HD
ATOM     28  H   UNL     1      42.727 -27.233 -12.771  0.00  0.00    -0.089 HD
ATOM     29  H   UNL     1      42.662 -28.618 -13.693  0.00  0.00    -0.089 HD
ENDBRANCH  25  26
ENDBRANCH  24  25
ENDBRANCH  23  24
ENDBRANCH  22  23
ENDBRANCH  21  22
TORSDOF 5
ENDMDL
MODEL 8
REMARK VINA RESULT:      -6.8      2.413      3.369
REMARK  Name = 9841834
REMARK  5 active torsions:
REMARK  status: ('A' for Active; 'I' for Inactive)
REMARK    1  A    between atoms: N_3  and  C_22
REMARK    2  A    between atoms: N_3  and  O_23
REMARK    3  A    between atoms: O_23  and  C_24
REMARK    4  A    between atoms: C_24  and  C_25
REMARK    5  A    between atoms: C_25  and  N_26
REMARK                            x       y       z     vdW  Elec       q    Type
REMARK                         _______ _______ _______ _____ _____    ______ ____
ROOT
ATOM      1  O   UNL     1      36.642 -23.534 -16.332  0.00  0.00    -0.296 OA
ATOM      2  O   UNL     1      28.669 -23.851 -14.136  0.00  0.00    -0.296 OA
ATOM      3  C   UNL     1      32.756 -22.520 -17.112  0.00  0.00    +0.001 C 
ATOM      4  C   UNL     1      33.151 -23.494 -15.951  0.00  0.00    +0.008 C 
ATOM      5  C   UNL     1      32.035 -23.468 -14.903  0.00  0.00    +0.007 C 
ATOM      6  C   UNL     1      33.869 -22.454 -18.229  0.00  0.00    +0.007 C 
ATOM      7  C   UNL     1      30.689 -23.940 -15.489  0.00  0.00    +0.052 C 
ATOM      8  C   UNL     1      31.325 -22.796 -17.650  0.00  0.00    +0.000 C 
ATOM      9  C   UNL     1      35.198 -22.012 -17.542  0.00  0.00    +0.059 C 
ATOM     10  C   UNL     1      30.259 -22.928 -16.545  0.00  0.00    +0.007 C 
ATOM     11  C   UNL     1      34.504 -23.120 -15.338  0.00  0.00    +0.064 C 
ATOM     12  C   UNL     1      32.184 -24.268 -13.614  0.00  0.00    +0.008 C 
ATOM     13  C   UNL     1      33.507 -21.371 -19.291  0.00  0.00    +0.002 C 
ATOM     14  C   UNL     1      35.553 -22.968 -16.415  0.00  0.00    +0.150 C 
ATOM     15  C   UNL     1      29.886 -23.961 -14.200  0.00  0.00    +0.150 C 
ATOM     16  C   UNL     1      30.783 -24.171 -12.992  0.00  0.00    +0.064 C 
ATOM     17  C   UNL     1      34.026 -23.821 -18.942  0.00  0.00    +0.000 C 
ATOM     18  C   UNL     1      36.356 -21.805 -18.520  0.00  0.00    +0.027 C 
ATOM     19  C   UNL     1      30.662 -25.376 -16.045  0.00  0.00    +0.007 C 
ATOM     20  C   UNL     1      34.624 -21.085 -20.296  0.00  0.00    +0.020 C 
ATOM     21  C   UNL     1      35.924 -20.822 -19.579  0.00  0.00    +0.103 C 
ENDROOT
BRANCH  21  22
ATOM     22  N   UNL     1      36.649 -19.803 -19.906  0.00  0.00    -0.085 NA
BRANCH  22  23
ATOM     23  O   UNL     1      35.853 -18.914 -20.639  0.00  0.00    -0.269 OA
BRANCH  23  24
ATOM     24  C   UNL     1      36.564 -18.559 -21.816  0.00  0.00    +0.145 C 
BRANCH  24  25
ATOM     25  C   UNL     1      35.561 -18.220 -22.908  0.00  0.00    -0.051 C 
BRANCH  25  26
ATOM     26  N   UNL     1      35.586 -16.796 -23.205  0.00  0.00    +0.382 N 
ATOM     27  H   UNL     1      36.527 -16.433 -23.052  0.00  0.00    -0.089 HD
ATOM     28  H   UNL     1      34.930 -16.310 -22.594  0.00  0.00    -0.089 HD
ATOM     29  H   UNL     1      35.318 -16.646 -24.178  0.00  0.00    -0.089 HD
ENDBRANCH  25  26
ENDBRANCH  24  25
ENDBRANCH  23  24
ENDBRANCH  22  23
ENDBRANCH  21  22
TORSDOF 5
ENDMDL
MODEL 9
REMARK VINA RESULT:      -6.7     10.510     14.785
REMARK  Name = 9841834
REMARK  5 active torsions:
REMARK  status: ('A' for Active; 'I' for Inactive)
REMARK    1  A    between atoms: N_3  and  C_22
REMARK    2  A    between atoms: N_3  and  O_23
REMARK    3  A    between atoms: O_23  and  C_24
REMARK    4  A    between atoms: C_24  and  C_25
REMARK    5  A    between atoms: C_25  and  N_26
REMARK                            x       y       z     vdW  Elec       q    Type
REMARK                         _______ _______ _______ _____ _____    ______ ____
ROOT
ATOM      1  O   UNL     1      32.168  -8.003 -19.624  0.00  0.00    -0.296 OA
ATOM      2  O   UNL     1      32.898 -14.694 -24.441  0.00  0.00    -0.296 OA
ATOM      3  C   UNL     1      32.408  -9.596 -23.385  0.00  0.00    +0.001 C 
ATOM      4  C   UNL     1      32.613 -10.460 -22.094  0.00  0.00    +0.008 C 
ATOM      5  C   UNL     1      32.300 -11.918 -22.439  0.00  0.00    +0.007 C 
ATOM      6  C   UNL     1      32.675  -8.065 -23.116  0.00  0.00    +0.007 C 
ATOM      7  C   UNL     1      33.240 -12.462 -23.534  0.00  0.00    +0.052 C 
ATOM      8  C   UNL     1      33.173 -10.176 -24.607  0.00  0.00    +0.000 C 
ATOM      9  C   UNL     1      31.716  -7.614 -21.972  0.00  0.00    +0.059 C 
ATOM     10  C   UNL     1      32.958 -11.687 -24.816  0.00  0.00    +0.007 C 
ATOM     11  C   UNL     1      31.742  -9.959 -20.938  0.00  0.00    +0.064 C 
ATOM     12  C   UNL     1      32.341 -12.983 -21.348  0.00  0.00    +0.008 C 
ATOM     13  C   UNL     1      32.324  -7.223 -24.381  0.00  0.00    +0.002 C 
ATOM     14  C   UNL     1      31.929  -8.473 -20.735  0.00  0.00    +0.150 C 
ATOM     15  C   UNL     1      32.793 -13.913 -23.505  0.00  0.00    +0.150 C 
ATOM     16  C   UNL     1      32.225 -14.290 -22.146  0.00  0.00    +0.064 C 
ATOM     17  C   UNL     1      34.159  -7.814 -22.745  0.00  0.00    +0.000 C 
ATOM     18  C   UNL     1      31.787  -6.117 -21.663  0.00  0.00    +0.027 C 
ATOM     19  C   UNL     1      34.742 -12.459 -23.195  0.00  0.00    +0.007 C 
ATOM     20  C   UNL     1      32.347  -5.711 -24.151  0.00  0.00    +0.020 C 
ATOM     21  C   UNL     1      31.533  -5.349 -22.936  0.00  0.00    +0.103 C 
ENDROOT
BRANCH  21  22
ATOM     22  N   UNL     1      30.678  -4.381 -22.994  0.00  0.00    -0.085 NA
BRANCH  22  23
ATOM     23  O   UNL     1      30.589  -3.953 -24.324  0.00  0.00    -0.269 OA
BRANCH  23  24
ATOM     24  C   UNL     1      30.841  -2.557 -24.353  0.00  0.00    +0.145 C 
BRANCH  24  25
ATOM     25  C   UNL     1      30.790  -2.022 -22.930  0.00  0.00    -0.051 C 
BRANCH  25  26
ATOM     26  N   UNL     1      29.414  -1.786 -22.519  0.00  0.00    +0.382 N 
ATOM     27  H   UNL     1      29.009  -1.049 -23.095  0.00  0.00    -0.089 HD
ATOM     28  H   UNL     1      29.396  -1.503 -21.540  0.00  0.00    -0.089 HD
ATOM     29  H   UNL     1      28.873  -2.644 -22.634  0.00  0.00    -0.089 HD
ENDBRANCH  25  26
ENDBRANCH  24  25
ENDBRANCH  23  24
ENDBRANCH  22  23
ENDBRANCH  21  22
TORSDOF 5
ENDMDL
