MODEL 1
REMARK VINA RESULT:      -4.0      0.000      0.000
REMARK  Name = 6581
REMARK  2 active torsions:
REMARK  status: ('A' for Active; 'I' for Inactive)
REMARK    1  A    between atoms: C_2  and  O_3
REMARK    2  A    between atoms: C_2  and  C_5
REMARK                            x       y       z     vdW  Elec       q    Type
REMARK                         _______ _______ _______ _____ _____    ______ ____
ROOT
ATOM      1  O   UNL     1      41.234 -26.646 -14.063  0.00  0.00    -0.245 OA
ATOM      2  C   UNL     1      40.415 -26.001 -14.701  0.00  0.00    +0.338 C 
ENDROOT
BRANCH   2   3
ATOM      3  O   UNL     1      40.396 -25.915 -16.049  0.00  0.00    -0.477 OA
ATOM      4  H   UNL     1      40.122 -26.650 -16.561  0.00  0.00    +0.295 HD
ENDBRANCH   2   3
BRANCH   2   5
ATOM      5  C   UNL     1      39.334 -25.226 -14.063  0.00  0.00    +0.082 C 
ATOM      6  C   UNL     1      38.551 -25.697 -13.088  0.00  0.00    +0.007 C 
ENDBRANCH   2   5
TORSDOF 2
ENDMDL
MODEL 2
REMARK VINA RESULT:      -3.9     10.452     10.895
REMARK  Name = 6581
REMARK  2 active torsions:
REMARK  status: ('A' for Active; 'I' for Inactive)
REMARK    1  A    between atoms: C_2  and  O_3
REMARK    2  A    between atoms: C_2  and  C_5
REMARK                            x       y       z     vdW  Elec       q    Type
REMARK                         _______ _______ _______ _____ _____    ______ ____
ROOT
ATOM      1  O   UNL     1      42.262 -16.501 -15.716  0.00  0.00    -0.245 OA
ATOM      2  C   UNL     1      41.278 -15.778 -15.773  0.00  0.00    +0.338 C 
ENDROOT
BRANCH   2   3
ATOM      3  O   UNL     1      40.093 -16.056 -15.187  0.00  0.00    -0.477 OA
ATOM      4  H   UNL     1      39.930 -16.913 -14.845  0.00  0.00    +0.295 HD
ENDBRANCH   2   3
BRANCH   2   5
ATOM      5  C   UNL     1      41.269 -14.496 -16.502  0.00  0.00    +0.082 C 
ATOM      6  C   UNL     1      41.232 -14.392 -17.834  0.00  0.00    +0.007 C 
ENDBRANCH   2   5
TORSDOF 2
ENDMDL
MODEL 3
REMARK VINA RESULT:      -3.7     13.524     14.132
REMARK  Name = 6581
REMARK  2 active torsions:
REMARK  status: ('A' for Active; 'I' for Inactive)
REMARK    1  A    between atoms: C_2  and  O_3
REMARK    2  A    between atoms: C_2  and  C_5
REMARK                            x       y       z     vdW  Elec       q    Type
REMARK                         _______ _______ _______ _____ _____    ______ ____
ROOT
ATOM      1  O   UNL     1      26.315 -20.766 -17.841  0.00  0.00    -0.245 OA
ATOM      2  C   UNL     1      26.480 -21.639 -17.001  0.00  0.00    +0.338 C 
ENDROOT
BRANCH   2   3
ATOM      3  O   UNL     1      25.570 -21.972 -16.060  0.00  0.00    -0.477 OA
ATOM      4  H   UNL     1      25.315 -22.867 -15.951  0.00  0.00    +0.295 HD
ENDBRANCH   2   3
BRANCH   2   5
ATOM      5  C   UNL     1      27.713 -22.443 -16.916  0.00  0.00    +0.082 C 
ATOM      6  C   UNL     1      28.167 -23.001 -15.789  0.00  0.00    +0.007 C 
ENDBRANCH   2   5
TORSDOF 2
ENDMDL
MODEL 4
REMARK VINA RESULT:      -3.7     12.013     12.561
REMARK  Name = 6581
REMARK  2 active torsions:
REMARK  status: ('A' for Active; 'I' for Inactive)
REMARK    1  A    between atoms: C_2  and  O_3
REMARK    2  A    between atoms: C_2  and  C_5
REMARK                            x       y       z     vdW  Elec       q    Type
REMARK                         _______ _______ _______ _____ _____    ______ ____
ROOT
ATOM      1  O   UNL     1      27.450 -21.585 -17.126  0.00  0.00    -0.245 OA
ATOM      2  C   UNL     1      27.862 -22.717 -16.918  0.00  0.00    +0.338 C 
ENDROOT
BRANCH   2   3
ATOM      3  O   UNL     1      27.607 -23.779 -17.714  0.00  0.00    -0.477 OA
ATOM      4  H   UNL     1      27.107 -23.666 -18.499  0.00  0.00    +0.295 HD
ENDBRANCH   2   3
BRANCH   2   5
ATOM      5  C   UNL     1      28.698 -23.062 -15.753  0.00  0.00    +0.082 C 
ATOM      6  C   UNL     1      28.965 -24.314 -15.367  0.00  0.00    +0.007 C 
ENDBRANCH   2   5
TORSDOF 2
ENDMDL
MODEL 5
REMARK VINA RESULT:      -3.6     13.667     14.368
REMARK  Name = 6581
REMARK  2 active torsions:
REMARK  status: ('A' for Active; 'I' for Inactive)
REMARK    1  A    between atoms: C_2  and  O_3
REMARK    2  A    between atoms: C_2  and  C_5
REMARK                            x       y       z     vdW  Elec       q    Type
REMARK                         _______ _______ _______ _____ _____    ______ ____
ROOT
ATOM      1  O   UNL     1      34.429 -16.386 -25.899  0.00  0.00    -0.245 OA
ATOM      2  C   UNL     1      34.855 -16.949 -24.901  0.00  0.00    +0.338 C 
ENDROOT
BRANCH   2   3
ATOM      3  O   UNL     1      35.594 -16.346 -23.945  0.00  0.00    -0.477 OA
ATOM      4  H   UNL     1      36.339 -16.784 -23.583  0.00  0.00    +0.295 HD
ENDBRANCH   2   3
BRANCH   2   5
ATOM      5  C   UNL     1      34.608 -18.376 -24.620  0.00  0.00    +0.082 C 
ATOM      6  C   UNL     1      34.966 -18.989 -23.488  0.00  0.00    +0.007 C 
ENDBRANCH   2   5
TORSDOF 2
ENDMDL
MODEL 6
REMARK VINA RESULT:      -3.6     10.462     10.925
REMARK  Name = 6581
REMARK  2 active torsions:
REMARK  status: ('A' for Active; 'I' for Inactive)
REMARK    1  A    between atoms: C_2  and  O_3
REMARK    2  A    between atoms: C_2  and  C_5
REMARK                            x       y       z     vdW  Elec       q    Type
REMARK                         _______ _______ _______ _____ _____    ______ ____
ROOT
ATOM      1  O   UNL     1      40.404 -16.286 -15.550  0.00  0.00    -0.245 OA
ATOM      2  C   UNL     1      41.453 -15.839 -15.991  0.00  0.00    +0.338 C 
ENDROOT
BRANCH   2   3
ATOM      3  O   UNL     1      42.640 -16.483 -15.931  0.00  0.00    -0.477 OA
ATOM      4  H   UNL     1      43.405 -16.090 -16.300  0.00  0.00    +0.295 HD
ENDBRANCH   2   3
BRANCH   2   5
ATOM      5  C   UNL     1      41.548 -14.523 -16.649  0.00  0.00    +0.082 C 
ATOM      6  C   UNL     1      41.205 -14.295 -17.921  0.00  0.00    +0.007 C 
ENDBRANCH   2   5
TORSDOF 2
ENDMDL
MODEL 7
REMARK VINA RESULT:      -3.5      9.340      9.969
REMARK  Name = 6581
REMARK  2 active torsions:
REMARK  status: ('A' for Active; 'I' for Inactive)
REMARK    1  A    between atoms: C_2  and  O_3
REMARK    2  A    between atoms: C_2  and  C_5
REMARK                            x       y       z     vdW  Elec       q    Type
REMARK                         _______ _______ _______ _____ _____    ______ ____
ROOT
ATOM      1  O   UNL     1      32.783 -22.260 -18.974  0.00  0.00    -0.245 OA
ATOM      2  C   UNL     1      33.507 -21.423 -19.493  0.00  0.00    +0.338 C 
ENDROOT
BRANCH   2   3
ATOM      3  O   UNL     1      34.854 -21.411 -19.386  0.00  0.00    -0.477 OA
ATOM      4  H   UNL     1      35.375 -21.914 -19.980  0.00  0.00    +0.295 HD
ENDBRANCH   2   3
BRANCH   2   5
ATOM      5  C   UNL     1      32.987 -20.310 -20.309  0.00  0.00    +0.082 C 
ATOM      6  C   UNL     1      33.752 -19.506 -21.054  0.00  0.00    +0.007 C 
ENDBRANCH   2   5
TORSDOF 2
ENDMDL
MODEL 8
REMARK VINA RESULT:      -3.5      3.161      3.386
REMARK  Name = 6581
REMARK  2 active torsions:
REMARK  status: ('A' for Active; 'I' for Inactive)
REMARK    1  A    between atoms: C_2  and  O_3
REMARK    2  A    between atoms: C_2  and  C_5
REMARK                            x       y       z     vdW  Elec       q    Type
REMARK                         _______ _______ _______ _____ _____    ______ ____
ROOT
ATOM      1  O   UNL     1      38.140 -27.120 -14.631  0.00  0.00    -0.245 OA
ATOM      2  C   UNL     1      37.156 -26.770 -15.268  0.00  0.00    +0.338 C 
ENDROOT
BRANCH   2   3
ATOM      3  O   UNL     1      36.762 -27.334 -16.431  0.00  0.00    -0.477 OA
ATOM      4  H   UNL     1      35.857 -27.323 -16.673  0.00  0.00    +0.295 HD
ENDBRANCH   2   3
BRANCH   2   5
ATOM      5  C   UNL     1      36.271 -25.674 -14.833  0.00  0.00    +0.082 C 
ATOM      6  C   UNL     1      36.482 -24.384 -15.115  0.00  0.00    +0.007 C 
ENDBRANCH   2   5
TORSDOF 2
ENDMDL
MODEL 9
REMARK VINA RESULT:      -3.4      9.774     10.175
REMARK  Name = 6581
REMARK  2 active torsions:
REMARK  status: ('A' for Active; 'I' for Inactive)
REMARK    1  A    between atoms: C_2  and  O_3
REMARK    2  A    between atoms: C_2  and  C_5
REMARK                            x       y       z     vdW  Elec       q    Type
REMARK                         _______ _______ _______ _____ _____    ______ ____
ROOT
ATOM      1  O   UNL     1      43.128 -16.155 -16.316  0.00  0.00    -0.245 OA
ATOM      2  C   UNL     1      41.951 -16.484 -16.272  0.00  0.00    +0.338 C 
ENDROOT
BRANCH   2   3
ATOM      3  O   UNL     1      41.434 -17.549 -16.925  0.00  0.00    -0.477 OA
ATOM      4  H   UNL     1      41.981 -18.279 -17.136  0.00  0.00    +0.295 HD
ENDBRANCH   2   3
BRANCH   2   5
ATOM      5  C   UNL     1      40.942 -15.745 -15.491  0.00  0.00    +0.082 C 
ATOM      6  C   UNL     1      41.027 -14.443 -15.200  0.00  0.00    +0.007 C 
ENDBRANCH   2   5
TORSDOF 2
ENDMDL
