MODEL 1
REMARK VINA RESULT:     -11.1      0.000      0.000
REMARK  Name = 91885568
REMARK  5 active torsions:
REMARK  status: ('A' for Active; 'I' for Inactive)
REMARK    1  A    between atoms: N_2  and  C_10
REMARK    2  A    between atoms: C_3  and  C_25
REMARK    3  A    between atoms: C_5  and  N_12
REMARK    4  A    between atoms: C_25  and  C_27
REMARK    5  A    between atoms: C_28  and  C_33
REMARK                            x       y       z     vdW  Elec       q    Type
REMARK                         _______ _______ _______ _____ _____    ______ ____
ROOT
ATOM      1  O   UNL     1      35.939 -21.881 -15.993  0.00  0.00    -0.266 OA
ATOM      2  N   UNL     1      34.758 -22.883 -17.792  0.00  0.00    -0.278 N 
ATOM      3  C   UNL     1      35.371 -22.806 -16.547  0.00  0.00    +0.290 C 
ATOM      4  H   UNL     1      34.372 -23.755 -18.034  0.00  0.00    +0.155 HD
ENDROOT
BRANCH   2  10
ATOM      5  C   UNL     1      34.368 -19.835 -20.633  0.00  0.00    +0.048 C 
ATOM      6  C   UNL     1      35.635 -20.251 -20.225  0.00  0.00    +0.016 C 
ATOM      7  C   UNL     1      33.230 -20.435 -20.093  0.00  0.00    +0.016 C 
ATOM      8  C   UNL     1      35.764 -21.267 -19.278  0.00  0.00    +0.016 C 
ATOM      9  C   UNL     1      33.359 -21.451 -19.147  0.00  0.00    +0.016 C 
ATOM     10  C   UNL     1      34.627 -21.867 -18.739  0.00  0.00    +0.051 C 
BRANCH   5  12
ATOM     11  F   UNL     1      33.460 -12.773 -27.196  0.00  0.00    -0.205 F 
ATOM     12  N   UNL     1      34.238 -18.819 -21.576  0.00  0.00    -0.304 N 
ATOM     13  N   UNL     1      33.968 -16.720 -23.527  0.00  0.00    -0.250 N 
ATOM     14  N   UNL     1      34.032 -16.051 -25.758  0.00  0.00    -0.200 NA
ATOM     15  N   UNL     1      33.531 -14.482 -23.999  0.00  0.00    -0.178 NA
ATOM     16  C   UNL     1      33.749 -19.103 -22.926  0.00  0.00    +0.113 C 
ATOM     17  C   UNL     1      34.584 -17.436 -21.249  0.00  0.00    +0.113 C 
ATOM     18  C   UNL     1      33.779 -16.453 -22.101  0.00  0.00    +0.123 C 
ATOM     19  C   UNL     1      34.298 -18.087 -23.930  0.00  0.00    +0.123 C 
ATOM     20  C   UNL     1      33.837 -15.705 -24.470  0.00  0.00    +0.090 C 
ATOM     21  C   UNL     1      33.898 -15.043 -26.645  0.00  0.00    +0.195 C 
ATOM     22  C   UNL     1      33.412 -13.522 -24.940  0.00  0.00    +0.138 C 
ATOM     23  C   UNL     1      33.586 -13.746 -26.290  0.00  0.00    +0.163 C 
ENDBRANCH   5  12
ENDBRANCH   2  10
BRANCH   3  25
ATOM     24  O   UNL     1      35.303 -25.121 -16.488  0.00  0.00    -0.280 OA
ATOM     25  C   UNL     1      35.317 -24.107 -15.806  0.00  0.00    +0.262 C 
BRANCH  25  27
ATOM     26  N   UNL     1      36.428 -24.178 -13.551  0.00  0.00    -0.286 N 
ATOM     27  C   UNL     1      35.299 -24.126 -14.326  0.00  0.00    +0.095 C 
ATOM     28  C   UNL     1      34.210 -24.099 -13.483  0.00  0.00    +0.018 C 
ATOM     29  C   UNL     1      36.077 -24.185 -12.226  0.00  0.00    +0.029 C 
ATOM     30  C   UNL     1      34.703 -24.136 -12.155  0.00  0.00    +0.012 C 
ATOM     31  C   UNL     1      37.786 -24.221 -14.054  0.00  0.00    +0.117 C 
ATOM     32  C   UNL     1      37.081 -24.238 -11.143  0.00  0.00    +0.047 C 
BRANCH  28  33
ATOM     33  C   UNL     1      32.850 -24.044 -13.938  0.00  0.00    +0.001 C 
ATOM     34  C   UNL     1      32.367 -22.891 -14.554  0.00  0.00    +0.000 C 
ATOM     35  C   UNL     1      32.010 -25.145 -13.761  0.00  0.00    +0.000 C 
ATOM     36  C   UNL     1      31.044 -22.836 -14.995  0.00  0.00    +0.000 C 
ATOM     37  C   UNL     1      30.688 -25.091 -14.202  0.00  0.00    +0.000 C 
ATOM     38  C   UNL     1      30.206 -23.937 -14.820  0.00  0.00    +0.000 C 
ENDBRANCH  28  33
ENDBRANCH  25  27
ENDBRANCH   3  25
TORSDOF 5
ENDMDL
MODEL 2
REMARK VINA RESULT:      -9.9      1.005      3.104
REMARK  Name = 91885568
REMARK  5 active torsions:
REMARK  status: ('A' for Active; 'I' for Inactive)
REMARK    1  A    between atoms: N_2  and  C_10
REMARK    2  A    between atoms: C_3  and  C_25
REMARK    3  A    between atoms: C_5  and  N_12
REMARK    4  A    between atoms: C_25  and  C_27
REMARK    5  A    between atoms: C_28  and  C_33
REMARK                            x       y       z     vdW  Elec       q    Type
REMARK                         _______ _______ _______ _____ _____    ______ ____
ROOT
ATOM      1  O   UNL     1      36.114 -21.937 -16.287  0.00  0.00    -0.266 OA
ATOM      2  N   UNL     1      34.551 -22.753 -17.877  0.00  0.00    -0.278 N 
ATOM      3  C   UNL     1      35.337 -22.764 -16.731  0.00  0.00    +0.290 C 
ATOM      4  H   UNL     1      34.004 -23.555 -18.038  0.00  0.00    +0.155 HD
ENDROOT
BRANCH   2  10
ATOM      5  C   UNL     1      34.251 -19.705 -20.729  0.00  0.00    +0.048 C 
ATOM      6  C   UNL     1      35.506 -20.157 -20.320  0.00  0.00    +0.016 C 
ATOM      7  C   UNL     1      33.096 -20.269 -20.187  0.00  0.00    +0.016 C 
ATOM      8  C   UNL     1      35.605 -21.173 -19.369  0.00  0.00    +0.016 C 
ATOM      9  C   UNL     1      33.195 -21.285 -19.237  0.00  0.00    +0.016 C 
ATOM     10  C   UNL     1      34.450 -21.737 -18.828  0.00  0.00    +0.051 C 
BRANCH   5  12
ATOM     11  F   UNL     1      33.551 -12.644 -27.318  0.00  0.00    -0.205 F 
ATOM     12  N   UNL     1      34.151 -18.690 -21.676  0.00  0.00    -0.304 N 
ATOM     13  N   UNL     1      33.942 -16.591 -23.634  0.00  0.00    -0.250 N 
ATOM     14  N   UNL     1      34.054 -15.926 -25.864  0.00  0.00    -0.200 NA
ATOM     15  N   UNL     1      33.543 -14.347 -24.117  0.00  0.00    -0.178 NA
ATOM     16  C   UNL     1      33.682 -18.969 -23.034  0.00  0.00    +0.113 C 
ATOM     17  C   UNL     1      34.509 -17.311 -21.344  0.00  0.00    +0.113 C 
ATOM     18  C   UNL     1      33.732 -16.318 -22.213  0.00  0.00    +0.123 C 
ATOM     19  C   UNL     1      34.262 -17.962 -24.030  0.00  0.00    +0.123 C 
ATOM     20  C   UNL     1      33.841 -15.575 -24.581  0.00  0.00    +0.090 C 
ATOM     21  C   UNL     1      33.949 -14.918 -26.756  0.00  0.00    +0.195 C 
ATOM     22  C   UNL     1      33.453 -13.388 -25.061  0.00  0.00    +0.138 C 
ATOM     23  C   UNL     1      33.648 -13.617 -26.408  0.00  0.00    +0.163 C 
ENDBRANCH   5  12
ENDBRANCH   2  10
BRANCH   3  25
ATOM     24  O   UNL     1      35.880 -24.975 -16.301  0.00  0.00    -0.280 OA
ATOM     25  C   UNL     1      35.185 -24.034 -15.950  0.00  0.00    +0.262 C 
BRANCH  25  27
ATOM     26  N   UNL     1      32.880 -24.046 -14.944  0.00  0.00    -0.286 N 
ATOM     27  C   UNL     1      34.242 -24.104 -14.810  0.00  0.00    +0.095 C 
ATOM     28  C   UNL     1      34.529 -24.231 -13.469  0.00  0.00    +0.018 C 
ATOM     29  C   UNL     1      32.292 -24.134 -13.709  0.00  0.00    +0.029 C 
ATOM     30  C   UNL     1      33.295 -24.250 -12.773  0.00  0.00    +0.012 C 
ATOM     31  C   UNL     1      32.168 -23.911 -16.198  0.00  0.00    +0.117 C 
ATOM     32  C   UNL     1      30.826 -24.099 -13.528  0.00  0.00    +0.047 C 
BRANCH  28  33
ATOM     33  C   UNL     1      35.861 -24.321 -12.943  0.00  0.00    +0.001 C 
ATOM     34  C   UNL     1      36.488 -23.184 -12.434  0.00  0.00    +0.000 C 
ATOM     35  C   UNL     1      36.530 -25.546 -12.941  0.00  0.00    +0.000 C 
ATOM     36  C   UNL     1      37.784 -23.270 -11.923  0.00  0.00    +0.000 C 
ATOM     37  C   UNL     1      37.825 -25.633 -12.430  0.00  0.00    +0.000 C 
ATOM     38  C   UNL     1      38.451 -24.495 -11.921  0.00  0.00    +0.000 C 
ENDBRANCH  28  33
ENDBRANCH  25  27
ENDBRANCH   3  25
TORSDOF 5
ENDMDL
MODEL 3
REMARK VINA RESULT:      -9.5      1.426      3.766
REMARK  Name = 91885568
REMARK  5 active torsions:
REMARK  status: ('A' for Active; 'I' for Inactive)
REMARK    1  A    between atoms: N_2  and  C_10
REMARK    2  A    between atoms: C_3  and  C_25
REMARK    3  A    between atoms: C_5  and  N_12
REMARK    4  A    between atoms: C_25  and  C_27
REMARK    5  A    between atoms: C_28  and  C_33
REMARK                            x       y       z     vdW  Elec       q    Type
REMARK                         _______ _______ _______ _____ _____    ______ ____
ROOT
ATOM      1  O   UNL     1      35.687 -22.170 -15.240  0.00  0.00    -0.266 OA
ATOM      2  N   UNL     1      35.289 -23.332 -17.272  0.00  0.00    -0.278 N 
ATOM      3  C   UNL     1      35.545 -23.175 -15.914  0.00  0.00    +0.290 C 
ATOM      4  H   UNL     1      35.227 -24.258 -17.598  0.00  0.00    +0.155 HD
ENDROOT
BRANCH   2  10
ATOM      5  C   UNL     1      34.751 -20.322 -20.128  0.00  0.00    +0.048 C 
ATOM      6  C   UNL     1      33.651 -21.035 -19.651  0.00  0.00    +0.016 C 
ATOM      7  C   UNL     1      36.030 -20.612 -19.653  0.00  0.00    +0.016 C 
ATOM      8  C   UNL     1      33.832 -22.040 -18.699  0.00  0.00    +0.016 C 
ATOM      9  C   UNL     1      36.210 -21.615 -18.701  0.00  0.00    +0.016 C 
ATOM     10  C   UNL     1      35.111 -22.329 -18.224  0.00  0.00    +0.051 C 
BRANCH   5  12
ATOM     11  F   UNL     1      33.502 -13.364 -26.746  0.00  0.00    -0.205 F 
ATOM     12  N   UNL     1      34.572 -19.322 -21.080  0.00  0.00    -0.304 N 
ATOM     13  N   UNL     1      34.201 -17.253 -23.046  0.00  0.00    -0.250 N 
ATOM     14  N   UNL     1      33.955 -16.649 -25.283  0.00  0.00    -0.200 NA
ATOM     15  N   UNL     1      33.933 -14.991 -23.534  0.00  0.00    -0.178 NA
ATOM     16  C   UNL     1      33.833 -19.580 -22.316  0.00  0.00    +0.113 C 
ATOM     17  C   UNL     1      35.116 -17.979 -20.874  0.00  0.00    +0.113 C 
ATOM     18  C   UNL     1      34.288 -16.932 -21.622  0.00  0.00    +0.123 C 
ATOM     19  C   UNL     1      34.309 -18.658 -23.440  0.00  0.00    +0.123 C 
ATOM     20  C   UNL     1      34.021 -16.253 -23.997  0.00  0.00    +0.090 C 
ATOM     21  C   UNL     1      33.781 -15.654 -26.178  0.00  0.00    +0.195 C 
ATOM     22  C   UNL     1      33.760 -14.047 -24.482  0.00  0.00    +0.138 C 
ATOM     23  C   UNL     1      33.675 -14.323 -25.832  0.00  0.00    +0.163 C 
ENDBRANCH   5  12
ENDBRANCH   2  10
BRANCH   3  25
ATOM     24  O   UNL     1      35.497 -25.491 -15.880  0.00  0.00    -0.280 OA
ATOM     25  C   UNL     1      35.678 -24.488 -15.206  0.00  0.00    +0.262 C 
BRANCH  25  27
ATOM     26  N   UNL     1      35.122 -24.331 -12.758  0.00  0.00    -0.286 N 
ATOM     27  C   UNL     1      36.027 -24.531 -13.767  0.00  0.00    +0.095 C 
ATOM     28  C   UNL     1      37.256 -24.765 -13.192  0.00  0.00    +0.018 C 
ATOM     29  C   UNL     1      35.754 -24.433 -11.546  0.00  0.00    +0.029 C 
ATOM     30  C   UNL     1      37.083 -24.703 -11.786  0.00  0.00    +0.012 C 
ATOM     31  C   UNL     1      33.713 -24.053 -12.942  0.00  0.00    +0.117 C 
ATOM     32  C   UNL     1      35.038 -24.264 -10.265  0.00  0.00    +0.047 C 
BRANCH  28  33
ATOM     33  C   UNL     1      38.454 -25.017 -13.941  0.00  0.00    +0.001 C 
ATOM     34  C   UNL     1      39.342 -26.008 -13.523  0.00  0.00    +0.000 C 
ATOM     35  C   UNL     1      38.731 -24.271 -15.087  0.00  0.00    +0.000 C 
ATOM     36  C   UNL     1      40.507 -26.253 -14.250  0.00  0.00    +0.000 C 
ATOM     37  C   UNL     1      39.895 -24.516 -15.814  0.00  0.00    +0.000 C 
ATOM     38  C   UNL     1      40.783 -25.508 -15.396  0.00  0.00    +0.000 C 
ENDBRANCH  28  33
ENDBRANCH  25  27
ENDBRANCH   3  25
TORSDOF 5
ENDMDL
MODEL 4
REMARK VINA RESULT:      -9.2      4.650     12.063
REMARK  Name = 91885568
REMARK  5 active torsions:
REMARK  status: ('A' for Active; 'I' for Inactive)
REMARK    1  A    between atoms: N_2  and  C_10
REMARK    2  A    between atoms: C_3  and  C_25
REMARK    3  A    between atoms: C_5  and  N_12
REMARK    4  A    between atoms: C_25  and  C_27
REMARK    5  A    between atoms: C_28  and  C_33
REMARK                            x       y       z     vdW  Elec       q    Type
REMARK                         _______ _______ _______ _____ _____    ______ ____
ROOT
ATOM      1  O   UNL     1      35.983 -16.771 -23.594  0.00  0.00    -0.266 OA
ATOM      2  N   UNL     1      34.036 -18.019 -23.054  0.00  0.00    -0.278 N 
ATOM      3  C   UNL     1      34.819 -17.100 -23.744  0.00  0.00    +0.290 C 
ATOM      4  H   UNL     1      33.103 -18.106 -23.352  0.00  0.00    +0.155 HD
ENDROOT
BRANCH   2  10
ATOM      5  C   UNL     1      35.189 -20.456 -19.853  0.00  0.00    +0.048 C 
ATOM      6  C   UNL     1      33.847 -20.386 -20.229  0.00  0.00    +0.016 C 
ATOM      7  C   UNL     1      36.146 -19.714 -20.545  0.00  0.00    +0.016 C 
ATOM      8  C   UNL     1      33.464 -19.573 -21.296  0.00  0.00    +0.016 C 
ATOM      9  C   UNL     1      35.764 -18.902 -21.611  0.00  0.00    +0.016 C 
ATOM     10  C   UNL     1      34.422 -18.831 -21.987  0.00  0.00    +0.051 C 
BRANCH   5  12
ATOM     11  F   UNL     1      37.853 -26.084 -12.437  0.00  0.00    -0.205 F 
ATOM     12  N   UNL     1      35.572 -21.266 -18.787  0.00  0.00    -0.304 N 
ATOM     13  N   UNL     1      36.363 -22.938 -16.583  0.00  0.00    -0.250 N 
ATOM     14  N   UNL     1      38.068 -23.840 -15.275  0.00  0.00    -0.200 NA
ATOM     15  N   UNL     1      35.755 -24.355 -14.837  0.00  0.00    -0.178 NA
ATOM     16  C   UNL     1      36.766 -20.959 -17.999  0.00  0.00    +0.113 C 
ATOM     17  C   UNL     1      34.792 -22.448 -18.420  0.00  0.00    +0.113 C 
ATOM     18  C   UNL     1      34.953 -22.770 -16.932  0.00  0.00    +0.123 C 
ATOM     19  C   UNL     1      37.359 -22.231 -17.388  0.00  0.00    +0.123 C 
ATOM     20  C   UNL     1      36.746 -23.747 -15.516  0.00  0.00    +0.090 C 
ATOM     21  C   UNL     1      38.404 -24.632 -14.235  0.00  0.00    +0.195 C 
ATOM     22  C   UNL     1      36.161 -25.131 -13.810  0.00  0.00    +0.138 C 
ATOM     23  C   UNL     1      37.484 -25.308 -13.460  0.00  0.00    +0.163 C 
ENDBRANCH   5  12
ENDBRANCH   2  10
BRANCH   3  25
ATOM     24  O   UNL     1      33.676 -17.112 -25.759  0.00  0.00    -0.280 OA
ATOM     25  C   UNL     1      34.057 -16.410 -24.834  0.00  0.00    +0.262 C 
BRANCH  25  27
ATOM     26  N   UNL     1      33.718 -14.133 -25.846  0.00  0.00    -0.286 N 
ATOM     27  C   UNL     1      33.786 -14.957 -24.753  0.00  0.00    +0.095 C 
ATOM     28  C   UNL     1      33.565 -14.189 -23.632  0.00  0.00    +0.018 C 
ATOM     29  C   UNL     1      33.456 -12.851 -25.441  0.00  0.00    +0.029 C 
ATOM     30  C   UNL     1      33.355 -12.856 -24.067  0.00  0.00    +0.012 C 
ATOM     31  C   UNL     1      33.896 -14.553 -27.221  0.00  0.00    +0.117 C 
ATOM     32  C   UNL     1      33.324 -11.732 -26.396  0.00  0.00    +0.047 C 
BRANCH  28  33
ATOM     33  C   UNL     1      33.562 -14.710 -22.295  0.00  0.00    +0.001 C 
ATOM     34  C   UNL     1      32.375 -15.176 -21.731  0.00  0.00    +0.000 C 
ATOM     35  C   UNL     1      34.746 -14.749 -21.558  0.00  0.00    +0.000 C 
ATOM     36  C   UNL     1      32.371 -15.681 -20.430  0.00  0.00    +0.000 C 
ATOM     37  C   UNL     1      34.743 -15.254 -20.258  0.00  0.00    +0.000 C 
ATOM     38  C   UNL     1      33.555 -15.721 -19.695  0.00  0.00    +0.000 C 
ENDBRANCH  28  33
ENDBRANCH  25  27
ENDBRANCH   3  25
TORSDOF 5
ENDMDL
MODEL 5
REMARK VINA RESULT:      -8.4      2.881      4.400
REMARK  Name = 91885568
REMARK  5 active torsions:
REMARK  status: ('A' for Active; 'I' for Inactive)
REMARK    1  A    between atoms: N_2  and  C_10
REMARK    2  A    between atoms: C_3  and  C_25
REMARK    3  A    between atoms: C_5  and  N_12
REMARK    4  A    between atoms: C_25  and  C_27
REMARK    5  A    between atoms: C_28  and  C_33
REMARK                            x       y       z     vdW  Elec       q    Type
REMARK                         _______ _______ _______ _____ _____    ______ ____
ROOT
ATOM      1  O   UNL     1      32.111 -20.737 -19.136  0.00  0.00    -0.266 OA
ATOM      2  N   UNL     1      34.162 -20.072 -20.129  0.00  0.00    -0.278 N 
ATOM      3  C   UNL     1      33.264 -20.916 -19.486  0.00  0.00    +0.290 C 
ATOM      4  H   UNL     1      35.059 -20.438 -20.300  0.00  0.00    +0.155 HD
ENDROOT
BRANCH   2  10
ATOM      5  C   UNL     1      33.494 -16.148 -21.421  0.00  0.00    +0.048 C 
ATOM      6  C   UNL     1      34.789 -16.667 -21.407  0.00  0.00    +0.016 C 
ATOM      7  C   UNL     1      32.422 -16.937 -21.004  0.00  0.00    +0.016 C 
ATOM      8  C   UNL     1      35.011 -17.975 -20.976  0.00  0.00    +0.016 C 
ATOM      9  C   UNL     1      32.643 -18.244 -20.574  0.00  0.00    +0.016 C 
ATOM     10  C   UNL     1      33.939 -18.763 -20.559  0.00  0.00    +0.051 C 
BRANCH   5  12
ATOM     11  F   UNL     1      31.946  -7.066 -24.403  0.00  0.00    -0.205 F 
ATOM     12  N   UNL     1      33.272 -14.842 -21.849  0.00  0.00    -0.304 N 
ATOM     13  N   UNL     1      32.811 -12.142 -22.735  0.00  0.00    -0.250 N 
ATOM     14  N   UNL     1      33.426 -10.361 -24.105  0.00  0.00    -0.200 NA
ATOM     15  N   UNL     1      31.559 -10.184 -22.592  0.00  0.00    -0.178 NA
ATOM     16  C   UNL     1      33.576 -14.436 -23.222  0.00  0.00    +0.113 C 
ATOM     17  C   UNL     1      32.725 -13.833 -20.942  0.00  0.00    +0.113 C 
ATOM     18  C   UNL     1      31.961 -12.756 -21.715  0.00  0.00    +0.123 C 
ATOM     19  C   UNL     1      33.903 -12.943 -23.291  0.00  0.00    +0.123 C 
ATOM     20  C   UNL     1      32.588 -10.837 -23.164  0.00  0.00    +0.090 C 
ATOM     21  C   UNL     1      33.182  -9.093 -24.497  0.00  0.00    +0.195 C 
ATOM     22  C   UNL     1      31.372  -8.921 -23.030  0.00  0.00    +0.138 C 
ATOM     23  C   UNL     1      32.159  -8.318 -23.990  0.00  0.00    +0.163 C 
ENDBRANCH   5  12
ENDBRANCH   2  10
BRANCH   3  25
ATOM     24  O   UNL     1      33.603 -23.161 -19.951  0.00  0.00    -0.280 OA
ATOM     25  C   UNL     1      33.865 -22.253 -19.176  0.00  0.00    +0.262 C 
BRANCH  25  27
ATOM     26  N   UNL     1      36.083 -22.161 -17.992  0.00  0.00    -0.286 N 
ATOM     27  C   UNL     1      34.738 -22.425 -17.992  0.00  0.00    +0.095 C 
ATOM     28  C   UNL     1      34.394 -22.862 -16.732  0.00  0.00    +0.018 C 
ATOM     29  C   UNL     1      36.603 -22.422 -16.752  0.00  0.00    +0.029 C 
ATOM     30  C   UNL     1      35.575 -22.859 -15.947  0.00  0.00    +0.012 C 
ATOM     31  C   UNL     1      36.839 -21.680 -19.130  0.00  0.00    +0.117 C 
ATOM     32  C   UNL     1      38.035 -22.232 -16.440  0.00  0.00    +0.047 C 
BRANCH  28  33
ATOM     33  C   UNL     1      33.062 -23.237 -16.353  0.00  0.00    +0.001 C 
ATOM     34  C   UNL     1      31.971 -22.766 -17.082  0.00  0.00    +0.000 C 
ATOM     35  C   UNL     1      32.858 -24.071 -15.253  0.00  0.00    +0.000 C 
ATOM     36  C   UNL     1      30.675 -23.129 -16.713  0.00  0.00    +0.000 C 
ATOM     37  C   UNL     1      31.563 -24.434 -14.884  0.00  0.00    +0.000 C 
ATOM     38  C   UNL     1      30.472 -23.963 -15.615  0.00  0.00    +0.000 C 
ENDBRANCH  28  33
ENDBRANCH  25  27
ENDBRANCH   3  25
TORSDOF 5
ENDMDL
