MODEL 1
REMARK VINA RESULT:      -7.7      0.000      0.000
REMARK  Name = 59868
REMARK  3 active torsions:
REMARK  status: ('A' for Active; 'I' for Inactive)
REMARK    1  A    between atoms: C_4  and  N_13
REMARK    2  A    between atoms: N_13  and  C_16
REMARK    3  A    between atoms: C_16  and  C_17
REMARK                            x       y       z     vdW  Elec       q    Type
REMARK                         _______ _______ _______ _____ _____    ______ ____
ROOT
ATOM      1  S   UNL     1      33.642 -14.434 -24.045  0.00  0.00    -0.062 S 
ATOM      2  N   UNL     1      33.795 -16.158 -25.974  0.00  0.00    -0.389 NA
ATOM      3  N   UNL     1      33.006 -14.017 -26.597  0.00  0.00    -0.328 N 
ATOM      4  C   UNL     1      34.707 -17.986 -22.270  0.00  0.00    -0.060 C 
ATOM      5  C   UNL     1      35.404 -18.564 -23.523  0.00  0.00    -0.014 C 
ATOM      6  C   UNL     1      34.632 -16.442 -22.321  0.00  0.00    -0.003 C 
ATOM      7  C   UNL     1      34.645 -18.207 -24.816  0.00  0.00    +0.053 C 
ATOM      8  C   UNL     1      34.199 -15.999 -23.679  0.00  0.00    +0.101 C 
ATOM      9  C   UNL     1      34.223 -16.779 -24.819  0.00  0.00    +0.099 C 
ATOM     10  C   UNL     1      33.467 -14.916 -25.687  0.00  0.00    +0.204 C 
ATOM     11  H   UNL     1      32.777 -13.102 -26.312  0.00  0.00    +0.145 HD
ATOM     12  H   UNL     1      32.900 -14.280 -27.539  0.00  0.00    +0.145 HD
ENDROOT
BRANCH   4  13
ATOM     13  N   UNL     1      35.421 -18.400 -21.063  0.00  0.00    +0.385 N 
ATOM     14  H   UNL     1      35.108 -17.831 -20.277  0.00  0.00    -0.084 HD
ATOM     15  H   UNL     1      36.422 -18.274 -21.215  0.00  0.00    -0.084 HD
BRANCH  13  16
ATOM     16  C   UNL     1      35.165 -19.802 -20.770  0.00  0.00    -0.082 C 
BRANCH  16  17
ATOM     17  C   UNL     1      33.665 -20.048 -20.626  0.00  0.00    -0.023 C 
ATOM     18  C   UNL     1      33.381 -21.169 -19.639  0.00  0.00    -0.002 C 
ENDBRANCH  16  17
ENDBRANCH  13  16
ENDBRANCH   4  13
TORSDOF 3
ENDMDL
MODEL 2
REMARK VINA RESULT:      -7.4      1.336      2.046
REMARK  Name = 59868
REMARK  3 active torsions:
REMARK  status: ('A' for Active; 'I' for Inactive)
REMARK    1  A    between atoms: C_4  and  N_13
REMARK    2  A    between atoms: N_13  and  C_16
REMARK    3  A    between atoms: C_16  and  C_17
REMARK                            x       y       z     vdW  Elec       q    Type
REMARK                         _______ _______ _______ _____ _____    ______ ____
ROOT
ATOM      1  S   UNL     1      34.252 -16.912 -25.308  0.00  0.00    -0.062 S 
ATOM      2  N   UNL     1      33.662 -14.787 -23.948  0.00  0.00    -0.389 NA
ATOM      3  N   UNL     1      33.171 -14.673 -26.259  0.00  0.00    -0.328 N 
ATOM      4  C   UNL     1      35.663 -17.605 -21.509  0.00  0.00    -0.060 C 
ATOM      5  C   UNL     1      34.640 -16.679 -20.810  0.00  0.00    -0.014 C 
ATOM      6  C   UNL     1      35.157 -18.070 -22.895  0.00  0.00    -0.003 C 
ATOM      7  C   UNL     1      34.373 -15.401 -21.629  0.00  0.00    +0.053 C 
ATOM      8  C   UNL     1      34.577 -16.913 -23.638  0.00  0.00    +0.101 C 
ATOM      9  C   UNL     1      34.195 -15.712 -23.075  0.00  0.00    +0.099 C 
ATOM     10  C   UNL     1      33.640 -15.312 -25.154  0.00  0.00    +0.204 C 
ATOM     11  H   UNL     1      33.185 -15.126 -27.133  0.00  0.00    +0.145 HD
ATOM     12  H   UNL     1      32.819 -13.756 -26.185  0.00  0.00    +0.145 HD
ENDROOT
BRANCH   4  13
ATOM     13  N   UNL     1      35.937 -18.771 -20.672  0.00  0.00    +0.385 N 
ATOM     14  H   UNL     1      35.612 -18.587 -19.723  0.00  0.00    -0.084 HD
ATOM     15  H   UNL     1      36.942 -18.947 -20.674  0.00  0.00    -0.084 HD
BRANCH  13  16
ATOM     16  C   UNL     1      35.256 -19.948 -21.190  0.00  0.00    -0.082 C 
BRANCH  16  17
ATOM     17  C   UNL     1      34.249 -20.470 -20.167  0.00  0.00    -0.023 C 
ATOM     18  C   UNL     1      32.827 -20.081 -20.542  0.00  0.00    -0.002 C 
ENDBRANCH  16  17
ENDBRANCH  13  16
ENDBRANCH   4  13
TORSDOF 3
ENDMDL
MODEL 3
REMARK VINA RESULT:      -7.2      3.531      6.860
REMARK  Name = 59868
REMARK  3 active torsions:
REMARK  status: ('A' for Active; 'I' for Inactive)
REMARK    1  A    between atoms: C_4  and  N_13
REMARK    2  A    between atoms: N_13  and  C_16
REMARK    3  A    between atoms: C_16  and  C_17
REMARK                            x       y       z     vdW  Elec       q    Type
REMARK                         _______ _______ _______ _____ _____    ______ ____
ROOT
ATOM      1  S   UNL     1      35.389 -22.081 -18.750  0.00  0.00    -0.062 S 
ATOM      2  N   UNL     1      32.843 -21.781 -19.129  0.00  0.00    -0.389 NA
ATOM      3  N   UNL     1      33.439 -23.469 -17.584  0.00  0.00    -0.328 N 
ATOM      4  C   UNL     1      35.042 -19.303 -21.760  0.00  0.00    -0.060 C 
ATOM      5  C   UNL     1      33.653 -18.789 -21.315  0.00  0.00    -0.014 C 
ATOM      6  C   UNL     1      35.800 -19.981 -20.594  0.00  0.00    -0.003 C 
ATOM      7  C   UNL     1      32.752 -19.935 -20.816  0.00  0.00    +0.053 C 
ATOM      8  C   UNL     1      34.878 -20.888 -19.849  0.00  0.00    +0.101 C 
ATOM      9  C   UNL     1      33.500 -20.862 -19.922  0.00  0.00    +0.099 C 
ATOM     10  C   UNL     1      33.740 -22.477 -18.464  0.00  0.00    +0.204 C 
ATOM     11  H   UNL     1      34.162 -23.951 -17.119  0.00  0.00    +0.145 HD
ATOM     12  H   UNL     1      32.500 -23.706 -17.412  0.00  0.00    +0.145 HD
ENDROOT
BRANCH   4  13
ATOM     13  N   UNL     1      35.842 -18.197 -22.285  0.00  0.00    +0.385 N 
ATOM     14  H   UNL     1      36.128 -18.414 -23.240  0.00  0.00    -0.084 HD
ATOM     15  H   UNL     1      36.661 -18.073 -21.689  0.00  0.00    -0.084 HD
BRANCH  13  16
ATOM     16  C   UNL     1      35.074 -16.962 -22.286  0.00  0.00    -0.082 C 
BRANCH  16  17
ATOM     17  C   UNL     1      35.097 -16.325 -23.674  0.00  0.00    -0.023 C 
ATOM     18  C   UNL     1      34.726 -17.332 -24.751  0.00  0.00    -0.002 C 
ENDBRANCH  16  17
ENDBRANCH  13  16
ENDBRANCH   4  13
TORSDOF 3
ENDMDL
MODEL 4
REMARK VINA RESULT:      -7.2      1.324      1.424
REMARK  Name = 59868
REMARK  3 active torsions:
REMARK  status: ('A' for Active; 'I' for Inactive)
REMARK    1  A    between atoms: C_4  and  N_13
REMARK    2  A    between atoms: N_13  and  C_16
REMARK    3  A    between atoms: C_16  and  C_17
REMARK                            x       y       z     vdW  Elec       q    Type
REMARK                         _______ _______ _______ _____ _____    ______ ____
ROOT
ATOM      1  S   UNL     1      33.964 -14.511 -22.020  0.00  0.00    -0.062 S 
ATOM      2  N   UNL     1      34.061 -15.520 -24.405  0.00  0.00    -0.389 NA
ATOM      3  N   UNL     1      33.228 -13.310 -24.279  0.00  0.00    -0.328 N 
ATOM      4  C   UNL     1      35.130 -18.421 -21.516  0.00  0.00    -0.060 C 
ATOM      5  C   UNL     1      35.785 -18.551 -22.911  0.00  0.00    -0.014 C 
ATOM      6  C   UNL     1      35.036 -16.944 -21.066  0.00  0.00    -0.003 C 
ATOM      7  C   UNL     1      34.974 -17.814 -23.995  0.00  0.00    +0.053 C 
ATOM      8  C   UNL     1      34.549 -16.099 -22.194  0.00  0.00    +0.101 C 
ATOM      9  C   UNL     1      34.538 -16.470 -23.524  0.00  0.00    +0.099 C 
ATOM     10  C   UNL     1      33.732 -14.445 -23.723  0.00  0.00    +0.204 C 
ATOM     11  H   UNL     1      33.001 -12.540 -23.708  0.00  0.00    +0.145 HD
ATOM     12  H   UNL     1      33.089 -13.260 -25.253  0.00  0.00    +0.145 HD
ENDROOT
BRANCH   4  13
ATOM     13  N   UNL     1      35.892 -19.185 -20.531  0.00  0.00    +0.385 N 
ATOM     14  H   UNL     1      35.829 -18.721 -19.625  0.00  0.00    -0.084 HD
ATOM     15  H   UNL     1      36.864 -19.236 -20.836  0.00  0.00    -0.084 HD
BRANCH  13  16
ATOM     16  C   UNL     1      35.369 -20.537 -20.412  0.00  0.00    -0.082 C 
BRANCH  16  17
ATOM     17  C   UNL     1      33.854 -20.505 -20.217  0.00  0.00    -0.023 C 
ATOM     18  C   UNL     1      33.387 -21.643 -19.324  0.00  0.00    -0.002 C 
ENDBRANCH  16  17
ENDBRANCH  13  16
ENDBRANCH   4  13
TORSDOF 3
ENDMDL
MODEL 5
REMARK VINA RESULT:      -7.0      2.423      6.469
REMARK  Name = 59868
REMARK  3 active torsions:
REMARK  status: ('A' for Active; 'I' for Inactive)
REMARK    1  A    between atoms: C_4  and  N_13
REMARK    2  A    between atoms: N_13  and  C_16
REMARK    3  A    between atoms: C_16  and  C_17
REMARK                            x       y       z     vdW  Elec       q    Type
REMARK                         _______ _______ _______ _____ _____    ______ ____
ROOT
ATOM      1  S   UNL     1      35.659 -18.304 -22.954  0.00  0.00    -0.062 S 
ATOM      2  N   UNL     1      35.262 -17.268 -20.613  0.00  0.00    -0.389 NA
ATOM      3  N   UNL     1      36.295 -19.395 -20.610  0.00  0.00    -0.328 N 
ATOM      4  C   UNL     1      33.541 -14.846 -23.624  0.00  0.00    -0.060 C 
ATOM      5  C   UNL     1      34.047 -14.124 -22.353  0.00  0.00    -0.014 C 
ATOM      6  C   UNL     1      34.502 -15.976 -24.059  0.00  0.00    -0.003 C 
ATOM      7  C   UNL     1      34.160 -15.087 -21.156  0.00  0.00    +0.053 C 
ATOM      8  C   UNL     1      34.918 -16.776 -22.870  0.00  0.00    +0.101 C 
ATOM      9  C   UNL     1      34.791 -16.376 -21.554  0.00  0.00    +0.099 C 
ATOM     10  C   UNL     1      35.745 -18.320 -21.236  0.00  0.00    +0.204 C 
ATOM     11  H   UNL     1      36.638 -20.152 -21.140  0.00  0.00    +0.145 HD
ATOM     12  H   UNL     1      36.349 -19.418 -19.627  0.00  0.00    +0.145 HD
ENDROOT
BRANCH   4  13
ATOM     13  N   UNL     1      33.386 -13.887 -24.717  0.00  0.00    +0.385 N 
ATOM     14  H   UNL     1      32.414 -13.886 -25.026  0.00  0.00    -0.084 HD
ATOM     15  H   UNL     1      34.001 -14.162 -25.483  0.00  0.00    -0.084 HD
BRANCH  13  16
ATOM     16  C   UNL     1      33.750 -12.548 -24.282  0.00  0.00    -0.082 C 
BRANCH  16  17
ATOM     17  C   UNL     1      33.996 -11.647 -25.490  0.00  0.00    -0.023 C 
ATOM     18  C   UNL     1      34.911 -10.485 -25.136  0.00  0.00    -0.002 C 
ENDBRANCH  16  17
ENDBRANCH  13  16
ENDBRANCH   4  13
TORSDOF 3
ENDMDL
MODEL 6
REMARK VINA RESULT:      -7.0      6.836     10.844
REMARK  Name = 59868
REMARK  3 active torsions:
REMARK  status: ('A' for Active; 'I' for Inactive)
REMARK    1  A    between atoms: C_4  and  N_13
REMARK    2  A    between atoms: N_13  and  C_16
REMARK    3  A    between atoms: C_16  and  C_17
REMARK                            x       y       z     vdW  Elec       q    Type
REMARK                         _______ _______ _______ _____ _____    ______ ____
ROOT
ATOM      1  S   UNL     1      35.687 -23.826 -14.412  0.00  0.00    -0.062 S 
ATOM      2  N   UNL     1      33.349 -24.321 -13.410  0.00  0.00    -0.389 NA
ATOM      3  N   UNL     1      35.174 -24.746 -11.967  0.00  0.00    -0.328 N 
ATOM      4  C   UNL     1      33.022 -23.243 -17.487  0.00  0.00    -0.060 C 
ATOM      5  C   UNL     1      31.831 -22.877 -16.572  0.00  0.00    -0.014 C 
ATOM      6  C   UNL     1      34.378 -23.012 -16.779  0.00  0.00    -0.003 C 
ATOM      7  C   UNL     1      31.808 -23.736 -15.293  0.00  0.00    +0.053 C 
ATOM      8  C   UNL     1      34.322 -23.548 -15.388  0.00  0.00    +0.101 C 
ATOM      9  C   UNL     1      33.167 -23.856 -14.696  0.00  0.00    +0.099 C 
ATOM     10  C   UNL     1      34.639 -24.343 -13.150  0.00  0.00    +0.204 C 
ATOM     11  H   UNL     1      36.151 -24.739 -11.840  0.00  0.00    +0.145 HD
ATOM     12  H   UNL     1      34.585 -25.046 -11.237  0.00  0.00    +0.145 HD
ENDROOT
BRANCH   4  13
ATOM     13  N   UNL     1      32.972 -22.453 -18.716  0.00  0.00    +0.385 N 
ATOM     14  H   UNL     1      32.494 -21.571 -18.528  0.00  0.00    -0.084 HD
ATOM     15  H   UNL     1      32.469 -22.984 -19.427  0.00  0.00    -0.084 HD
BRANCH  13  16
ATOM     16  C   UNL     1      34.314 -22.173 -19.203  0.00  0.00    -0.082 C 
BRANCH  16  17
ATOM     17  C   UNL     1      34.330 -20.862 -19.988  0.00  0.00    -0.023 C 
ATOM     18  C   UNL     1      32.922 -20.338 -20.219  0.00  0.00    -0.002 C 
ENDBRANCH  16  17
ENDBRANCH  13  16
ENDBRANCH   4  13
TORSDOF 3
ENDMDL
MODEL 7
REMARK VINA RESULT:      -6.9      2.757      6.141
REMARK  Name = 59868
REMARK  3 active torsions:
REMARK  status: ('A' for Active; 'I' for Inactive)
REMARK    1  A    between atoms: C_4  and  N_13
REMARK    2  A    between atoms: N_13  and  C_16
REMARK    3  A    between atoms: C_16  and  C_17
REMARK                            x       y       z     vdW  Elec       q    Type
REMARK                         _______ _______ _______ _____ _____    ______ ____
ROOT
ATOM      1  S   UNL     1      32.772 -20.426 -20.526  0.00  0.00    -0.062 S 
ATOM      2  N   UNL     1      35.047 -21.194 -19.553  0.00  0.00    -0.389 NA
ATOM      3  N   UNL     1      33.162 -22.392 -18.774  0.00  0.00    -0.328 N 
ATOM      4  C   UNL     1      35.547 -17.757 -21.967  0.00  0.00    -0.060 C 
ATOM      5  C   UNL     1      36.735 -18.745 -21.906  0.00  0.00    -0.014 C 
ATOM      6  C   UNL     1      34.191 -18.498 -22.027  0.00  0.00    -0.003 C 
ATOM      7  C   UNL     1      36.671 -19.640 -20.653  0.00  0.00    +0.053 C 
ATOM      8  C   UNL     1      34.177 -19.612 -21.035  0.00  0.00    +0.101 C 
ATOM      9  C   UNL     1      35.292 -20.154 -20.425  0.00  0.00    +0.099 C 
ATOM     10  C   UNL     1      33.753 -21.427 -19.529  0.00  0.00    +0.204 C 
ATOM     11  H   UNL     1      32.185 -22.511 -18.804  0.00  0.00    +0.145 HD
ATOM     12  H   UNL     1      33.712 -22.971 -18.198  0.00  0.00    +0.145 HD
ENDROOT
BRANCH   4  13
ATOM     13  N   UNL     1      35.680 -16.885 -23.133  0.00  0.00    +0.385 N 
ATOM     14  H   UNL     1      36.668 -16.779 -23.362  0.00  0.00    -0.084 HD
ATOM     15  H   UNL     1      35.268 -15.978 -22.912  0.00  0.00    -0.084 HD
BRANCH  13  16
ATOM     16  C   UNL     1      34.983 -17.448 -24.279  0.00  0.00    -0.082 C 
BRANCH  16  17
ATOM     17  C   UNL     1      34.259 -16.348 -25.052  0.00  0.00    -0.023 C 
ATOM     18  C   UNL     1      33.812 -15.225 -24.129  0.00  0.00    -0.002 C 
ENDBRANCH  16  17
ENDBRANCH  13  16
ENDBRANCH   4  13
TORSDOF 3
ENDMDL
MODEL 8
REMARK VINA RESULT:      -6.8      2.931      6.322
REMARK  Name = 59868
REMARK  3 active torsions:
REMARK  status: ('A' for Active; 'I' for Inactive)
REMARK    1  A    between atoms: C_4  and  N_13
REMARK    2  A    between atoms: N_13  and  C_16
REMARK    3  A    between atoms: C_16  and  C_17
REMARK                            x       y       z     vdW  Elec       q    Type
REMARK                         _______ _______ _______ _____ _____    ______ ____
ROOT
ATOM      1  S   UNL     1      34.924 -17.115 -23.047  0.00  0.00    -0.062 S 
ATOM      2  N   UNL     1      34.083 -17.353 -25.487  0.00  0.00    -0.389 NA
ATOM      3  N   UNL     1      34.911 -19.341 -24.508  0.00  0.00    -0.328 N 
ATOM      4  C   UNL     1      33.980 -13.304 -24.265  0.00  0.00    -0.060 C 
ATOM      5  C   UNL     1      32.920 -13.747 -25.300  0.00  0.00    -0.014 C 
ATOM      6  C   UNL     1      34.208 -14.386 -23.183  0.00  0.00    -0.003 C 
ATOM      7  C   UNL     1      33.348 -15.027 -26.045  0.00  0.00    +0.053 C 
ATOM      8  C   UNL     1      34.315 -15.729 -23.823  0.00  0.00    +0.101 C 
ATOM      9  C   UNL     1      33.908 -16.038 -25.106  0.00  0.00    +0.099 C 
ATOM     10  C   UNL     1      34.609 -18.015 -24.479  0.00  0.00    +0.204 C 
ATOM     11  H   UNL     1      35.304 -19.774 -23.716  0.00  0.00    +0.145 HD
ATOM     12  H   UNL     1      34.736 -19.867 -25.322  0.00  0.00    +0.145 HD
ENDROOT
BRANCH   4  13
ATOM     13  N   UNL     1      33.567 -12.055 -23.628  0.00  0.00    +0.385 N 
ATOM     14  H   UNL     1      34.230 -11.821 -22.889  0.00  0.00    -0.084 HD
ATOM     15  H   UNL     1      32.632 -12.179 -23.239  0.00  0.00    -0.084 HD
BRANCH  13  16
ATOM     16  C   UNL     1      33.530 -10.971 -24.597  0.00  0.00    -0.082 C 
BRANCH  16  17
ATOM     17  C   UNL     1      34.863 -10.225 -24.609  0.00  0.00    -0.023 C 
ATOM     18  C   UNL     1      35.554 -10.349 -25.958  0.00  0.00    -0.002 C 
ENDBRANCH  16  17
ENDBRANCH  13  16
ENDBRANCH   4  13
TORSDOF 3
ENDMDL
MODEL 9
REMARK VINA RESULT:      -6.8      3.561      5.859
REMARK  Name = 59868
REMARK  3 active torsions:
REMARK  status: ('A' for Active; 'I' for Inactive)
REMARK    1  A    between atoms: C_4  and  N_13
REMARK    2  A    between atoms: N_13  and  C_16
REMARK    3  A    between atoms: C_16  and  C_17
REMARK                            x       y       z     vdW  Elec       q    Type
REMARK                         _______ _______ _______ _____ _____    ______ ____
ROOT
ATOM      1  S   UNL     1      34.034 -19.040 -21.534  0.00  0.00    -0.062 S 
ATOM      2  N   UNL     1      36.539 -19.389 -20.968  0.00  0.00    -0.389 NA
ATOM      3  N   UNL     1      36.085 -17.640 -22.494  0.00  0.00    -0.328 N 
ATOM      4  C   UNL     1      34.174 -22.398 -19.166  0.00  0.00    -0.060 C 
ATOM      5  C   UNL     1      35.469 -21.992 -18.426  0.00  0.00    -0.014 C 
ATOM      6  C   UNL     1      33.454 -21.170 -19.771  0.00  0.00    -0.003 C 
ATOM      7  C   UNL     1      36.480 -21.314 -19.371  0.00  0.00    +0.053 C 
ATOM      8  C   UNL     1      34.445 -20.281 -20.445  0.00  0.00    +0.101 C 
ATOM      9  C   UNL     1      35.812 -20.319 -20.255  0.00  0.00    +0.099 C 
ATOM     10  C   UNL     1      35.705 -18.657 -21.675  0.00  0.00    +0.204 C 
ATOM     11  H   UNL     1      35.406 -17.132 -22.996  0.00  0.00    +0.145 HD
ATOM     12  H   UNL     1      37.038 -17.411 -22.585  0.00  0.00    +0.145 HD
ENDROOT
BRANCH   4  13
ATOM     13  N   UNL     1      33.270 -23.093 -18.252  0.00  0.00    +0.385 N 
ATOM     14  H   UNL     1      33.080 -24.028 -18.615  0.00  0.00    -0.084 HD
ATOM     15  H   UNL     1      32.404 -22.560 -18.178  0.00  0.00    -0.084 HD
BRANCH  13  16
ATOM     16  C   UNL     1      33.864 -23.207 -16.929  0.00  0.00    -0.082 C 
BRANCH  16  17
ATOM     17  C   UNL     1      32.775 -23.379 -15.872  0.00  0.00    -0.023 C 
ATOM     18  C   UNL     1      33.320 -24.049 -14.620  0.00  0.00    -0.002 C 
ENDBRANCH  16  17
ENDBRANCH  13  16
ENDBRANCH   4  13
TORSDOF 3
ENDMDL
