MODEL 1
REMARK VINA RESULT:     -11.7      0.000      0.000
REMARK  Name = 25011730
REMARK  4 active torsions:
REMARK  status: ('A' for Active; 'I' for Inactive)
REMARK    1  A    between atoms: N_1  and  C_15
REMARK    2  A    between atoms: N_2  and  C_22
REMARK    3  A    between atoms: C_21  and  N_27
REMARK    4  A    between atoms: N_27  and  S_29
REMARK                            x       y       z     vdW  Elec       q    Type
REMARK                         _______ _______ _______ _____ _____    ______ ____
ROOT
ATOM      1  N   UNL     1      37.593 -23.042 -15.103  0.00  0.00    -0.284 N 
ATOM      2  N   UNL     1      33.333 -22.979 -17.140  0.00  0.00    -0.247 N 
ATOM      3  N   UNL     1      35.440 -23.021 -16.109  0.00  0.00    -0.322 NA
ATOM      4  N   UNL     1      35.153 -22.061 -18.301  0.00  0.00    -0.170 NA
ATOM      5  C   UNL     1      36.751 -22.713 -16.187  0.00  0.00    +0.198 C 
ATOM      6  C   UNL     1      34.710 -22.672 -17.186  0.00  0.00    +0.150 C 
ATOM      7  C   UNL     1      37.329 -22.088 -17.273  0.00  0.00    +0.070 C 
ATOM      8  C   UNL     1      36.473 -21.783 -18.311  0.00  0.00    +0.116 C 
ATOM      9  H   UNL     1      38.355 -22.429 -14.994  0.00  0.00    +0.155 HD
ATOM     10  H   UNL     1      32.840 -22.706 -17.947  0.00  0.00    +0.165 HD
ENDROOT
BRANCH   1  15
ATOM     11 CL   UNL     1      39.779 -25.162 -15.302  0.00  0.00    -0.081 Cl
ATOM     12  O   UNL     1      35.574 -23.187 -13.038  0.00  0.00    -0.433 OA
ATOM     13  O   UNL     1      35.468 -24.932 -11.379  0.00  0.00    -0.435 OA
ATOM     14  C   UNL     1      36.574 -24.100 -13.182  0.00  0.00    +0.191 C 
ATOM     15  C   UNL     1      37.559 -24.075 -14.148  0.00  0.00    +0.098 C 
ATOM     16  C   UNL     1      36.513 -25.096 -12.234  0.00  0.00    +0.178 C 
ATOM     17  C   UNL     1      38.505 -25.103 -14.135  0.00  0.00    +0.074 C 
ATOM     18  C   UNL     1      37.435 -26.123 -12.201  0.00  0.00    +0.041 C 
ATOM     19  C   UNL     1      34.877 -23.722 -11.894  0.00  0.00    +0.429 C 
ATOM     20  C   UNL     1      38.443 -26.121 -13.167  0.00  0.00    +0.016 C 
ENDBRANCH   1  15
BRANCH   2  22
ATOM     21  C   UNL     1      30.338 -24.189 -15.330  0.00  0.00    +0.066 C 
ATOM     22  C   UNL     1      32.526 -23.600 -16.167  0.00  0.00    +0.059 C 
ATOM     23  C   UNL     1      31.138 -23.576 -16.294  0.00  0.00    +0.031 C 
ATOM     24  C   UNL     1      30.927 -24.828 -14.239  0.00  0.00    +0.016 C 
ATOM     25  C   UNL     1      33.116 -24.238 -15.076  0.00  0.00    +0.015 C 
ATOM     26  C   UNL     1      32.317 -24.852 -14.112  0.00  0.00    +0.003 C 
BRANCH  21  27
ATOM     27  N   UNL     1      28.916 -24.165 -15.461  0.00  0.00    -0.219 N 
ATOM     28  H   UNL     1      28.345 -24.696 -14.861  0.00  0.00    +0.173 HD
BRANCH  27  29
ATOM     29  S   UNL     1      28.230 -23.181 -16.696  0.00  0.00    +0.056 S 
ATOM     30  O   UNL     1      29.225 -22.212 -17.116  0.00  0.00    -0.154 OA
ATOM     31  O   UNL     1      27.530 -23.989 -17.674  0.00  0.00    -0.154 OA
ATOM     32  C   UNL     1      27.012 -22.293 -15.751  0.00  0.00    +0.200 C 
ENDBRANCH  27  29
ENDBRANCH  21  27
ENDBRANCH   2  22
TORSDOF 4
ENDMDL
MODEL 2
REMARK VINA RESULT:     -11.1      1.739      2.262
REMARK  Name = 25011730
REMARK  4 active torsions:
REMARK  status: ('A' for Active; 'I' for Inactive)
REMARK    1  A    between atoms: N_1  and  C_15
REMARK    2  A    between atoms: N_2  and  C_22
REMARK    3  A    between atoms: C_21  and  N_27
REMARK    4  A    between atoms: N_27  and  S_29
REMARK                            x       y       z     vdW  Elec       q    Type
REMARK                         _______ _______ _______ _____ _____    ______ ____
ROOT
ATOM      1  N   UNL     1      37.539 -22.765 -15.468  0.00  0.00    -0.284 N 
ATOM      2  N   UNL     1      33.214 -22.925 -17.357  0.00  0.00    -0.247 N 
ATOM      3  N   UNL     1      35.355 -22.855 -16.398  0.00  0.00    -0.322 NA
ATOM      4  N   UNL     1      34.961 -21.989 -18.612  0.00  0.00    -0.170 NA
ATOM      5  C   UNL     1      36.651 -22.505 -16.533  0.00  0.00    +0.198 C 
ATOM      6  C   UNL     1      34.577 -22.572 -17.461  0.00  0.00    +0.150 C 
ATOM      7  C   UNL     1      37.169 -21.902 -17.660  0.00  0.00    +0.070 C 
ATOM      8  C   UNL     1      36.269 -21.665 -18.678  0.00  0.00    +0.116 C 
ATOM      9  H   UNL     1      38.282 -22.122 -15.408  0.00  0.00    +0.155 HD
ATOM     10  H   UNL     1      32.685 -22.699 -18.156  0.00  0.00    +0.165 HD
ENDROOT
BRANCH   1  15
ATOM     11 CL   UNL     1      35.181 -22.852 -13.533  0.00  0.00    -0.081 Cl
ATOM     12  O   UNL     1      39.714 -24.656 -15.238  0.00  0.00    -0.433 OA
ATOM     13  O   UNL     1      39.826 -26.381 -13.558  0.00  0.00    -0.435 OA
ATOM     14  C   UNL     1      38.636 -24.641 -14.407  0.00  0.00    +0.191 C 
ATOM     15  C   UNL     1      37.574 -23.761 -14.476  0.00  0.00    +0.098 C 
ATOM     16  C   UNL     1      38.700 -25.626 -13.448  0.00  0.00    +0.178 C 
ATOM     17  C   UNL     1      36.554 -23.903 -13.532  0.00  0.00    +0.074 C 
ATOM     18  C   UNL     1      37.706 -25.786 -12.504  0.00  0.00    +0.041 C 
ATOM     19  C   UNL     1      40.465 -25.761 -14.693  0.00  0.00    +0.429 C 
ATOM     20  C   UNL     1      36.619 -24.909 -12.552  0.00  0.00    +0.016 C 
ENDBRANCH   1  15
BRANCH   2  22
ATOM     21  C   UNL     1      30.328 -24.033 -15.319  0.00  0.00    +0.066 C 
ATOM     22  C   UNL     1      32.463 -23.536 -16.334  0.00  0.00    +0.059 C 
ATOM     23  C   UNL     1      31.073 -23.429 -16.332  0.00  0.00    +0.031 C 
ATOM     24  C   UNL     1      30.975 -24.747 -14.309  0.00  0.00    +0.016 C 
ATOM     25  C   UNL     1      33.109 -24.249 -15.325  0.00  0.00    +0.015 C 
ATOM     26  C   UNL     1      32.366 -24.855 -14.313  0.00  0.00    +0.003 C 
BRANCH  21  27
ATOM     27  N   UNL     1      28.905 -23.923 -15.316  0.00  0.00    -0.219 N 
ATOM     28  H   UNL     1      28.366 -24.352 -14.613  0.00  0.00    +0.173 HD
BRANCH  27  29
ATOM     29  S   UNL     1      28.156 -23.020 -16.577  0.00  0.00    +0.056 S 
ATOM     30  O   UNL     1      29.055 -21.950 -16.969  0.00  0.00    -0.154 OA
ATOM     31  O   UNL     1      27.579 -23.899 -17.573  0.00  0.00    -0.154 OA
ATOM     32  C   UNL     1      26.821 -22.267 -15.675  0.00  0.00    +0.200 C 
ENDBRANCH  27  29
ENDBRANCH  21  27
ENDBRANCH   2  22
TORSDOF 4
ENDMDL
MODEL 3
REMARK VINA RESULT:     -10.9      3.395      7.541
REMARK  Name = 25011730
REMARK  4 active torsions:
REMARK  status: ('A' for Active; 'I' for Inactive)
REMARK    1  A    between atoms: N_1  and  C_15
REMARK    2  A    between atoms: N_2  and  C_22
REMARK    3  A    between atoms: C_21  and  N_27
REMARK    4  A    between atoms: N_27  and  S_29
REMARK                            x       y       z     vdW  Elec       q    Type
REMARK                         _______ _______ _______ _____ _____    ______ ____
ROOT
ATOM      1  N   UNL     1      32.392 -23.167 -17.698  0.00  0.00    -0.284 N 
ATOM      2  N   UNL     1      36.942 -22.382 -16.710  0.00  0.00    -0.247 N 
ATOM      3  N   UNL     1      34.679 -22.785 -17.181  0.00  0.00    -0.322 NA
ATOM      4  N   UNL     1      36.055 -21.523 -18.705  0.00  0.00    -0.170 NA
ATOM      5  C   UNL     1      33.646 -22.612 -18.031  0.00  0.00    +0.198 C 
ATOM      6  C   UNL     1      35.838 -22.222 -17.575  0.00  0.00    +0.150 C 
ATOM      7  C   UNL     1      33.738 -21.917 -19.219  0.00  0.00    +0.070 C 
ATOM      8  C   UNL     1      34.979 -21.390 -19.507  0.00  0.00    +0.116 C 
ATOM      9  H   UNL     1      31.852 -23.420 -18.481  0.00  0.00    +0.155 HD
ATOM     10  H   UNL     1      37.767 -21.955 -17.038  0.00  0.00    +0.165 HD
ENDROOT
BRANCH   1  15
ATOM     11 CL   UNL     1      34.065 -24.583 -15.576  0.00  0.00    -0.081 Cl
ATOM     12  O   UNL     1      29.649 -22.420 -17.167  0.00  0.00    -0.433 OA
ATOM     13  O   UNL     1      28.518 -22.848 -15.082  0.00  0.00    -0.435 OA
ATOM     14  C   UNL     1      30.448 -23.054 -16.264  0.00  0.00    +0.191 C 
ATOM     15  C   UNL     1      31.760 -23.430 -16.469  0.00  0.00    +0.098 C 
ATOM     16  C   UNL     1      29.801 -23.298 -15.074  0.00  0.00    +0.178 C 
ATOM     17  C   UNL     1      32.421 -24.073 -15.419  0.00  0.00    +0.074 C 
ATOM     18  C   UNL     1      30.432 -23.932 -14.023  0.00  0.00    +0.041 C 
ATOM     19  C   UNL     1      28.427 -22.294 -16.411  0.00  0.00    +0.429 C 
ATOM     20  C   UNL     1      31.761 -24.322 -14.203  0.00  0.00    +0.016 C 
ENDBRANCH   1  15
BRANCH   2  22
ATOM     21  C   UNL     1      38.092 -24.782 -14.136  0.00  0.00    +0.066 C 
ATOM     22  C   UNL     1      37.096 -23.032 -15.470  0.00  0.00    +0.059 C 
ATOM     23  C   UNL     1      37.940 -24.138 -15.363  0.00  0.00    +0.031 C 
ATOM     24  C   UNL     1      37.401 -24.322 -13.015  0.00  0.00    +0.016 C 
ATOM     25  C   UNL     1      36.404 -22.572 -14.350  0.00  0.00    +0.015 C 
ATOM     26  C   UNL     1      36.556 -23.215 -13.123  0.00  0.00    +0.003 C 
BRANCH  21  27
ATOM     27  N   UNL     1      38.956 -25.914 -14.026  0.00  0.00    -0.219 N 
ATOM     28  H   UNL     1      38.635 -26.759 -13.638  0.00  0.00    +0.173 HD
BRANCH  27  29
ATOM     29  S   UNL     1      40.576 -25.758 -14.589  0.00  0.00    +0.056 S 
ATOM     30  O   UNL     1      40.610 -26.125 -15.993  0.00  0.00    -0.154 OA
ATOM     31  O   UNL     1      41.164 -24.512 -14.140  0.00  0.00    -0.154 OA
ATOM     32  C   UNL     1      41.351 -27.083 -13.691  0.00  0.00    +0.200 C 
ENDBRANCH  27  29
ENDBRANCH  21  27
ENDBRANCH   2  22
TORSDOF 4
ENDMDL
MODEL 4
REMARK VINA RESULT:     -10.8      3.263      5.429
REMARK  Name = 25011730
REMARK  4 active torsions:
REMARK  status: ('A' for Active; 'I' for Inactive)
REMARK    1  A    between atoms: N_1  and  C_15
REMARK    2  A    between atoms: N_2  and  C_22
REMARK    3  A    between atoms: C_21  and  N_27
REMARK    4  A    between atoms: N_27  and  S_29
REMARK                            x       y       z     vdW  Elec       q    Type
REMARK                         _______ _______ _______ _____ _____    ______ ____
ROOT
ATOM      1  N   UNL     1      34.908 -25.468 -13.851  0.00  0.00    -0.284 N 
ATOM      2  N   UNL     1      33.225 -22.511 -17.126  0.00  0.00    -0.247 N 
ATOM      3  N   UNL     1      34.083 -23.978 -15.508  0.00  0.00    -0.322 NA
ATOM      4  N   UNL     1      31.731 -23.458 -15.585  0.00  0.00    -0.170 NA
ATOM      5  C   UNL     1      33.833 -24.778 -14.451  0.00  0.00    +0.198 C 
ATOM      6  C   UNL     1      33.002 -23.357 -16.018  0.00  0.00    +0.150 C 
ATOM      7  C   UNL     1      32.577 -24.966 -13.911  0.00  0.00    +0.070 C 
ATOM      8  C   UNL     1      31.554 -24.274 -14.526  0.00  0.00    +0.116 C 
ATOM      9  H   UNL     1      34.649 -26.327 -13.447  0.00  0.00    +0.155 HD
ATOM     10  H   UNL     1      32.408 -22.080 -17.465  0.00  0.00    +0.165 HD
ENDROOT
BRANCH   1  15
ATOM     11 CL   UNL     1      36.819 -26.947 -15.715  0.00  0.00    -0.081 Cl
ATOM     12  O   UNL     1      35.904 -23.559 -11.921  0.00  0.00    -0.433 OA
ATOM     13  O   UNL     1      38.235 -23.014 -11.646  0.00  0.00    -0.435 OA
ATOM     14  C   UNL     1      36.702 -24.252 -12.779  0.00  0.00    +0.191 C 
ATOM     15  C   UNL     1      36.277 -25.171 -13.716  0.00  0.00    +0.098 C 
ATOM     16  C   UNL     1      38.033 -23.940 -12.622  0.00  0.00    +0.178 C 
ATOM     17  C   UNL     1      37.249 -25.782 -14.512  0.00  0.00    +0.074 C 
ATOM     18  C   UNL     1      39.013 -24.531 -13.394  0.00  0.00    +0.041 C 
ATOM     19  C   UNL     1      36.882 -22.778 -11.205  0.00  0.00    +0.429 C 
ATOM     20  C   UNL     1      38.609 -25.464 -14.351  0.00  0.00    +0.016 C 
ENDBRANCH   1  15
BRANCH   2  22
ATOM     21  C   UNL     1      35.433 -21.298 -19.839  0.00  0.00    +0.066 C 
ATOM     22  C   UNL     1      34.387 -22.163 -17.841  0.00  0.00    +0.059 C 
ATOM     23  C   UNL     1      34.282 -21.643 -19.131  0.00  0.00    +0.031 C 
ATOM     24  C   UNL     1      36.689 -21.472 -19.258  0.00  0.00    +0.016 C 
ATOM     25  C   UNL     1      35.642 -22.338 -17.259  0.00  0.00    +0.015 C 
ATOM     26  C   UNL     1      36.793 -21.992 -17.967  0.00  0.00    +0.003 C 
BRANCH  21  27
ATOM     27  N   UNL     1      35.325 -20.765 -21.160  0.00  0.00    -0.219 N 
ATOM     28  H   UNL     1      35.535 -21.318 -21.946  0.00  0.00    +0.173 HD
BRANCH  27  29
ATOM     29  S   UNL     1      34.821 -19.129 -21.338  0.00  0.00    +0.056 S 
ATOM     30  O   UNL     1      33.404 -19.050 -21.032  0.00  0.00    -0.154 OA
ATOM     31  O   UNL     1      35.762 -18.224 -20.709  0.00  0.00    -0.154 OA
ATOM     32  C   UNL     1      34.978 -18.941 -23.100  0.00  0.00    +0.200 C 
ENDBRANCH  27  29
ENDBRANCH  21  27
ENDBRANCH   2  22
TORSDOF 4
ENDMDL
MODEL 5
REMARK VINA RESULT:     -10.2      3.889      7.390
REMARK  Name = 25011730
REMARK  4 active torsions:
REMARK  status: ('A' for Active; 'I' for Inactive)
REMARK    1  A    between atoms: N_1  and  C_15
REMARK    2  A    between atoms: N_2  and  C_22
REMARK    3  A    between atoms: C_21  and  N_27
REMARK    4  A    between atoms: N_27  and  S_29
REMARK                            x       y       z     vdW  Elec       q    Type
REMARK                         _______ _______ _______ _____ _____    ______ ____
ROOT
ATOM      1  N   UNL     1      32.228 -23.254 -17.448  0.00  0.00    -0.284 N 
ATOM      2  N   UNL     1      36.822 -22.377 -16.794  0.00  0.00    -0.247 N 
ATOM      3  N   UNL     1      34.539 -22.824 -17.098  0.00  0.00    -0.322 NA
ATOM      4  N   UNL     1      35.799 -21.627 -18.767  0.00  0.00    -0.170 NA
ATOM      5  C   UNL     1      33.451 -22.704 -17.887  0.00  0.00    +0.198 C 
ATOM      6  C   UNL     1      35.663 -22.271 -17.593  0.00  0.00    +0.150 C 
ATOM      7  C   UNL     1      33.459 -22.068 -19.112  0.00  0.00    +0.070 C 
ATOM      8  C   UNL     1      34.673 -21.544 -19.505  0.00  0.00    +0.116 C 
ATOM      9  H   UNL     1      31.643 -23.551 -18.182  0.00  0.00    +0.155 HD
ATOM     10  H   UNL     1      37.618 -21.960 -17.194  0.00  0.00    +0.165 HD
ENDROOT
BRANCH   1  15
ATOM     11 CL   UNL     1      29.301 -22.476 -17.074  0.00  0.00    -0.081 Cl
ATOM     12  O   UNL     1      33.758 -24.359 -15.258  0.00  0.00    -0.433 OA
ATOM     13  O   UNL     1      32.870 -24.734 -13.049  0.00  0.00    -0.435 OA
ATOM     14  C   UNL     1      32.451 -23.991 -15.156  0.00  0.00    +0.191 C 
ATOM     15  C   UNL     1      31.679 -23.461 -16.170  0.00  0.00    +0.098 C 
ATOM     16  C   UNL     1      31.944 -24.206 -13.895  0.00  0.00    +0.178 C 
ATOM     17  C   UNL     1      30.351 -23.145 -15.874  0.00  0.00    +0.074 C 
ATOM     18  C   UNL     1      30.636 -23.901 -13.577  0.00  0.00    +0.041 C 
ATOM     19  C   UNL     1      34.017 -24.827 -13.918  0.00  0.00    +0.429 C 
ATOM     20  C   UNL     1      29.832 -23.363 -14.585  0.00  0.00    +0.016 C 
ENDBRANCH   1  15
BRANCH   2  22
ATOM     21  C   UNL     1      38.104 -24.681 -14.194  0.00  0.00    +0.066 C 
ATOM     22  C   UNL     1      37.062 -22.963 -15.536  0.00  0.00    +0.059 C 
ATOM     23  C   UNL     1      37.866 -24.099 -15.439  0.00  0.00    +0.031 C 
ATOM     24  C   UNL     1      37.539 -24.126 -13.045  0.00  0.00    +0.016 C 
ATOM     25  C   UNL     1      36.497 -22.409 -14.388  0.00  0.00    +0.015 C 
ATOM     26  C   UNL     1      36.736 -22.989 -13.143  0.00  0.00    +0.003 C 
BRANCH  21  27
ATOM     27  N   UNL     1      38.926 -25.844 -14.094  0.00  0.00    -0.219 N 
ATOM     28  H   UNL     1      38.574 -26.681 -13.715  0.00  0.00    +0.173 HD
BRANCH  27  29
ATOM     29  S   UNL     1      40.551 -25.741 -14.655  0.00  0.00    +0.056 S 
ATOM     30  O   UNL     1      40.582 -26.148 -16.048  0.00  0.00    -0.154 OA
ATOM     31  O   UNL     1      41.167 -24.498 -14.238  0.00  0.00    -0.154 OA
ATOM     32  C   UNL     1      41.292 -27.059 -13.717  0.00  0.00    +0.200 C 
ENDBRANCH  27  29
ENDBRANCH  21  27
ENDBRANCH   2  22
TORSDOF 4
ENDMDL
MODEL 6
REMARK VINA RESULT:     -10.2      3.469      5.716
REMARK  Name = 25011730
REMARK  4 active torsions:
REMARK  status: ('A' for Active; 'I' for Inactive)
REMARK    1  A    between atoms: N_1  and  C_15
REMARK    2  A    between atoms: N_2  and  C_22
REMARK    3  A    between atoms: C_21  and  N_27
REMARK    4  A    between atoms: N_27  and  S_29
REMARK                            x       y       z     vdW  Elec       q    Type
REMARK                         _______ _______ _______ _____ _____    ______ ____
ROOT
ATOM      1  N   UNL     1      34.396 -25.067 -13.297  0.00  0.00    -0.284 N 
ATOM      2  N   UNL     1      33.021 -22.847 -17.231  0.00  0.00    -0.247 N 
ATOM      3  N   UNL     1      33.727 -23.945 -15.281  0.00  0.00    -0.322 NA
ATOM      4  N   UNL     1      31.392 -23.847 -15.870  0.00  0.00    -0.170 NA
ATOM      5  C   UNL     1      33.381 -24.646 -14.182  0.00  0.00    +0.198 C 
ATOM      6  C   UNL     1      32.697 -23.582 -16.070  0.00  0.00    +0.150 C 
ATOM      7  C   UNL     1      32.081 -24.981 -13.863  0.00  0.00    +0.070 C 
ATOM      8  C   UNL     1      31.119 -24.551 -14.753  0.00  0.00    +0.116 C 
ATOM      9  H   UNL     1      34.185 -25.905 -12.824  0.00  0.00    +0.155 HD
ATOM     10  H   UNL     1      32.238 -22.604 -17.777  0.00  0.00    +0.165 HD
ENDROOT
BRANCH   1  15
ATOM     11 CL   UNL     1      34.524 -23.423 -10.729  0.00  0.00    -0.081 Cl
ATOM     12  O   UNL     1      36.758 -25.471 -14.916  0.00  0.00    -0.433 OA
ATOM     13  O   UNL     1      38.928 -24.569 -14.380  0.00  0.00    -0.435 OA
ATOM     14  C   UNL     1      36.748 -24.748 -13.762  0.00  0.00    +0.191 C 
ATOM     15  C   UNL     1      35.650 -24.528 -12.956  0.00  0.00    +0.098 C 
ATOM     16  C   UNL     1      37.987 -24.234 -13.457  0.00  0.00    +0.178 C 
ATOM     17  C   UNL     1      35.836 -23.757 -11.805  0.00  0.00    +0.074 C 
ATOM     18  C   UNL     1      38.196 -23.469 -12.327  0.00  0.00    +0.041 C 
ATOM     19  C   UNL     1      38.142 -25.352 -15.302  0.00  0.00    +0.429 C 
ATOM     20  C   UNL     1      37.101 -23.230 -11.493  0.00  0.00    +0.016 C 
ENDBRANCH   1  15
BRANCH   2  22
ATOM     21  C   UNL     1      35.497 -21.396 -19.570  0.00  0.00    +0.066 C 
ATOM     22  C   UNL     1      34.243 -22.391 -17.761  0.00  0.00    +0.059 C 
ATOM     23  C   UNL     1      34.287 -21.846 -19.044  0.00  0.00    +0.031 C 
ATOM     24  C   UNL     1      36.665 -21.490 -18.812  0.00  0.00    +0.016 C 
ATOM     25  C   UNL     1      35.410 -22.486 -17.003  0.00  0.00    +0.015 C 
ATOM     26  C   UNL     1      36.621 -22.035 -17.528  0.00  0.00    +0.003 C 
BRANCH  21  27
ATOM     27  N   UNL     1      35.542 -20.838 -20.883  0.00  0.00    -0.219 N 
ATOM     28  H   UNL     1      35.974 -21.321 -21.624  0.00  0.00    +0.173 HD
BRANCH  27  29
ATOM     29  S   UNL     1      34.820 -19.295 -21.136  0.00  0.00    +0.056 S 
ATOM     30  O   UNL     1      33.415 -19.384 -20.784  0.00  0.00    -0.154 OA
ATOM     31  O   UNL     1      35.649 -18.238 -20.594  0.00  0.00    -0.154 OA
ATOM     32  C   UNL     1      34.900 -19.197 -22.911  0.00  0.00    +0.200 C 
ENDBRANCH  27  29
ENDBRANCH  21  27
ENDBRANCH   2  22
TORSDOF 4
ENDMDL
MODEL 7
REMARK VINA RESULT:     -10.0      4.199      6.226
REMARK  Name = 25011730
REMARK  4 active torsions:
REMARK  status: ('A' for Active; 'I' for Inactive)
REMARK    1  A    between atoms: N_1  and  C_15
REMARK    2  A    between atoms: N_2  and  C_22
REMARK    3  A    between atoms: C_21  and  N_27
REMARK    4  A    between atoms: N_27  and  S_29
REMARK                            x       y       z     vdW  Elec       q    Type
REMARK                         _______ _______ _______ _____ _____    ______ ____
ROOT
ATOM      1  N   UNL     1      34.074 -24.891 -15.080  0.00  0.00    -0.284 N 
ATOM      2  N   UNL     1      32.336 -21.928 -18.321  0.00  0.00    -0.247 N 
ATOM      3  N   UNL     1      33.221 -23.398 -16.720  0.00  0.00    -0.322 NA
ATOM      4  N   UNL     1      30.875 -22.848 -16.732  0.00  0.00    -0.170 NA
ATOM      5  C   UNL     1      32.991 -24.190 -15.652  0.00  0.00    +0.198 C 
ATOM      6  C   UNL     1      32.134 -22.766 -17.202  0.00  0.00    +0.150 C 
ATOM      7  C   UNL     1      31.749 -24.359 -15.076  0.00  0.00    +0.070 C 
ATOM      8  C   UNL     1      30.718 -23.657 -15.664  0.00  0.00    +0.116 C 
ATOM      9  H   UNL     1      33.816 -25.745 -14.664  0.00  0.00    +0.155 HD
ATOM     10  H   UNL     1      31.515 -21.488 -18.639  0.00  0.00    +0.165 HD
ENDROOT
BRANCH   1  15
ATOM     11 CL   UNL     1      34.858 -21.953 -14.828  0.00  0.00    -0.081 Cl
ATOM     12  O   UNL     1      36.090 -26.964 -15.118  0.00  0.00    -0.433 OA
ATOM     13  O   UNL     1      38.458 -26.541 -14.962  0.00  0.00    -0.435 OA
ATOM     14  C   UNL     1      36.373 -25.636 -15.009  0.00  0.00    +0.191 C 
ATOM     15  C   UNL     1      35.450 -24.611 -14.986  0.00  0.00    +0.098 C 
ATOM     16  C   UNL     1      37.725 -25.396 -14.920  0.00  0.00    +0.178 C 
ATOM     17  C   UNL     1      35.934 -23.306 -14.867  0.00  0.00    +0.074 C 
ATOM     18  C   UNL     1      38.229 -24.116 -14.803  0.00  0.00    +0.041 C 
ATOM     19  C   UNL     1      37.416 -27.531 -15.088  0.00  0.00    +0.429 C 
ATOM     20  C   UNL     1      37.315 -23.060 -14.776  0.00  0.00    +0.016 C 
ENDBRANCH   1  15
BRANCH   2  22
ATOM     21  C   UNL     1      34.526 -20.347 -20.853  0.00  0.00    +0.066 C 
ATOM     22  C   UNL     1      33.482 -21.599 -19.070  0.00  0.00    +0.059 C 
ATOM     23  C   UNL     1      33.392 -20.673 -20.110  0.00  0.00    +0.031 C 
ATOM     24  C   UNL     1      35.751 -20.945 -20.556  0.00  0.00    +0.016 C 
ATOM     25  C   UNL     1      34.706 -22.198 -18.774  0.00  0.00    +0.015 C 
ATOM     26  C   UNL     1      35.840 -21.871 -19.516  0.00  0.00    +0.003 C 
BRANCH  21  27
ATOM     27  N   UNL     1      34.434 -19.399 -21.917  0.00  0.00    -0.219 N 
ATOM     28  H   UNL     1      33.797 -19.528 -22.655  0.00  0.00    +0.173 HD
BRANCH  27  29
ATOM     29  S   UNL     1      35.469 -18.024 -21.872  0.00  0.00    +0.056 S 
ATOM     30  O   UNL     1      35.342 -17.396 -20.570  0.00  0.00    -0.154 OA
ATOM     31  O   UNL     1      36.776 -18.340 -22.413  0.00  0.00    -0.154 OA
ATOM     32  C   UNL     1      34.639 -16.966 -23.037  0.00  0.00    +0.200 C 
ENDBRANCH  27  29
ENDBRANCH  21  27
ENDBRANCH   2  22
TORSDOF 4
ENDMDL
MODEL 8
REMARK VINA RESULT:      -9.9      2.574      6.442
REMARK  Name = 25011730
REMARK  4 active torsions:
REMARK  status: ('A' for Active; 'I' for Inactive)
REMARK    1  A    between atoms: N_1  and  C_15
REMARK    2  A    between atoms: N_2  and  C_22
REMARK    3  A    between atoms: C_21  and  N_27
REMARK    4  A    between atoms: N_27  and  S_29
REMARK                            x       y       z     vdW  Elec       q    Type
REMARK                         _______ _______ _______ _____ _____    ______ ____
ROOT
ATOM      1  N   UNL     1      33.033 -23.155 -17.644  0.00  0.00    -0.284 N 
ATOM      2  N   UNL     1      37.607 -22.358 -16.778  0.00  0.00    -0.247 N 
ATOM      3  N   UNL     1      35.333 -22.768 -17.190  0.00  0.00    -0.322 NA
ATOM      4  N   UNL     1      36.613 -21.329 -18.638  0.00  0.00    -0.170 NA
ATOM      5  C   UNL     1      34.259 -22.538 -17.973  0.00  0.00    +0.198 C 
ATOM      6  C   UNL     1      36.461 -22.141 -17.575  0.00  0.00    +0.150 C 
ATOM      7  C   UNL     1      34.284 -21.728 -19.089  0.00  0.00    +0.070 C 
ATOM      8  C   UNL     1      35.500 -21.144 -19.377  0.00  0.00    +0.116 C 
ATOM      9  H   UNL     1      32.464 -23.343 -18.425  0.00  0.00    +0.155 HD
ATOM     10  H   UNL     1      38.407 -21.881 -17.097  0.00  0.00    +0.165 HD
ENDROOT
BRANCH   1  15
ATOM     11 CL   UNL     1      34.828 -24.735 -15.748  0.00  0.00    -0.081 Cl
ATOM     12  O   UNL     1      30.304 -22.529 -16.922  0.00  0.00    -0.433 OA
ATOM     13  O   UNL     1      29.277 -23.188 -14.844  0.00  0.00    -0.435 OA
ATOM     14  C   UNL     1      31.155 -23.231 -16.123  0.00  0.00    +0.191 C 
ATOM     15  C   UNL     1      32.463 -23.553 -16.421  0.00  0.00    +0.098 C 
ATOM     16  C   UNL     1      30.568 -23.606 -14.937  0.00  0.00    +0.178 C 
ATOM     17  C   UNL     1      33.183 -24.281 -15.470  0.00  0.00    +0.074 C 
ATOM     18  C   UNL     1      31.257 -24.326 -13.982  0.00  0.00    +0.041 C 
ATOM     19  C   UNL     1      29.115 -22.508 -16.106  0.00  0.00    +0.429 C 
ATOM     20  C   UNL     1      32.584 -24.665 -14.258  0.00  0.00    +0.016 C 
ENDBRANCH   1  15
BRANCH   2  22
ATOM     21  C   UNL     1      37.466 -23.498 -13.258  0.00  0.00    +0.066 C 
ATOM     22  C   UNL     1      37.829 -23.123 -15.617  0.00  0.00    +0.059 C 
ATOM     23  C   UNL     1      37.246 -22.742 -14.409  0.00  0.00    +0.031 C 
ATOM     24  C   UNL     1      38.270 -24.637 -13.316  0.00  0.00    +0.016 C 
ATOM     25  C   UNL     1      38.633 -24.261 -15.675  0.00  0.00    +0.015 C 
ATOM     26  C   UNL     1      38.854 -25.018 -14.525  0.00  0.00    +0.003 C 
BRANCH  21  27
ATOM     27  N   UNL     1      36.869 -23.108 -12.022  0.00  0.00    -0.219 N 
ATOM     28  H   UNL     1      36.959 -22.188 -11.685  0.00  0.00    +0.173 HD
BRANCH  27  29
ATOM     29  S   UNL     1      35.987 -24.292 -11.135  0.00  0.00    +0.056 S 
ATOM     30  O   UNL     1      36.391 -25.607 -11.600  0.00  0.00    -0.154 OA
ATOM     31  O   UNL     1      35.980 -23.982  -9.720  0.00  0.00    -0.154 OA
ATOM     32  C   UNL     1      34.350 -24.003 -11.766  0.00  0.00    +0.200 C 
ENDBRANCH  27  29
ENDBRANCH  21  27
ENDBRANCH   2  22
TORSDOF 4
ENDMDL
MODEL 9
REMARK VINA RESULT:      -9.8     14.799     17.451
REMARK  Name = 25011730
REMARK  4 active torsions:
REMARK  status: ('A' for Active; 'I' for Inactive)
REMARK    1  A    between atoms: N_1  and  C_15
REMARK    2  A    between atoms: N_2  and  C_22
REMARK    3  A    between atoms: C_21  and  N_27
REMARK    4  A    between atoms: N_27  and  S_29
REMARK                            x       y       z     vdW  Elec       q    Type
REMARK                         _______ _______ _______ _____ _____    ______ ____
ROOT
ATOM      1  N   UNL     1      31.815 -12.217 -21.632  0.00  0.00    -0.284 N 
ATOM      2  N   UNL     1      32.506  -7.591 -20.979  0.00  0.00    -0.247 N 
ATOM      3  N   UNL     1      32.168  -9.887 -21.326  0.00  0.00    -0.322 NA
ATOM      4  N   UNL     1      31.822  -8.899 -19.155  0.00  0.00    -0.170 NA
ATOM      5  C   UNL     1      31.821 -11.079 -20.798  0.00  0.00    +0.198 C 
ATOM      6  C   UNL     1      32.148  -8.855 -20.461  0.00  0.00    +0.150 C 
ATOM      7  C   UNL     1      31.466 -11.258 -19.476  0.00  0.00    +0.070 C 
ATOM      8  C   UNL     1      31.484 -10.121 -18.694  0.00  0.00    +0.116 C 
ATOM      9  H   UNL     1      31.154 -12.897 -21.367  0.00  0.00    +0.155 HD
ATOM     10  H   UNL     1      32.476  -6.867 -20.312  0.00  0.00    +0.165 HD
ENDROOT
BRANCH   1  15
ATOM     11 CL   UNL     1      32.104 -10.092 -23.803  0.00  0.00    -0.081 Cl
ATOM     12  O   UNL     1      33.044 -14.817 -21.932  0.00  0.00    -0.433 OA
ATOM     13  O   UNL     1      34.340 -15.480 -23.852  0.00  0.00    -0.435 OA
ATOM     14  C   UNL     1      33.134 -13.827 -22.862  0.00  0.00    +0.191 C 
ATOM     15  C   UNL     1      32.567 -12.573 -22.766  0.00  0.00    +0.098 C 
ATOM     16  C   UNL     1      33.874 -14.206 -23.959  0.00  0.00    +0.178 C 
ATOM     17  C   UNL     1      32.771 -11.687 -23.827  0.00  0.00    +0.074 C 
ATOM     18  C   UNL     1      34.089 -13.351 -25.020  0.00  0.00    +0.041 C 
ATOM     19  C   UNL     1      33.810 -15.861 -22.566  0.00  0.00    +0.429 C 
ATOM     20  C   UNL     1      33.527 -12.073 -24.948  0.00  0.00    +0.016 C 
ENDBRANCH   1  15
BRANCH   2  22
ATOM     21  C   UNL     1      32.422  -5.956 -24.299  0.00  0.00    +0.066 C 
ATOM     22  C   UNL     1      32.898  -7.163 -22.262  0.00  0.00    +0.059 C 
ATOM     23  C   UNL     1      32.035  -6.380 -23.028  0.00  0.00    +0.031 C 
ATOM     24  C   UNL     1      33.672  -6.314 -24.804  0.00  0.00    +0.016 C 
ATOM     25  C   UNL     1      34.147  -7.522 -22.766  0.00  0.00    +0.015 C 
ATOM     26  C   UNL     1      34.535  -7.098 -24.036  0.00  0.00    +0.003 C 
BRANCH  21  27
ATOM     27  N   UNL     1      31.539  -5.153 -25.084  0.00  0.00    -0.219 N 
ATOM     28  H   UNL     1      31.039  -5.542 -25.838  0.00  0.00    +0.173 HD
BRANCH  27  29
ATOM     29  S   UNL     1      31.374  -3.489 -24.677  0.00  0.00    +0.056 S 
ATOM     30  O   UNL     1      30.037  -3.058 -25.040  0.00  0.00    -0.154 OA
ATOM     31  O   UNL     1      31.899  -3.224 -23.353  0.00  0.00    -0.154 OA
ATOM     32  C   UNL     1      32.487  -2.763 -25.860  0.00  0.00    +0.200 C 
ENDBRANCH  27  29
ENDBRANCH  21  27
ENDBRANCH   2  22
TORSDOF 4
ENDMDL
