MODEL 1
REMARK VINA RESULT:      -8.9      0.000      0.000
REMARK  Name = 447340
REMARK  7 active torsions:
REMARK  status: ('A' for Active; 'I' for Inactive)
REMARK    1  A    between atoms: C_1  and  N_2
REMARK    2  A    between atoms: C_1  and  C_12
REMARK    3  A    between atoms: C_1  and  C_20
REMARK    4  A    between atoms: C_6  and  C_9
REMARK    5  A    between atoms: C_12  and  C_13
REMARK    6  A    between atoms: C_13  and  C_14
REMARK    7  A    between atoms: C_20  and  O_21
REMARK                            x       y       z     vdW  Elec       q    Type
REMARK                         _______ _______ _______ _____ _____    ______ ____
ROOT
ATOM      1  C   UNL     1      35.197 -16.986 -22.431  0.00  0.00    +0.089 C 
ENDROOT
BRANCH   1   2
ATOM      2  N   UNL     1      34.664 -16.455 -23.696  0.00  0.00    -0.246 NA
ATOM      3  N   UNL     1      34.144 -16.362 -25.826  0.00  0.00    -0.251 NA
ATOM      4  C   UNL     1      34.065 -15.255 -23.849  0.00  0.00    +0.125 C 
ATOM      5  C   UNL     1      34.699 -17.094 -24.885  0.00  0.00    +0.201 C 
ATOM      6  C   UNL     1      33.747 -15.214 -25.186  0.00  0.00    +0.124 C 
BRANCH   6   9
ATOM      7  O   UNL     1      33.411 -12.939 -25.737  0.00  0.00    -0.269 OA
ATOM      8  N   UNL     1      32.040 -14.465 -26.732  0.00  0.00    -0.324 N 
ATOM      9  C   UNL     1      33.087 -14.141 -25.865  0.00  0.00    +0.257 C 
ATOM     10  H   UNL     1      31.563 -13.752 -27.215  0.00  0.00    +0.145 HD
ATOM     11  H   UNL     1      31.779 -15.406 -26.859  0.00  0.00    +0.145 HD
ENDBRANCH   6   9
ENDBRANCH   1   2
BRANCH   1  12
ATOM     12  C   UNL     1      35.415 -18.519 -22.440  0.00  0.00    +0.023 C 
BRANCH  12  13
ATOM     13  C   UNL     1      36.070 -19.086 -21.168  0.00  0.00    +0.028 C 
BRANCH  13  14
ATOM     14  C   UNL     1      35.278 -20.141 -20.439  0.00  0.00    -0.022 C 
ATOM     15  C   UNL     1      35.945 -21.088 -19.675  0.00  0.00    -0.004 C 
ATOM     16  C   UNL     1      33.896 -20.151 -20.546  0.00  0.00    -0.004 C 
ATOM     17  C   UNL     1      35.212 -22.065 -19.001  0.00  0.00    -0.000 C 
ATOM     18  C   UNL     1      33.163 -21.128 -19.873  0.00  0.00    -0.000 C 
ATOM     19  C   UNL     1      33.821 -22.085 -19.100  0.00  0.00    -0.000 C 
ENDBRANCH  13  14
ENDBRANCH  12  13
ENDBRANCH   1  12
BRANCH   1  20
ATOM     20  C   UNL     1      34.295 -16.576 -21.252  0.00  0.00    +0.153 C 
BRANCH  20  21
ATOM     21  O   UNL     1      35.000 -15.733 -20.347  0.00  0.00    -0.381 OA
ATOM     22  H   UNL     1      35.626 -15.180 -20.841  0.00  0.00    +0.210 HD
ENDBRANCH  20  21
ENDBRANCH   1  20
TORSDOF 7
ENDMDL
MODEL 2
REMARK VINA RESULT:      -8.7      8.475     11.618
REMARK  Name = 447340
REMARK  7 active torsions:
REMARK  status: ('A' for Active; 'I' for Inactive)
REMARK    1  A    between atoms: C_1  and  N_2
REMARK    2  A    between atoms: C_1  and  C_12
REMARK    3  A    between atoms: C_1  and  C_20
REMARK    4  A    between atoms: C_6  and  C_9
REMARK    5  A    between atoms: C_12  and  C_13
REMARK    6  A    between atoms: C_13  and  C_14
REMARK    7  A    between atoms: C_20  and  O_21
REMARK                            x       y       z     vdW  Elec       q    Type
REMARK                         _______ _______ _______ _____ _____    ______ ____
ROOT
ATOM      1  C   UNL     1      35.468 -24.517 -14.802  0.00  0.00    +0.089 C 
ENDROOT
BRANCH   1   2
ATOM      2  N   UNL     1      36.748 -25.241 -14.755  0.00  0.00    -0.246 NA
ATOM      3  N   UNL     1      38.155 -26.925 -14.748  0.00  0.00    -0.251 NA
ATOM      4  C   UNL     1      37.966 -24.669 -14.648  0.00  0.00    +0.125 C 
ATOM      5  C   UNL     1      36.887 -26.583 -14.814  0.00  0.00    +0.201 C 
ATOM      6  C   UNL     1      38.832 -25.736 -14.644  0.00  0.00    +0.124 C 
BRANCH   6   9
ATOM      7  O   UNL     1      40.913 -24.617 -14.739  0.00  0.00    -0.269 OA
ATOM      8  N   UNL     1      40.947 -26.834 -14.209  0.00  0.00    -0.324 N 
ATOM      9  C   UNL     1      40.258 -25.667 -14.551  0.00  0.00    +0.257 C 
ATOM     10  H   UNL     1      41.929 -26.823 -14.137  0.00  0.00    +0.145 HD
ATOM     11  H   UNL     1      40.450 -27.668 -14.043  0.00  0.00    +0.145 HD
ENDBRANCH   6   9
ENDBRANCH   1   2
BRANCH   1  12
ATOM     12  C   UNL     1      35.462 -23.321 -15.786  0.00  0.00    +0.023 C 
BRANCH  12  13
ATOM     13  C   UNL     1      34.306 -23.325 -16.802  0.00  0.00    +0.028 C 
BRANCH  13  14
ATOM     14  C   UNL     1      34.486 -22.430 -18.000  0.00  0.00    -0.022 C 
ATOM     15  C   UNL     1      35.754 -21.967 -18.321  0.00  0.00    -0.004 C 
ATOM     16  C   UNL     1      33.382 -22.082 -18.763  0.00  0.00    -0.004 C 
ATOM     17  C   UNL     1      35.920 -21.138 -19.431  0.00  0.00    -0.000 C 
ATOM     18  C   UNL     1      33.548 -21.253 -19.872  0.00  0.00    -0.000 C 
ATOM     19  C   UNL     1      34.817 -20.781 -20.206  0.00  0.00    -0.000 C 
ENDBRANCH  13  14
ENDBRANCH  12  13
ENDBRANCH   1  12
BRANCH   1  20
ATOM     20  C   UNL     1      35.057 -24.057 -13.391  0.00  0.00    +0.153 C 
BRANCH  20  21
ATOM     21  O   UNL     1      33.884 -24.739 -12.960  0.00  0.00    -0.381 OA
ATOM     22  H   UNL     1      33.185 -24.630 -13.624  0.00  0.00    +0.210 HD
ENDBRANCH  20  21
ENDBRANCH   1  20
TORSDOF 7
ENDMDL
MODEL 3
REMARK VINA RESULT:      -8.6      7.622     10.854
REMARK  Name = 447340
REMARK  7 active torsions:
REMARK  status: ('A' for Active; 'I' for Inactive)
REMARK    1  A    between atoms: C_1  and  N_2
REMARK    2  A    between atoms: C_1  and  C_12
REMARK    3  A    between atoms: C_1  and  C_20
REMARK    4  A    between atoms: C_6  and  C_9
REMARK    5  A    between atoms: C_12  and  C_13
REMARK    6  A    between atoms: C_13  and  C_14
REMARK    7  A    between atoms: C_20  and  O_21
REMARK                            x       y       z     vdW  Elec       q    Type
REMARK                         _______ _______ _______ _____ _____    ______ ____
ROOT
ATOM      1  C   UNL     1      34.766 -24.193 -15.557  0.00  0.00    +0.089 C 
ENDROOT
BRANCH   1   2
ATOM      2  N   UNL     1      36.232 -24.213 -15.424  0.00  0.00    -0.246 NA
ATOM      3  N   UNL     1      38.305 -23.496 -15.460  0.00  0.00    -0.251 NA
ATOM      4  C   UNL     1      36.967 -25.277 -15.040  0.00  0.00    +0.125 C 
ATOM      5  C   UNL     1      37.050 -23.166 -15.668  0.00  0.00    +0.201 C 
ATOM      6  C   UNL     1      38.260 -24.811 -15.068  0.00  0.00    +0.124 C 
BRANCH   6   9
ATOM      7  O   UNL     1      40.372 -25.764 -15.542  0.00  0.00    -0.269 OA
ATOM      8  N   UNL     1      39.543 -26.062 -13.439  0.00  0.00    -0.324 N 
ATOM      9  C   UNL     1      39.435 -25.558 -14.738  0.00  0.00    +0.257 C 
ATOM     10  H   UNL     1      40.338 -26.582 -13.177  0.00  0.00    +0.145 HD
ATOM     11  H   UNL     1      38.824 -25.898 -12.786  0.00  0.00    +0.145 HD
ENDBRANCH   6   9
ENDBRANCH   1   2
BRANCH   1  12
ATOM     12  C   UNL     1      34.225 -22.967 -16.332  0.00  0.00    +0.023 C 
BRANCH  12  13
ATOM     13  C   UNL     1      33.838 -23.245 -17.795  0.00  0.00    +0.028 C 
BRANCH  13  14
ATOM     14  C   UNL     1      34.186 -22.160 -18.782  0.00  0.00    -0.022 C 
ATOM     15  C   UNL     1      35.518 -21.893 -19.060  0.00  0.00    -0.004 C 
ATOM     16  C   UNL     1      33.168 -21.446 -19.395  0.00  0.00    -0.004 C 
ATOM     17  C   UNL     1      35.840 -20.889 -19.973  0.00  0.00    -0.000 C 
ATOM     18  C   UNL     1      33.490 -20.441 -20.307  0.00  0.00    -0.000 C 
ATOM     19  C   UNL     1      34.826 -20.162 -20.597  0.00  0.00    -0.000 C 
ENDBRANCH  13  14
ENDBRANCH  12  13
ENDBRANCH   1  12
BRANCH   1  20
ATOM     20  C   UNL     1      34.098 -24.295 -14.173  0.00  0.00    +0.153 C 
BRANCH  20  21
ATOM     21  O   UNL     1      33.215 -23.199 -13.958  0.00  0.00    -0.381 OA
ATOM     22  H   UNL     1      32.307 -23.529 -13.865  0.00  0.00    +0.210 HD
ENDBRANCH  20  21
ENDBRANCH   1  20
TORSDOF 7
ENDMDL
MODEL 4
REMARK VINA RESULT:      -8.5     10.506     12.380
REMARK  Name = 447340
REMARK  7 active torsions:
REMARK  status: ('A' for Active; 'I' for Inactive)
REMARK    1  A    between atoms: C_1  and  N_2
REMARK    2  A    between atoms: C_1  and  C_12
REMARK    3  A    between atoms: C_1  and  C_20
REMARK    4  A    between atoms: C_6  and  C_9
REMARK    5  A    between atoms: C_12  and  C_13
REMARK    6  A    between atoms: C_13  and  C_14
REMARK    7  A    between atoms: C_20  and  O_21
REMARK                            x       y       z     vdW  Elec       q    Type
REMARK                         _______ _______ _______ _____ _____    ______ ____
ROOT
ATOM      1  C   UNL     1      35.619 -24.569 -13.737  0.00  0.00    +0.089 C 
ENDROOT
BRANCH   1   2
ATOM      2  N   UNL     1      36.878 -25.253 -14.071  0.00  0.00    -0.246 NA
ATOM      3  N   UNL     1      38.234 -26.826 -14.778  0.00  0.00    -0.251 NA
ATOM      4  C   UNL     1      38.114 -24.737 -13.907  0.00  0.00    +0.125 C 
ATOM      5  C   UNL     1      36.976 -26.495 -14.590  0.00  0.00    +0.201 C 
ATOM      6  C   UNL     1      38.949 -25.734 -14.353  0.00  0.00    +0.124 C 
BRANCH   6   9
ATOM      7  O   UNL     1      41.027 -24.652 -14.674  0.00  0.00    -0.269 OA
ATOM      8  N   UNL     1      41.080 -26.852 -14.079  0.00  0.00    -0.324 N 
ATOM      9  C   UNL     1      40.379 -25.685 -14.393  0.00  0.00    +0.257 C 
ATOM     10  H   UNL     1      42.065 -26.855 -14.098  0.00  0.00    +0.145 HD
ATOM     11  H   UNL     1      40.589 -27.672 -13.841  0.00  0.00    +0.145 HD
ENDBRANCH   6   9
ENDBRANCH   1   2
BRANCH   1  12
ATOM     12  C   UNL     1      35.286 -23.381 -14.672  0.00  0.00    +0.023 C 
BRANCH  12  13
ATOM     13  C   UNL     1      34.331 -23.719 -15.832  0.00  0.00    +0.028 C 
BRANCH  13  14
ATOM     14  C   UNL     1      32.872 -23.436 -15.581  0.00  0.00    -0.022 C 
ATOM     15  C   UNL     1      32.038 -23.157 -16.654  0.00  0.00    -0.004 C 
ATOM     16  C   UNL     1      32.387 -23.458 -14.282  0.00  0.00    -0.004 C 
ATOM     17  C   UNL     1      30.688 -22.894 -16.422  0.00  0.00    -0.000 C 
ATOM     18  C   UNL     1      31.037 -23.195 -14.051  0.00  0.00    -0.000 C 
ATOM     19  C   UNL     1      30.187 -22.913 -15.120  0.00  0.00    -0.000 C 
ENDBRANCH  13  14
ENDBRANCH  12  13
ENDBRANCH   1  12
BRANCH   1  20
ATOM     20  C   UNL     1      35.628 -24.111 -12.266  0.00  0.00    +0.153 C 
BRANCH  20  21
ATOM     21  O   UNL     1      35.029 -25.094 -11.429  0.00  0.00    -0.381 OA
ATOM     22  H   UNL     1      34.629 -25.787 -11.978  0.00  0.00    +0.210 HD
ENDBRANCH  20  21
ENDBRANCH   1  20
TORSDOF 7
ENDMDL
MODEL 5
REMARK VINA RESULT:      -8.5      6.731     10.611
REMARK  Name = 447340
REMARK  7 active torsions:
REMARK  status: ('A' for Active; 'I' for Inactive)
REMARK    1  A    between atoms: C_1  and  N_2
REMARK    2  A    between atoms: C_1  and  C_12
REMARK    3  A    between atoms: C_1  and  C_20
REMARK    4  A    between atoms: C_6  and  C_9
REMARK    5  A    between atoms: C_12  and  C_13
REMARK    6  A    between atoms: C_13  and  C_14
REMARK    7  A    between atoms: C_20  and  O_21
REMARK                            x       y       z     vdW  Elec       q    Type
REMARK                         _______ _______ _______ _____ _____    ______ ____
ROOT
ATOM      1  C   UNL     1      35.834 -22.424 -16.517  0.00  0.00    +0.089 C 
ENDROOT
BRANCH   1   2
ATOM      2  N   UNL     1      36.103 -23.660 -15.764  0.00  0.00    -0.246 NA
ATOM      3  N   UNL     1      35.720 -25.546 -14.712  0.00  0.00    -0.251 NA
ATOM      4  C   UNL     1      37.321 -24.082 -15.367  0.00  0.00    +0.125 C 
ATOM      5  C   UNL     1      35.167 -24.547 -15.363  0.00  0.00    +0.201 C 
ATOM      6  C   UNL     1      37.062 -25.263 -14.711  0.00  0.00    +0.124 C 
BRANCH   6   9
ATOM      7  O   UNL     1      38.698 -26.971 -14.724  0.00  0.00    -0.269 OA
ATOM      8  N   UNL     1      38.254 -25.970 -12.724  0.00  0.00    -0.324 N 
ATOM      9  C   UNL     1      38.031 -26.118 -14.096  0.00  0.00    +0.257 C 
ATOM     10  H   UNL     1      38.913 -26.542 -12.268  0.00  0.00    +0.145 HD
ATOM     11  H   UNL     1      37.751 -25.294 -12.214  0.00  0.00    +0.145 HD
ENDBRANCH   6   9
ENDBRANCH   1   2
BRANCH   1  12
ATOM     12  C   UNL     1      34.656 -22.545 -17.515  0.00  0.00    +0.023 C 
BRANCH  12  13
ATOM     13  C   UNL     1      35.058 -22.482 -19.000  0.00  0.00    +0.028 C 
BRANCH  13  14
ATOM     14  C   UNL     1      34.591 -21.263 -19.752  0.00  0.00    -0.022 C 
ATOM     15  C   UNL     1      33.236 -20.975 -19.810  0.00  0.00    -0.004 C 
ATOM     16  C   UNL     1      35.525 -20.448 -20.376  0.00  0.00    -0.004 C 
ATOM     17  C   UNL     1      32.804 -19.846 -20.507  0.00  0.00    -0.000 C 
ATOM     18  C   UNL     1      35.093 -19.321 -21.073  0.00  0.00    -0.000 C 
ATOM     19  C   UNL     1      33.732 -19.019 -21.139  0.00  0.00    -0.000 C 
ENDBRANCH  13  14
ENDBRANCH  12  13
ENDBRANCH   1  12
BRANCH   1  20
ATOM     20  C   UNL     1      37.107 -21.946 -17.240  0.00  0.00    +0.153 C 
BRANCH  20  21
ATOM     21  O   UNL     1      37.349 -20.568 -16.975  0.00  0.00    -0.381 OA
ATOM     22  H   UNL     1      38.303 -20.395 -17.007  0.00  0.00    +0.210 HD
ENDBRANCH  20  21
ENDBRANCH   1  20
TORSDOF 7
ENDMDL
MODEL 6
REMARK VINA RESULT:      -8.5      7.602     11.339
REMARK  Name = 447340
REMARK  7 active torsions:
REMARK  status: ('A' for Active; 'I' for Inactive)
REMARK    1  A    between atoms: C_1  and  N_2
REMARK    2  A    between atoms: C_1  and  C_12
REMARK    3  A    between atoms: C_1  and  C_20
REMARK    4  A    between atoms: C_6  and  C_9
REMARK    5  A    between atoms: C_12  and  C_13
REMARK    6  A    between atoms: C_13  and  C_14
REMARK    7  A    between atoms: C_20  and  O_21
REMARK                            x       y       z     vdW  Elec       q    Type
REMARK                         _______ _______ _______ _____ _____    ______ ____
ROOT
ATOM      1  C   UNL     1      33.734 -23.934 -15.795  0.00  0.00    +0.089 C 
ENDROOT
BRANCH   1   2
ATOM      2  N   UNL     1      34.648 -24.286 -14.696  0.00  0.00    -0.246 NA
ATOM      3  N   UNL     1      36.401 -25.116 -13.672  0.00  0.00    -0.251 NA
ATOM      4  C   UNL     1      34.452 -23.993 -13.393  0.00  0.00    +0.125 C 
ATOM      5  C   UNL     1      35.813 -24.953 -14.836  0.00  0.00    +0.201 C 
ATOM      6  C   UNL     1      35.557 -24.520 -12.768  0.00  0.00    +0.124 C 
BRANCH   6   9
ATOM      7  O   UNL     1      35.247 -25.183 -10.520  0.00  0.00    -0.269 OA
ATOM      8  N   UNL     1      36.840 -23.605 -10.929  0.00  0.00    -0.324 N 
ATOM      9  C   UNL     1      35.837 -24.474 -11.365  0.00  0.00    +0.257 C 
ATOM     10  H   UNL     1      37.059 -23.546  -9.971  0.00  0.00    +0.145 HD
ATOM     11  H   UNL     1      37.328 -23.049 -11.580  0.00  0.00    +0.145 HD
ENDBRANCH   6   9
ENDBRANCH   1   2
BRANCH   1  12
ATOM     12  C   UNL     1      34.379 -23.036 -16.879  0.00  0.00    +0.023 C 
BRANCH  12  13
ATOM     13  C   UNL     1      33.515 -22.818 -18.135  0.00  0.00    +0.028 C 
BRANCH  13  14
ATOM     14  C   UNL     1      34.034 -21.799 -19.116  0.00  0.00    -0.022 C 
ATOM     15  C   UNL     1      33.137 -20.987 -19.795  0.00  0.00    -0.004 C 
ATOM     16  C   UNL     1      35.400 -21.689 -19.326  0.00  0.00    -0.004 C 
ATOM     17  C   UNL     1      33.618 -20.044 -20.703  0.00  0.00    -0.000 C 
ATOM     18  C   UNL     1      35.881 -20.747 -20.235  0.00  0.00    -0.000 C 
ATOM     19  C   UNL     1      34.990 -19.924 -20.924  0.00  0.00    -0.000 C 
ENDBRANCH  13  14
ENDBRANCH  12  13
ENDBRANCH   1  12
BRANCH   1  20
ATOM     20  C   UNL     1      32.455 -23.278 -15.242  0.00  0.00    +0.153 C 
BRANCH  20  21
ATOM     21  O   UNL     1      31.299 -23.992 -15.666  0.00  0.00    -0.381 OA
ATOM     22  H   UNL     1      30.936 -24.493 -14.919  0.00  0.00    +0.210 HD
ENDBRANCH  20  21
ENDBRANCH   1  20
TORSDOF 7
ENDMDL
MODEL 7
REMARK VINA RESULT:      -8.5      2.649      3.423
REMARK  Name = 447340
REMARK  7 active torsions:
REMARK  status: ('A' for Active; 'I' for Inactive)
REMARK    1  A    between atoms: C_1  and  N_2
REMARK    2  A    between atoms: C_1  and  C_12
REMARK    3  A    between atoms: C_1  and  C_20
REMARK    4  A    between atoms: C_6  and  C_9
REMARK    5  A    between atoms: C_12  and  C_13
REMARK    6  A    between atoms: C_13  and  C_14
REMARK    7  A    between atoms: C_20  and  O_21
REMARK                            x       y       z     vdW  Elec       q    Type
REMARK                         _______ _______ _______ _____ _____    ______ ____
ROOT
ATOM      1  C   UNL     1      34.012 -16.403 -23.239  0.00  0.00    +0.089 C 
ENDROOT
BRANCH   1   2
ATOM      2  N   UNL     1      33.486 -15.045 -23.026  0.00  0.00    -0.246 NA
ATOM      3  N   UNL     1      33.064 -12.926 -23.402  0.00  0.00    -0.251 NA
ATOM      4  C   UNL     1      32.765 -14.647 -21.957  0.00  0.00    +0.125 C 
ATOM      5  C   UNL     1      33.651 -14.005 -23.870  0.00  0.00    +0.201 C 
ATOM      6  C   UNL     1      32.510 -13.319 -22.210  0.00  0.00    +0.124 C 
BRANCH   6   9
ATOM      7  O   UNL     1      31.957 -12.317 -20.140  0.00  0.00    -0.269 OA
ATOM      8  N   UNL     1      30.798 -11.622 -21.975  0.00  0.00    -0.324 N 
ATOM      9  C   UNL     1      31.768 -12.427 -21.372  0.00  0.00    +0.257 C 
ATOM     10  H   UNL     1      30.267 -10.997 -21.430  0.00  0.00    +0.145 HD
ATOM     11  H   UNL     1      30.643 -11.682 -22.946  0.00  0.00    +0.145 HD
ENDBRANCH   6   9
ENDBRANCH   1   2
BRANCH   1  12
ATOM     12  C   UNL     1      34.820 -16.956 -22.039  0.00  0.00    +0.023 C 
BRANCH  12  13
ATOM     13  C   UNL     1      35.352 -18.388 -22.223  0.00  0.00    +0.028 C 
BRANCH  13  14
ATOM     14  C   UNL     1      34.797 -19.419 -21.274  0.00  0.00    -0.022 C 
ATOM     15  C   UNL     1      33.427 -19.488 -21.068  0.00  0.00    -0.004 C 
ATOM     16  C   UNL     1      35.665 -20.280 -20.620  0.00  0.00    -0.004 C 
ATOM     17  C   UNL     1      32.913 -20.442 -20.189  0.00  0.00    -0.000 C 
ATOM     18  C   UNL     1      35.151 -21.233 -19.740  0.00  0.00    -0.000 C 
ATOM     19  C   UNL     1      33.775 -21.314 -19.525  0.00  0.00    -0.000 C 
ENDBRANCH  13  14
ENDBRANCH  12  13
ENDBRANCH   1  12
BRANCH   1  20
ATOM     20  C   UNL     1      34.854 -16.459 -24.528  0.00  0.00    +0.153 C 
BRANCH  20  21
ATOM     21  O   UNL     1      34.200 -17.239 -25.523  0.00  0.00    -0.381 OA
ATOM     22  H   UNL     1      34.843 -17.832 -25.943  0.00  0.00    +0.210 HD
ENDBRANCH  20  21
ENDBRANCH   1  20
TORSDOF 7
ENDMDL
MODEL 8
REMARK VINA RESULT:      -8.4      6.899      9.530
REMARK  Name = 447340
REMARK  7 active torsions:
REMARK  status: ('A' for Active; 'I' for Inactive)
REMARK    1  A    between atoms: C_1  and  N_2
REMARK    2  A    between atoms: C_1  and  C_12
REMARK    3  A    between atoms: C_1  and  C_20
REMARK    4  A    between atoms: C_6  and  C_9
REMARK    5  A    between atoms: C_12  and  C_13
REMARK    6  A    between atoms: C_13  and  C_14
REMARK    7  A    between atoms: C_20  and  O_21
REMARK                            x       y       z     vdW  Elec       q    Type
REMARK                         _______ _______ _______ _____ _____    ______ ____
ROOT
ATOM      1  C   UNL     1      33.145 -22.970 -16.430  0.00  0.00    +0.089 C 
ENDROOT
BRANCH   1   2
ATOM      2  N   UNL     1      31.740 -23.269 -16.108  0.00  0.00    -0.246 NA
ATOM      3  N   UNL     1      30.009 -24.067 -15.021  0.00  0.00    -0.251 NA
ATOM      4  C   UNL     1      30.673 -22.887 -16.839  0.00  0.00    +0.125 C 
ATOM      5  C   UNL     1      31.320 -23.969 -15.032  0.00  0.00    +0.201 C 
ATOM      6  C   UNL     1      29.600 -23.395 -16.146  0.00  0.00    +0.124 C 
BRANCH   6   9
ATOM      7  O   UNL     1      27.704 -23.845 -17.485  0.00  0.00    -0.269 OA
ATOM      8  N   UNL     1      27.412 -22.455 -15.702  0.00  0.00    -0.324 N 
ATOM      9  C   UNL     1      28.221 -23.262 -16.506  0.00  0.00    +0.257 C 
ATOM     10  H   UNL     1      26.459 -22.340 -15.920  0.00  0.00    +0.145 HD
ATOM     11  H   UNL     1      27.795 -22.000 -14.917  0.00  0.00    +0.145 HD
ENDBRANCH   6   9
ENDBRANCH   1   2
BRANCH   1  12
ATOM     12  C   UNL     1      33.513 -23.225 -17.912  0.00  0.00    +0.023 C 
BRANCH  12  13
ATOM     13  C   UNL     1      34.741 -22.445 -18.417  0.00  0.00    +0.028 C 
BRANCH  13  14
ATOM     14  C   UNL     1      34.462 -21.381 -19.446  0.00  0.00    -0.022 C 
ATOM     15  C   UNL     1      33.151 -21.012 -19.708  0.00  0.00    -0.004 C 
ATOM     16  C   UNL     1      35.521 -20.787 -20.116  0.00  0.00    -0.004 C 
ATOM     17  C   UNL     1      32.893 -20.027 -20.661  0.00  0.00    -0.000 C 
ATOM     18  C   UNL     1      35.263 -19.802 -21.069  0.00  0.00    -0.000 C 
ATOM     19  C   UNL     1      33.949 -19.422 -21.342  0.00  0.00    -0.000 C 
ENDBRANCH  13  14
ENDBRANCH  12  13
ENDBRANCH   1  12
BRANCH   1  20
ATOM     20  C   UNL     1      34.090 -23.750 -15.498  0.00  0.00    +0.153 C 
BRANCH  20  21
ATOM     21  O   UNL     1      34.711 -22.875 -14.562  0.00  0.00    -0.381 OA
ATOM     22  H   UNL     1      34.185 -22.064 -14.480  0.00  0.00    +0.210 HD
ENDBRANCH  20  21
ENDBRANCH   1  20
TORSDOF 7
ENDMDL
MODEL 9
REMARK VINA RESULT:      -8.3      3.615      7.466
REMARK  Name = 447340
REMARK  7 active torsions:
REMARK  status: ('A' for Active; 'I' for Inactive)
REMARK    1  A    between atoms: C_1  and  N_2
REMARK    2  A    between atoms: C_1  and  C_12
REMARK    3  A    between atoms: C_1  and  C_20
REMARK    4  A    between atoms: C_6  and  C_9
REMARK    5  A    between atoms: C_12  and  C_13
REMARK    6  A    between atoms: C_13  and  C_14
REMARK    7  A    between atoms: C_20  and  O_21
REMARK                            x       y       z     vdW  Elec       q    Type
REMARK                         _______ _______ _______ _____ _____    ______ ____
ROOT
ATOM      1  C   UNL     1      35.374 -18.288 -21.426  0.00  0.00    +0.089 C 
ENDROOT
BRANCH   1   2
ATOM      2  N   UNL     1      35.291 -19.563 -20.695  0.00  0.00    -0.246 NA
ATOM      3  N   UNL     1      35.944 -21.328 -19.568  0.00  0.00    -0.251 NA
ATOM      4  C   UNL     1      34.157 -20.257 -20.462  0.00  0.00    +0.125 C 
ATOM      5  C   UNL     1      36.339 -20.220 -20.153  0.00  0.00    +0.201 C 
ATOM      6  C   UNL     1      34.585 -21.358 -19.757  0.00  0.00    +0.124 C 
BRANCH   6   9
ATOM      7  O   UNL     1      34.045 -23.629 -19.381  0.00  0.00    -0.269 OA
ATOM      8  N   UNL     1      32.585 -22.068 -18.590  0.00  0.00    -0.324 N 
ATOM      9  C   UNL     1      33.760 -22.417 -19.262  0.00  0.00    +0.257 C 
ATOM     10  H   UNL     1      31.992 -22.770 -18.236  0.00  0.00    +0.145 HD
ATOM     11  H   UNL     1      32.349 -21.119 -18.471  0.00  0.00    +0.145 HD
ENDBRANCH   6   9
ENDBRANCH   1   2
BRANCH   1  12
ATOM     12  C   UNL     1      34.196 -17.326 -21.137  0.00  0.00    +0.023 C 
BRANCH  12  13
ATOM     13  C   UNL     1      34.610 -15.898 -20.738  0.00  0.00    +0.028 C 
BRANCH  13  14
ATOM     14  C   UNL     1      33.888 -14.784 -21.452  0.00  0.00    -0.022 C 
ATOM     15  C   UNL     1      32.776 -14.204 -20.861  0.00  0.00    -0.004 C 
ATOM     16  C   UNL     1      34.348 -14.357 -22.689  0.00  0.00    -0.004 C 
ATOM     17  C   UNL     1      32.108 -13.173 -21.522  0.00  0.00    -0.000 C 
ATOM     18  C   UNL     1      33.679 -13.327 -23.350  0.00  0.00    -0.000 C 
ATOM     19  C   UNL     1      32.559 -12.735 -22.767  0.00  0.00    -0.000 C 
ENDBRANCH  13  14
ENDBRANCH  12  13
ENDBRANCH   1  12
BRANCH   1  20
ATOM     20  C   UNL     1      35.506 -18.542 -22.939  0.00  0.00    +0.153 C 
BRANCH  20  21
ATOM     21  O   UNL     1      35.796 -17.331 -23.629  0.00  0.00    -0.381 OA
ATOM     22  H   UNL     1      34.984 -16.807 -23.719  0.00  0.00    +0.210 HD
ENDBRANCH  20  21
ENDBRANCH   1  20
TORSDOF 7
ENDMDL
