MODEL 1
REMARK VINA RESULT:      -6.8      0.000      0.000
REMARK  Name = 6758
REMARK  3 active torsions:
REMARK  status: ('A' for Active; 'I' for Inactive)
REMARK    1  A    between atoms: C_14  and  C_23
REMARK    2  A    between atoms: C_21  and  O_26
REMARK    3  A    between atoms: C_22  and  O_28
REMARK                            x       y       z     vdW  Elec       q    Type
REMARK                         _______ _______ _______ _____ _____    ______ ____
ROOT
ATOM      1  O   UNL     1      33.515 -14.048 -23.966  0.00  0.00    -0.475 OA
ATOM      2  O   UNL     1      33.898 -11.876 -25.753  0.00  0.00    -0.472 OA
ATOM      3  O   UNL     1      34.872 -16.958 -20.594  0.00  0.00    -0.475 OA
ATOM      4  O   UNL     1      30.761 -12.233 -21.522  0.00  0.00    -0.291 OA
ATOM      5  C   UNL     1      31.883 -12.214 -23.651  0.00  0.00    +0.131 C 
ATOM      6  C   UNL     1      32.382 -13.367 -24.523  0.00  0.00    +0.220 C 
ATOM      7  C   UNL     1      33.343 -14.447 -22.675  0.00  0.00    +0.140 C 
ATOM      8  C   UNL     1      32.838 -11.044 -23.708  0.00  0.00    +0.026 C 
ATOM      9  C   UNL     1      31.605 -12.735 -22.257  0.00  0.00    +0.183 C 
ATOM     10  C   UNL     1      32.818 -12.808 -25.873  0.00  0.00    +0.249 C 
ATOM     11  C   UNL     1      34.152 -15.467 -22.200  0.00  0.00    +0.050 C 
ATOM     12  C   UNL     1      32.424 -13.873 -21.795  0.00  0.00    +0.069 C 
ATOM     13  C   UNL     1      35.173 -16.276 -22.905  0.00  0.00    +0.080 C 
ATOM     14  C   UNL     1      35.818 -16.972 -21.696  0.00  0.00    +0.189 C 
ATOM     15  C   UNL     1      34.020 -15.928 -20.899  0.00  0.00    +0.138 C 
ATOM     16  C   UNL     1      33.769 -10.945 -24.755  0.00  0.00    +0.138 C 
ATOM     17  C   UNL     1      32.291 -14.349 -20.476  0.00  0.00    +0.009 C 
ATOM     18  C   UNL     1      32.784 -10.005 -22.764  0.00  0.00    +0.039 C 
ATOM     19  C   UNL     1      33.094 -15.397 -20.022  0.00  0.00    +0.037 C 
ATOM     20  C   UNL     1      34.660  -9.868 -24.817  0.00  0.00    +0.077 C 
ATOM     21  C   UNL     1      33.668  -8.926 -22.836  0.00  0.00    +0.172 C 
ATOM     22  C   UNL     1      34.609  -8.861 -23.858  0.00  0.00    +0.175 C 
ENDROOT
BRANCH  14  23
ATOM     23  C   UNL     1      36.218 -18.381 -21.980  0.00  0.00    -0.004 C 
ATOM     24  C   UNL     1      35.653 -18.990 -23.228  0.00  0.00    +0.030 C 
ATOM     25  C   UNL     1      37.035 -19.064 -21.165  0.00  0.00    -0.006 C 
ENDBRANCH  14  23
BRANCH  21  26
ATOM     26  O   UNL     1      33.594  -7.940 -21.898  0.00  0.00    -0.468 OA
ATOM     27  C   UNL     1      32.679  -8.137 -20.822  0.00  0.00    +0.253 C 
ENDBRANCH  21  26
BRANCH  22  28
ATOM     28  O   UNL     1      35.478  -7.815 -23.937  0.00  0.00    -0.468 OA
ATOM     29  C   UNL     1      35.041  -6.660 -24.651  0.00  0.00    +0.253 C 
ENDBRANCH  22  28
TORSDOF 3
ENDMDL
MODEL 2
REMARK VINA RESULT:      -6.3      3.347      9.533
REMARK  Name = 6758
REMARK  3 active torsions:
REMARK  status: ('A' for Active; 'I' for Inactive)
REMARK    1  A    between atoms: C_14  and  C_23
REMARK    2  A    between atoms: C_21  and  O_26
REMARK    3  A    between atoms: C_22  and  O_28
REMARK                            x       y       z     vdW  Elec       q    Type
REMARK                         _______ _______ _______ _____ _____    ______ ____
ROOT
ATOM      1  O   UNL     1      34.094  -6.649 -24.713  0.00  0.00    -0.475 OA
ATOM      2  O   UNL     1      35.106  -9.250 -24.193  0.00  0.00    -0.472 OA
ATOM      3  O   UNL     1      31.445  -3.594 -27.022  0.00  0.00    -0.475 OA
ATOM      4  O   UNL     1      31.851  -6.268 -21.297  0.00  0.00    -0.291 OA
ATOM      5  C   UNL     1      33.624  -7.447 -22.418  0.00  0.00    +0.131 C 
ATOM      6  C   UNL     1      34.660  -6.957 -23.431  0.00  0.00    +0.220 C 
ATOM      7  C   UNL     1      33.023  -5.809 -24.661  0.00  0.00    +0.140 C 
ATOM      8  C   UNL     1      33.166  -8.848 -22.751  0.00  0.00    +0.026 C 
ATOM      9  C   UNL     1      32.511  -6.426 -22.319  0.00  0.00    +0.183 C 
ATOM     10  C   UNL     1      35.689  -8.060 -23.652  0.00  0.00    +0.249 C 
ATOM     11  C   UNL     1      32.693  -5.109 -25.809  0.00  0.00    +0.050 C 
ATOM     12  C   UNL     1      32.222  -5.633 -23.531  0.00  0.00    +0.069 C 
ATOM     13  C   UNL     1      33.373  -5.066 -27.125  0.00  0.00    +0.080 C 
ATOM     14  C   UNL     1      32.296  -4.332 -27.939  0.00  0.00    +0.189 C 
ATOM     15  C   UNL     1      31.622  -4.229 -25.819  0.00  0.00    +0.138 C 
ATOM     16  C   UNL     1      33.938  -9.657 -23.601  0.00  0.00    +0.138 C 
ATOM     17  C   UNL     1      31.139  -4.734 -23.545  0.00  0.00    +0.009 C 
ATOM     18  C   UNL     1      32.006  -9.397 -22.182  0.00  0.00    +0.039 C 
ATOM     19  C   UNL     1      30.837  -4.014 -24.702  0.00  0.00    +0.037 C 
ATOM     20  C   UNL     1      33.524 -10.955 -23.919  0.00  0.00    +0.077 C 
ATOM     21  C   UNL     1      31.601 -10.697 -22.493  0.00  0.00    +0.172 C 
ATOM     22  C   UNL     1      32.356 -11.473 -23.365  0.00  0.00    +0.175 C 
ENDROOT
BRANCH  14  23
ATOM     23  C   UNL     1      32.868  -3.387 -28.942  0.00  0.00    -0.004 C 
ATOM     24  C   UNL     1      34.167  -3.796 -29.570  0.00  0.00    +0.030 C 
ATOM     25  C   UNL     1      32.255  -2.238 -29.264  0.00  0.00    -0.006 C 
ENDBRANCH  14  23
BRANCH  21  26
ATOM     26  O   UNL     1      30.464 -11.194 -21.930  0.00  0.00    -0.468 OA
ATOM     27  C   UNL     1      30.416 -11.249 -20.506  0.00  0.00    +0.253 C 
ENDBRANCH  21  26
BRANCH  22  28
ATOM     28  O   UNL     1      31.971 -12.742 -23.678  0.00  0.00    -0.468 OA
ATOM     29  C   UNL     1      32.750 -13.808 -23.142  0.00  0.00    +0.253 C 
ENDBRANCH  22  28
TORSDOF 3
ENDMDL
MODEL 3
REMARK VINA RESULT:      -6.1      5.240      9.325
REMARK  Name = 6758
REMARK  3 active torsions:
REMARK  status: ('A' for Active; 'I' for Inactive)
REMARK    1  A    between atoms: C_14  and  C_23
REMARK    2  A    between atoms: C_21  and  O_26
REMARK    3  A    between atoms: C_22  and  O_28
REMARK                            x       y       z     vdW  Elec       q    Type
REMARK                         _______ _______ _______ _____ _____    ______ ____
ROOT
ATOM      1  O   UNL     1      36.260 -21.679 -18.815  0.00  0.00    -0.475 OA
ATOM      2  O   UNL     1      37.153 -19.696 -20.640  0.00  0.00    -0.472 OA
ATOM      3  O   UNL     1      34.934 -23.179 -14.612  0.00  0.00    -0.475 OA
ATOM      4  O   UNL     1      32.485 -22.146 -20.358  0.00  0.00    -0.291 OA
ATOM      5  C   UNL     1      34.720 -21.329 -20.721  0.00  0.00    +0.131 C 
ATOM      6  C   UNL     1      36.066 -21.860 -20.225  0.00  0.00    +0.220 C 
ATOM      7  C   UNL     1      35.236 -22.147 -18.049  0.00  0.00    +0.140 C 
ATOM      8  C   UNL     1      34.709 -19.818 -20.732  0.00  0.00    +0.026 C 
ATOM      9  C   UNL     1      33.611 -21.962 -19.907  0.00  0.00    +0.183 C 
ATOM     10  C   UNL     1      37.183 -21.098 -20.930  0.00  0.00    +0.249 C 
ATOM     11  C   UNL     1      35.500 -22.432 -16.720  0.00  0.00    +0.050 C 
ATOM     12  C   UNL     1      33.932 -22.330 -18.514  0.00  0.00    +0.069 C 
ATOM     13  C   UNL     1      36.777 -22.372 -15.970  0.00  0.00    +0.080 C 
ATOM     14  C   UNL     1      36.237 -22.540 -14.542  0.00  0.00    +0.189 C 
ATOM     15  C   UNL     1      34.504 -22.922 -15.888  0.00  0.00    +0.138 C 
ATOM     16  C   UNL     1      35.918 -19.105 -20.704  0.00  0.00    +0.138 C 
ATOM     17  C   UNL     1      32.927 -22.833 -17.667  0.00  0.00    +0.009 C 
ATOM     18  C   UNL     1      33.510 -19.092 -20.831  0.00  0.00    +0.039 C 
ATOM     19  C   UNL     1      33.217 -23.142 -16.336  0.00  0.00    +0.037 C 
ATOM     20  C   UNL     1      35.921 -17.706 -20.712  0.00  0.00    +0.077 C 
ATOM     21  C   UNL     1      33.517 -17.696 -20.850  0.00  0.00    +0.172 C 
ATOM     22  C   UNL     1      34.722 -17.003 -20.784  0.00  0.00    +0.175 C 
ENDROOT
BRANCH  14  23
ATOM     23  C   UNL     1      37.134 -23.355 -13.672  0.00  0.00    -0.004 C 
ATOM     24  C   UNL     1      37.929 -24.424 -14.360  0.00  0.00    +0.030 C 
ATOM     25  C   UNL     1      37.225 -23.143 -12.351  0.00  0.00    -0.006 C 
ENDBRANCH  14  23
BRANCH  21  26
ATOM     26  O   UNL     1      32.335 -17.023 -20.937  0.00  0.00    -0.468 OA
ATOM     27  C   UNL     1      32.193 -15.856 -20.130  0.00  0.00    +0.253 C 
ENDBRANCH  21  26
BRANCH  22  28
ATOM     28  O   UNL     1      34.742 -15.641 -20.799  0.00  0.00    -0.468 OA
ATOM     29  C   UNL     1      34.789 -15.006 -22.075  0.00  0.00    +0.253 C 
ENDBRANCH  22  28
TORSDOF 3
ENDMDL
MODEL 4
REMARK VINA RESULT:      -5.8      1.708      7.866
REMARK  Name = 6758
REMARK  3 active torsions:
REMARK  status: ('A' for Active; 'I' for Inactive)
REMARK    1  A    between atoms: C_14  and  C_23
REMARK    2  A    between atoms: C_21  and  O_26
REMARK    3  A    between atoms: C_22  and  O_28
REMARK                            x       y       z     vdW  Elec       q    Type
REMARK                         _______ _______ _______ _____ _____    ______ ____
ROOT
ATOM      1  O   UNL     1      33.051 -12.692 -23.025  0.00  0.00    -0.475 OA
ATOM      2  O   UNL     1      33.043 -14.607 -20.929  0.00  0.00    -0.472 OA
ATOM      3  O   UNL     1      35.063  -9.471 -25.717  0.00  0.00    -0.475 OA
ATOM      4  O   UNL     1      32.715 -15.335 -26.148  0.00  0.00    -0.291 OA
ATOM      5  C   UNL     1      32.471 -14.977 -23.780  0.00  0.00    +0.131 C 
ATOM      6  C   UNL     1      32.058 -13.727 -23.000  0.00  0.00    +0.220 C 
ATOM      7  C   UNL     1      33.486 -12.369 -24.274  0.00  0.00    +0.140 C 
ATOM      8  C   UNL     1      33.543 -15.743 -23.041  0.00  0.00    +0.026 C 
ATOM      9  C   UNL     1      32.841 -14.576 -25.192  0.00  0.00    +0.183 C 
ATOM     10  C   UNL     1      31.848 -14.109 -21.539  0.00  0.00    +0.249 C 
ATOM     11  C   UNL     1      34.077 -11.130 -24.453  0.00  0.00    +0.050 C 
ATOM     12  C   UNL     1      33.399 -13.221 -25.377  0.00  0.00    +0.069 C 
ATOM     13  C   UNL     1      34.268 -10.020 -23.490  0.00  0.00    +0.080 C 
ATOM     14  C   UNL     1      35.219  -9.136 -24.313  0.00  0.00    +0.189 C 
ATOM     15  C   UNL     1      34.531 -10.734 -25.702  0.00  0.00    +0.138 C 
ATOM     16  C   UNL     1      33.750 -15.518 -21.670  0.00  0.00    +0.138 C 
ATOM     17  C   UNL     1      33.857 -12.813 -26.644  0.00  0.00    +0.009 C 
ATOM     18  C   UNL     1      34.313 -16.730 -23.678  0.00  0.00    +0.039 C 
ATOM     19  C   UNL     1      34.423 -11.548 -26.814  0.00  0.00    +0.037 C 
ATOM     20  C   UNL     1      34.742 -16.219 -20.975  0.00  0.00    +0.077 C 
ATOM     21  C   UNL     1      35.295 -17.435 -22.978  0.00  0.00    +0.172 C 
ATOM     22  C   UNL     1      35.513 -17.176 -21.629  0.00  0.00    +0.175 C 
ENDROOT
BRANCH  14  23
ATOM     23  C   UNL     1      34.965  -7.678 -24.127  0.00  0.00    -0.004 C 
ATOM     24  C   UNL     1      34.613  -7.240 -22.737  0.00  0.00    +0.030 C 
ATOM     25  C   UNL     1      35.049  -6.808 -25.144  0.00  0.00    -0.006 C 
ENDBRANCH  14  23
BRANCH  21  26
ATOM     26  O   UNL     1      36.030 -18.379 -23.630  0.00  0.00    -0.468 OA
ATOM     27  C   UNL     1      35.311 -19.422 -24.285  0.00  0.00    +0.253 C 
ENDBRANCH  21  26
BRANCH  22  28
ATOM     28  O   UNL     1      36.469 -17.855 -20.937  0.00  0.00    -0.468 OA
ATOM     29  C   UNL     1      36.210 -19.228 -20.650  0.00  0.00    +0.253 C 
ENDBRANCH  22  28
TORSDOF 3
ENDMDL
MODEL 5
REMARK VINA RESULT:      -5.8      3.455      9.580
REMARK  Name = 6758
REMARK  3 active torsions:
REMARK  status: ('A' for Active; 'I' for Inactive)
REMARK    1  A    between atoms: C_14  and  C_23
REMARK    2  A    between atoms: C_21  and  O_26
REMARK    3  A    between atoms: C_22  and  O_28
REMARK                            x       y       z     vdW  Elec       q    Type
REMARK                         _______ _______ _______ _____ _____    ______ ____
ROOT
ATOM      1  O   UNL     1      33.551  -6.562 -24.048  0.00  0.00    -0.475 OA
ATOM      2  O   UNL     1      34.596  -9.195 -24.220  0.00  0.00    -0.472 OA
ATOM      3  O   UNL     1      30.494  -3.215 -25.112  0.00  0.00    -0.475 OA
ATOM      4  O   UNL     1      32.214  -6.783 -20.173  0.00  0.00    -0.291 OA
ATOM      5  C   UNL     1      33.634  -7.733 -21.869  0.00  0.00    +0.131 C 
ATOM      6  C   UNL     1      34.403  -7.066 -23.010  0.00  0.00    +0.220 C 
ATOM      7  C   UNL     1      32.545  -5.760 -23.600  0.00  0.00    +0.140 C 
ATOM      8  C   UNL     1      33.076  -9.068 -22.304  0.00  0.00    +0.026 C 
ATOM      9  C   UNL     1      32.603  -6.761 -21.337  0.00  0.00    +0.183 C 
ATOM     10  C   UNL     1      35.322  -8.100 -23.652  0.00  0.00    +0.249 C 
ATOM     11  C   UNL     1      31.962  -4.887 -24.503  0.00  0.00    +0.050 C 
ATOM     12  C   UNL     1      32.047  -5.785 -22.296  0.00  0.00    +0.069 C 
ATOM     13  C   UNL     1      32.303  -4.618 -25.920  0.00  0.00    +0.080 C 
ATOM     14  C   UNL     1      31.079  -3.779 -26.316  0.00  0.00    +0.189 C 
ATOM     15  C   UNL     1      30.942  -4.035 -24.109  0.00  0.00    +0.138 C 
ATOM     16  C   UNL     1      33.598  -9.714 -23.436  0.00  0.00    +0.138 C 
ATOM     17  C   UNL     1      31.014  -4.915 -21.899  0.00  0.00    +0.009 C 
ATOM     18  C   UNL     1      32.075  -9.722 -21.566  0.00  0.00    +0.039 C 
ATOM     19  C   UNL     1      30.458  -4.020 -22.815  0.00  0.00    +0.037 C 
ATOM     20  C   UNL     1      33.088 -10.949 -23.850  0.00  0.00    +0.077 C 
ATOM     21  C   UNL     1      31.576 -10.961 -21.976  0.00  0.00    +0.172 C 
ATOM     22  C   UNL     1      32.078 -11.571 -23.121  0.00  0.00    +0.175 C 
ENDROOT
BRANCH  14  23
ATOM     23  C   UNL     1      31.412  -2.673 -27.261  0.00  0.00    -0.004 C 
ATOM     24  C   UNL     1      30.274  -1.786 -27.668  0.00  0.00    +0.030 C 
ATOM     25  C   UNL     1      32.658  -2.484 -27.720  0.00  0.00    -0.006 C 
ENDBRANCH  14  23
BRANCH  21  26
ATOM     26  O   UNL     1      30.598 -11.562 -21.243  0.00  0.00    -0.468 OA
ATOM     27  C   UNL     1      30.465 -11.153 -19.883  0.00  0.00    +0.253 C 
ENDBRANCH  21  26
BRANCH  22  28
ATOM     28  O   UNL     1      31.598 -12.777 -23.533  0.00  0.00    -0.468 OA
ATOM     29  C   UNL     1      32.495 -13.884 -23.483  0.00  0.00    +0.253 C 
ENDBRANCH  22  28
TORSDOF 3
ENDMDL
MODEL 6
REMARK VINA RESULT:      -5.3      3.175      9.333
REMARK  Name = 6758
REMARK  3 active torsions:
REMARK  status: ('A' for Active; 'I' for Inactive)
REMARK    1  A    between atoms: C_14  and  C_23
REMARK    2  A    between atoms: C_21  and  O_26
REMARK    3  A    between atoms: C_22  and  O_28
REMARK                            x       y       z     vdW  Elec       q    Type
REMARK                         _______ _______ _______ _____ _____    ______ ____
ROOT
ATOM      1  O   UNL     1      33.804  -6.702 -24.150  0.00  0.00    -0.475 OA
ATOM      2  O   UNL     1      35.185  -9.047 -24.957  0.00  0.00    -0.472 OA
ATOM      3  O   UNL     1      30.292  -3.653 -24.365  0.00  0.00    -0.475 OA
ATOM      4  O   UNL     1      32.650  -8.027 -20.440  0.00  0.00    -0.291 OA
ATOM      5  C   UNL     1      34.121  -8.337 -22.320  0.00  0.00    +0.131 C 
ATOM      6  C   UNL     1      34.753  -7.317 -23.268  0.00  0.00    +0.220 C 
ATOM      7  C   UNL     1      32.717  -6.177 -23.519  0.00  0.00    +0.140 C 
ATOM      8  C   UNL     1      33.731  -9.594 -23.063  0.00  0.00    +0.026 C 
ATOM      9  C   UNL     1      32.989  -7.673 -21.565  0.00  0.00    +0.183 C 
ATOM     10  C   UNL     1      35.778  -8.031 -24.143  0.00  0.00    +0.249 C 
ATOM     11  C   UNL     1      31.991  -5.203 -24.183  0.00  0.00    +0.050 C 
ATOM     12  C   UNL     1      32.275  -6.583 -22.258  0.00  0.00    +0.069 C 
ATOM     13  C   UNL     1      32.242  -4.559 -25.493  0.00  0.00    +0.080 C 
ATOM     14  C   UNL     1      30.903  -3.826 -25.671  0.00  0.00    +0.189 C 
ATOM     15  C   UNL     1      30.881  -4.620 -23.591  0.00  0.00    +0.138 C 
ATOM     16  C   UNL     1      34.294  -9.871 -24.320  0.00  0.00    +0.138 C 
ATOM     17  C   UNL     1      31.150  -5.983 -21.660  0.00  0.00    +0.009 C 
ATOM     18  C   UNL     1      32.854 -10.537 -22.503  0.00  0.00    +0.039 C 
ATOM     19  C   UNL     1      30.446  -4.981 -22.330  0.00  0.00    +0.037 C 
ATOM     20  C   UNL     1      33.939 -11.030 -25.019  0.00  0.00    +0.077 C 
ATOM     21  C   UNL     1      32.510 -11.698 -23.200  0.00  0.00    +0.172 C 
ATOM     22  C   UNL     1      33.048 -11.941 -24.459  0.00  0.00    +0.175 C 
ENDROOT
BRANCH  14  23
ATOM     23  C   UNL     1      31.051  -2.491 -26.321  0.00  0.00    -0.004 C 
ATOM     24  C   UNL     1      32.453  -1.980 -26.469  0.00  0.00    +0.030 C 
ATOM     25  C   UNL     1      29.991  -1.789 -26.750  0.00  0.00    -0.006 C 
ENDBRANCH  14  23
BRANCH  21  26
ATOM     26  O   UNL     1      31.648 -12.587 -22.631  0.00  0.00    -0.468 OA
ATOM     27  C   UNL     1      32.204 -13.537 -21.723  0.00  0.00    +0.253 C 
ENDBRANCH  21  26
BRANCH  22  28
ATOM     28  O   UNL     1      32.718 -13.068 -25.150  0.00  0.00    -0.468 OA
ATOM     29  C   UNL     1      33.267 -13.211 -26.458  0.00  0.00    +0.253 C 
ENDBRANCH  22  28
TORSDOF 3
ENDMDL
MODEL 7
REMARK VINA RESULT:      -3.9      3.127      6.180
REMARK  Name = 6758
REMARK  3 active torsions:
REMARK  status: ('A' for Active; 'I' for Inactive)
REMARK    1  A    between atoms: C_14  and  C_23
REMARK    2  A    between atoms: C_21  and  O_26
REMARK    3  A    between atoms: C_22  and  O_28
REMARK                            x       y       z     vdW  Elec       q    Type
REMARK                         _______ _______ _______ _____ _____    ______ ____
ROOT
ATOM      1  O   UNL     1      32.772  -9.536 -23.218  0.00  0.00    -0.475 OA
ATOM      2  O   UNL     1      30.919  -7.579 -22.325  0.00  0.00    -0.472 OA
ATOM      3  O   UNL     1      34.380 -12.665 -26.267  0.00  0.00    -0.475 OA
ATOM      4  O   UNL     1      35.922  -6.996 -23.907  0.00  0.00    -0.291 OA
ATOM      5  C   UNL     1      33.796  -7.317 -22.826  0.00  0.00    +0.131 C 
ATOM      6  C   UNL     1      33.164  -8.574 -22.228  0.00  0.00    +0.220 C 
ATOM      7  C   UNL     1      33.757  -9.855 -24.102  0.00  0.00    +0.140 C 
ATOM      8  C   UNL     1      32.751  -6.459 -23.503  0.00  0.00    +0.026 C 
ATOM      9  C   UNL     1      34.952  -7.722 -23.715  0.00  0.00    +0.183 C 
ATOM     10  C   UNL     1      31.901  -8.175 -21.471  0.00  0.00    +0.249 C 
ATOM     11  C   UNL     1      33.647 -11.053 -24.789  0.00  0.00    +0.050 C 
ATOM     12  C   UNL     1      34.854  -9.037 -24.380  0.00  0.00    +0.069 C 
ATOM     13  C   UNL     1      32.629 -12.124 -24.675  0.00  0.00    +0.080 C 
ATOM     14  C   UNL     1      33.002 -12.955 -25.912  0.00  0.00    +0.189 C 
ATOM     15  C   UNL     1      34.622 -11.443 -25.695  0.00  0.00    +0.138 C 
ATOM     16  C   UNL     1      31.392  -6.636 -23.201  0.00  0.00    +0.138 C 
ATOM     17  C   UNL     1      35.843  -9.441 -25.296  0.00  0.00    +0.009 C 
ATOM     18  C   UNL     1      33.107  -5.434 -24.395  0.00  0.00    +0.039 C 
ATOM     19  C   UNL     1      35.732 -10.665 -25.958  0.00  0.00    +0.037 C 
ATOM     20  C   UNL     1      30.415  -5.850 -23.822  0.00  0.00    +0.077 C 
ATOM     21  C   UNL     1      32.131  -4.644 -25.005  0.00  0.00    +0.172 C 
ATOM     22  C   UNL     1      30.785  -4.856 -24.724  0.00  0.00    +0.175 C 
ENDROOT
BRANCH  14  23
ATOM     23  C   UNL     1      32.853 -14.424 -25.693  0.00  0.00    -0.004 C 
ATOM     24  C   UNL     1      33.141 -14.918 -24.307  0.00  0.00    +0.030 C 
ATOM     25  C   UNL     1      32.481 -15.253 -26.679  0.00  0.00    -0.006 C 
ENDBRANCH  14  23
BRANCH  21  26
ATOM     26  O   UNL     1      32.511  -3.665 -25.873  0.00  0.00    -0.468 OA
ATOM     27  C   UNL     1      32.853  -4.070 -27.197  0.00  0.00    +0.253 C 
ENDBRANCH  21  26
BRANCH  22  28
ATOM     28  O   UNL     1      29.823  -4.094 -25.314  0.00  0.00    -0.468 OA
ATOM     29  C   UNL     1      29.880  -2.687 -25.090  0.00  0.00    +0.253 C 
ENDBRANCH  22  28
TORSDOF 3
ENDMDL
