MODEL 1
REMARK VINA RESULT:      -3.9      0.000      0.000
REMARK  Name = 943
REMARK  0 active torsions:
REMARK  status: ('A' for Active; 'I' for Inactive)
REMARK                            x       y       z     vdW  Elec       q    Type
REMARK                         _______ _______ _______ _____ _____    ______ ____
ROOT
ATOM      1  O   UNL     1      25.569 -21.711 -16.460  0.00  0.00    -0.087 OA
ATOM      2  O   UNL     1      26.924 -22.271 -18.035  0.00  0.00    -0.087 OA
ATOM      3  O   UNL     1      26.139 -20.269 -17.951  0.00  0.00    -0.087 OA
ATOM      4  N   UNL     1      26.211 -21.417 -17.482  0.00  0.00    +0.260 N 
ENDROOT
TORSDOF 0
ENDMDL
MODEL 2
REMARK VINA RESULT:      -3.5     14.892     15.521
REMARK  Name = 943
REMARK  0 active torsions:
REMARK  status: ('A' for Active; 'I' for Inactive)
REMARK                            x       y       z     vdW  Elec       q    Type
REMARK                         _______ _______ _______ _____ _____    ______ ____
ROOT
ATOM      1  O   UNL     1      41.357 -26.934 -13.851  0.00  0.00    -0.087 OA
ATOM      2  O   UNL     1      40.948 -24.977 -14.649  0.00  0.00    -0.087 OA
ATOM      3  O   UNL     1      39.453 -26.520 -14.763  0.00  0.00    -0.087 OA
ATOM      4  N   UNL     1      40.586 -26.143 -14.421  0.00  0.00    +0.260 N 
ENDROOT
TORSDOF 0
ENDMDL
MODEL 3
REMARK VINA RESULT:      -3.5      1.853      2.416
REMARK  Name = 943
REMARK  0 active torsions:
REMARK  status: ('A' for Active; 'I' for Inactive)
REMARK                            x       y       z     vdW  Elec       q    Type
REMARK                         _______ _______ _______ _____ _____    ______ ____
ROOT
ATOM      1  O   UNL     1      29.122 -22.367 -17.035  0.00  0.00    -0.087 OA
ATOM      2  O   UNL     1      27.499 -23.652 -17.623  0.00  0.00    -0.087 OA
ATOM      3  O   UNL     1      27.119 -21.589 -17.145  0.00  0.00    -0.087 OA
ATOM      4  N   UNL     1      27.913 -22.537 -17.268  0.00  0.00    +0.260 N 
ENDROOT
TORSDOF 0
ENDMDL
MODEL 4
REMARK VINA RESULT:      -3.5      1.873      2.860
REMARK  Name = 943
REMARK  0 active torsions:
REMARK  status: ('A' for Active; 'I' for Inactive)
REMARK                            x       y       z     vdW  Elec       q    Type
REMARK                         _______ _______ _______ _____ _____    ______ ____
ROOT
ATOM      1  O   UNL     1      29.147 -22.379 -17.047  0.00  0.00    -0.087 OA
ATOM      2  O   UNL     1      27.142 -21.599 -17.105  0.00  0.00    -0.087 OA
ATOM      3  O   UNL     1      27.512 -23.657 -17.613  0.00  0.00    -0.087 OA
ATOM      4  N   UNL     1      27.933 -22.545 -17.255  0.00  0.00    +0.260 N 
ENDROOT
TORSDOF 0
ENDMDL
MODEL 5
REMARK VINA RESULT:      -3.5      1.882      2.711
REMARK  Name = 943
REMARK  0 active torsions:
REMARK  status: ('A' for Active; 'I' for Inactive)
REMARK                            x       y       z     vdW  Elec       q    Type
REMARK                         _______ _______ _______ _____ _____    ______ ____
ROOT
ATOM      1  O   UNL     1      27.498 -23.612 -17.707  0.00  0.00    -0.087 OA
ATOM      2  O   UNL     1      27.169 -21.610 -16.987  0.00  0.00    -0.087 OA
ATOM      3  O   UNL     1      29.162 -22.419 -17.048  0.00  0.00    -0.087 OA
ATOM      4  N   UNL     1      27.943 -22.547 -17.247  0.00  0.00    +0.260 N 
ENDROOT
TORSDOF 0
ENDMDL
MODEL 6
REMARK VINA RESULT:      -3.3     11.799     12.159
REMARK  Name = 943
REMARK  0 active torsions:
REMARK  status: ('A' for Active; 'I' for Inactive)
REMARK                            x       y       z     vdW  Elec       q    Type
REMARK                         _______ _______ _______ _____ _____    ______ ____
ROOT
ATOM      1  O   UNL     1      36.996 -24.047 -10.846  0.00  0.00    -0.087 OA
ATOM      2  O   UNL     1      35.314 -24.608  -9.625  0.00  0.00    -0.087 OA
ATOM      3  O   UNL     1      35.009 -24.012 -11.670  0.00  0.00    -0.087 OA
ATOM      4  N   UNL     1      35.773 -24.222 -10.713  0.00  0.00    +0.260 N 
ENDROOT
TORSDOF 0
ENDMDL
MODEL 7
REMARK VINA RESULT:      -3.3      1.582      2.208
REMARK  Name = 943
REMARK  0 active torsions:
REMARK  status: ('A' for Active; 'I' for Inactive)
REMARK                            x       y       z     vdW  Elec       q    Type
REMARK                         _______ _______ _______ _____ _____    ______ ____
ROOT
ATOM      1  O   UNL     1      26.296 -22.058 -16.660  0.00  0.00    -0.087 OA
ATOM      2  O   UNL     1      28.440 -21.877 -16.716  0.00  0.00    -0.087 OA
ATOM      3  O   UNL     1      27.464 -23.455 -17.805  0.00  0.00    -0.087 OA
ATOM      4  N   UNL     1      27.400 -22.463 -17.060  0.00  0.00    +0.260 N 
ENDROOT
TORSDOF 0
ENDMDL
MODEL 8
REMARK VINA RESULT:      -3.3     11.568     12.256
REMARK  Name = 943
REMARK  0 active torsions:
REMARK  status: ('A' for Active; 'I' for Inactive)
REMARK                            x       y       z     vdW  Elec       q    Type
REMARK                         _______ _______ _______ _____ _____    ______ ____
ROOT
ATOM      1  O   UNL     1      36.719 -27.596 -16.531  0.00  0.00    -0.087 OA
ATOM      2  O   UNL     1      37.837 -27.153 -14.746  0.00  0.00    -0.087 OA
ATOM      3  O   UNL     1      36.227 -25.863 -15.355  0.00  0.00    -0.087 OA
ATOM      4  N   UNL     1      36.928 -26.871 -15.544  0.00  0.00    +0.260 N 
ENDROOT
TORSDOF 0
ENDMDL
MODEL 9
REMARK VINA RESULT:      -3.3     11.563     12.219
REMARK  Name = 943
REMARK  0 active torsions:
REMARK  status: ('A' for Active; 'I' for Inactive)
REMARK                            x       y       z     vdW  Elec       q    Type
REMARK                         _______ _______ _______ _____ _____    ______ ____
ROOT
ATOM      1  O   UNL     1      37.841 -27.134 -14.751  0.00  0.00    -0.087 OA
ATOM      2  O   UNL     1      36.706 -27.597 -16.520  0.00  0.00    -0.087 OA
ATOM      3  O   UNL     1      36.239 -25.839 -15.370  0.00  0.00    -0.087 OA
ATOM      4  N   UNL     1      36.929 -26.857 -15.547  0.00  0.00    +0.260 N 
ENDROOT
TORSDOF 0
ENDMDL
