MODEL 1
REMARK VINA RESULT:     -10.9      0.000      0.000
REMARK  Name = 56960912
REMARK  4 active torsions:
REMARK  status: ('A' for Active; 'I' for Inactive)
REMARK    1  A    between atoms: C_2  and  C_12
REMARK    2  A    between atoms: C_9  and  O_22
REMARK    3  A    between atoms: C_15  and  C_19
REMARK    4  A    between atoms: C_19  and  O_20
REMARK                            x       y       z     vdW  Elec       q    Type
REMARK                         _______ _______ _______ _____ _____    ______ ____
ROOT
ATOM      1  N   UNL     1      33.993 -19.256 -21.396  0.00  0.00    -0.406 NA
ATOM      2  C   UNL     1      35.024 -18.541 -21.904  0.00  0.00    +0.131 C 
ATOM      3  C   UNL     1      35.581 -20.454 -20.037  0.00  0.00    +0.099 C 
ATOM      4  C   UNL     1      34.265 -20.200 -20.475  0.00  0.00    +0.117 C 
ATOM      5  C   UNL     1      36.343 -18.718 -21.536  0.00  0.00    +0.028 C 
ATOM      6  C   UNL     1      36.619 -19.692 -20.588  0.00  0.00    -0.012 C 
ATOM      7  C   UNL     1      35.829 -21.448 -19.075  0.00  0.00    +0.022 C 
ATOM      8  C   UNL     1      33.235 -20.958 -19.927  0.00  0.00    +0.031 C 
ATOM      9  C   UNL     1      34.779 -22.191 -18.543  0.00  0.00    +0.130 C 
ATOM     10  C   UNL     1      33.480 -21.945 -18.970  0.00  0.00    +0.039 C 
ENDROOT
BRANCH   2  12
ATOM     11 CL   UNL     1      34.354 -15.715 -20.872  0.00  0.00    -0.082 Cl
ATOM     12  C   UNL     1      34.651 -17.549 -22.883  0.00  0.00    +0.040 C 
ATOM     13  C   UNL     1      34.330 -16.241 -22.521  0.00  0.00    +0.060 C 
ATOM     14  C   UNL     1      34.617 -17.929 -24.225  0.00  0.00    +0.004 C 
ATOM     15  C   UNL     1      33.941 -15.693 -24.842  0.00  0.00    +0.076 C 
ATOM     16  C   UNL     1      33.975 -15.313 -23.500  0.00  0.00    +0.018 C 
ATOM     17  C   UNL     1      34.263 -17.001 -25.205  0.00  0.00    +0.007 C 
BRANCH  15  19
ATOM     18  O   UNL     1      33.509 -14.952 -27.075  0.00  0.00    -0.245 OA
ATOM     19  C   UNL     1      33.573 -14.725 -25.863  0.00  0.00    +0.338 C 
BRANCH  19  20
ATOM     20  O   UNL     1      33.293 -13.499 -25.341  0.00  0.00    -0.477 OA
ATOM     21  H   UNL     1      32.522 -13.040 -25.611  0.00  0.00    +0.295 HD
ENDBRANCH  19  20
ENDBRANCH  15  19
ENDBRANCH   2  12
BRANCH   9  22
ATOM     22  O   UNL     1      35.024 -23.152 -17.611  0.00  0.00    -0.506 OA
ATOM     23  H   UNL     1      34.549 -23.959 -17.635  0.00  0.00    +0.292 HD
ENDBRANCH   9  22
TORSDOF 4
ENDMDL
MODEL 2
REMARK VINA RESULT:     -10.6      1.821      7.499
REMARK  Name = 56960912
REMARK  4 active torsions:
REMARK  status: ('A' for Active; 'I' for Inactive)
REMARK    1  A    between atoms: C_2  and  C_12
REMARK    2  A    between atoms: C_9  and  O_22
REMARK    3  A    between atoms: C_15  and  C_19
REMARK    4  A    between atoms: C_19  and  O_20
REMARK                            x       y       z     vdW  Elec       q    Type
REMARK                         _______ _______ _______ _____ _____    ______ ____
ROOT
ATOM      1  N   UNL     1      33.687 -16.969 -21.217  0.00  0.00    -0.406 NA
ATOM      2  C   UNL     1      34.368 -17.987 -21.793  0.00  0.00    +0.131 C 
ATOM      3  C   UNL     1      34.234 -15.611 -23.130  0.00  0.00    +0.099 C 
ATOM      4  C   UNL     1      33.620 -15.796 -21.874  0.00  0.00    +0.117 C 
ATOM      5  C   UNL     1      35.000 -17.900 -23.018  0.00  0.00    +0.028 C 
ATOM      6  C   UNL     1      34.928 -16.690 -23.692  0.00  0.00    -0.012 C 
ATOM      7  C   UNL     1      34.144 -14.372 -23.788  0.00  0.00    +0.022 C 
ATOM      8  C   UNL     1      32.931 -14.723 -21.317  0.00  0.00    +0.031 C 
ATOM      9  C   UNL     1      33.447 -13.316 -23.208  0.00  0.00    +0.130 C 
ATOM     10  C   UNL     1      32.840 -13.492 -21.971  0.00  0.00    +0.039 C 
ENDROOT
BRANCH   2  12
ATOM     11 CL   UNL     1      37.129 -19.109 -21.008  0.00  0.00    -0.082 Cl
ATOM     12  C   UNL     1      34.394 -19.211 -21.028  0.00  0.00    +0.040 C 
ATOM     13  C   UNL     1      35.591 -19.801 -20.622  0.00  0.00    +0.060 C 
ATOM     14  C   UNL     1      33.176 -19.804 -20.695  0.00  0.00    +0.004 C 
ATOM     15  C   UNL     1      34.353 -21.577 -19.550  0.00  0.00    +0.076 C 
ATOM     16  C   UNL     1      35.571 -20.984 -19.884  0.00  0.00    +0.018 C 
ATOM     17  C   UNL     1      33.155 -20.987 -19.955  0.00  0.00    +0.007 C 
BRANCH  15  19
ATOM     18  O   UNL     1      34.639 -22.914 -17.587  0.00  0.00    -0.245 OA
ATOM     19  C   UNL     1      34.331 -22.809 -18.779  0.00  0.00    +0.338 C 
BRANCH  19  20
ATOM     20  O   UNL     1      33.926 -23.879 -19.517  0.00  0.00    -0.477 OA
ATOM     21  H   UNL     1      34.057 -23.884 -20.446  0.00  0.00    +0.295 HD
ENDBRANCH  19  20
ENDBRANCH  15  19
ENDBRANCH   2  12
BRANCH   9  22
ATOM     22  O   UNL     1      33.362 -12.118 -23.848  0.00  0.00    -0.506 OA
ATOM     23  H   UNL     1      33.020 -12.076 -24.719  0.00  0.00    +0.292 HD
ENDBRANCH   9  22
TORSDOF 4
ENDMDL
MODEL 3
REMARK VINA RESULT:     -10.3      1.504      1.996
REMARK  Name = 56960912
REMARK  4 active torsions:
REMARK  status: ('A' for Active; 'I' for Inactive)
REMARK    1  A    between atoms: C_2  and  C_12
REMARK    2  A    between atoms: C_9  and  O_22
REMARK    3  A    between atoms: C_15  and  C_19
REMARK    4  A    between atoms: C_19  and  O_20
REMARK                            x       y       z     vdW  Elec       q    Type
REMARK                         _______ _______ _______ _____ _____    ______ ____
ROOT
ATOM      1  N   UNL     1      33.726 -18.490 -21.268  0.00  0.00    -0.406 NA
ATOM      2  C   UNL     1      34.804 -17.833 -21.755  0.00  0.00    +0.131 C 
ATOM      3  C   UNL     1      35.218 -20.195 -20.449  0.00  0.00    +0.099 C 
ATOM      4  C   UNL     1      33.927 -19.654 -20.623  0.00  0.00    +0.117 C 
ATOM      5  C   UNL     1      36.104 -18.283 -21.633  0.00  0.00    +0.028 C 
ATOM      6  C   UNL     1      36.308 -19.483 -20.968  0.00  0.00    -0.012 C 
ATOM      7  C   UNL     1      35.391 -21.414 -19.771  0.00  0.00    +0.022 C 
ATOM      8  C   UNL     1      32.846 -20.362 -20.107  0.00  0.00    +0.031 C 
ATOM      9  C   UNL     1      34.292 -22.099 -19.264  0.00  0.00    +0.130 C 
ATOM     10  C   UNL     1      33.017 -21.573 -19.432  0.00  0.00    +0.039 C 
ENDROOT
BRANCH   2  12
ATOM     11 CL   UNL     1      34.447 -17.939 -24.815  0.00  0.00    -0.082 Cl
ATOM     12  C   UNL     1      34.507 -16.594 -22.432  0.00  0.00    +0.040 C 
ATOM     13  C   UNL     1      34.326 -16.533 -23.813  0.00  0.00    +0.060 C 
ATOM     14  C   UNL     1      34.400 -15.434 -21.663  0.00  0.00    +0.004 C 
ATOM     15  C   UNL     1      33.933 -14.154 -23.659  0.00  0.00    +0.076 C 
ATOM     16  C   UNL     1      34.039 -15.314 -24.427  0.00  0.00    +0.018 C 
ATOM     17  C   UNL     1      34.113 -14.214 -22.276  0.00  0.00    +0.007 C 
BRANCH  15  19
ATOM     18  O   UNL     1      33.897 -12.590 -25.468  0.00  0.00    -0.245 OA
ATOM     19  C   UNL     1      33.633 -12.883 -24.298  0.00  0.00    +0.338 C 
BRANCH  19  20
ATOM     20  O   UNL     1      33.008 -12.012 -23.458  0.00  0.00    -0.477 OA
ATOM     21  H   UNL     1      33.415 -11.769 -22.649  0.00  0.00    +0.295 HD
ENDBRANCH  19  20
ENDBRANCH  15  19
ENDBRANCH   2  12
BRANCH   9  22
ATOM     22  O   UNL     1      34.464 -23.279 -18.608  0.00  0.00    -0.506 OA
ATOM     23  H   UNL     1      33.862 -23.984 -18.744  0.00  0.00    +0.292 HD
ENDBRANCH   9  22
TORSDOF 4
ENDMDL
MODEL 4
REMARK VINA RESULT:     -10.1      1.485      7.576
REMARK  Name = 56960912
REMARK  4 active torsions:
REMARK  status: ('A' for Active; 'I' for Inactive)
REMARK    1  A    between atoms: C_2  and  C_12
REMARK    2  A    between atoms: C_9  and  O_22
REMARK    3  A    between atoms: C_15  and  C_19
REMARK    4  A    between atoms: C_19  and  O_20
REMARK                            x       y       z     vdW  Elec       q    Type
REMARK                         _______ _______ _______ _____ _____    ______ ____
ROOT
ATOM      1  N   UNL     1      34.488 -17.376 -22.094  0.00  0.00    -0.406 NA
ATOM      2  C   UNL     1      34.835 -18.641 -22.428  0.00  0.00    +0.131 C 
ATOM      3  C   UNL     1      34.225 -16.899 -24.440  0.00  0.00    +0.099 C 
ATOM      4  C   UNL     1      34.187 -16.515 -23.084  0.00  0.00    +0.117 C 
ATOM      5  C   UNL     1      34.900 -19.107 -23.726  0.00  0.00    +0.028 C 
ATOM      6  C   UNL     1      34.589 -18.218 -24.744  0.00  0.00    -0.012 C 
ATOM      7  C   UNL     1      33.905 -15.974 -25.449  0.00  0.00    +0.022 C 
ATOM      8  C   UNL     1      33.825 -15.205 -22.784  0.00  0.00    +0.031 C 
ATOM      9  C   UNL     1      33.546 -14.670 -25.120  0.00  0.00    +0.130 C 
ATOM     10  C   UNL     1      33.506 -14.286 -23.785  0.00  0.00    +0.039 C 
ENDROOT
BRANCH   2  12
ATOM     11 CL   UNL     1      32.482 -20.104 -21.079  0.00  0.00    -0.082 Cl
ATOM     12  C   UNL     1      35.142 -19.502 -21.312  0.00  0.00    +0.040 C 
ATOM     13  C   UNL     1      34.150 -20.210 -20.633  0.00  0.00    +0.060 C 
ATOM     14  C   UNL     1      36.476 -19.618 -20.917  0.00  0.00    +0.004 C 
ATOM     15  C   UNL     1      35.824 -21.148 -19.164  0.00  0.00    +0.076 C 
ATOM     16  C   UNL     1      34.491 -21.032 -19.558  0.00  0.00    +0.018 C 
ATOM     17  C   UNL     1      36.817 -20.441 -19.843  0.00  0.00    +0.007 C 
BRANCH  15  19
ATOM     18  O   UNL     1      37.267 -22.006 -17.460  0.00  0.00    -0.245 OA
ATOM     19  C   UNL     1      36.179 -22.006 -18.045  0.00  0.00    +0.338 C 
BRANCH  19  20
ATOM     20  O   UNL     1      35.165 -22.840 -17.687  0.00  0.00    -0.477 OA
ATOM     21  H   UNL     1      35.004 -23.621 -18.180  0.00  0.00    +0.295 HD
ENDBRANCH  19  20
ENDBRANCH  15  19
ENDBRANCH   2  12
BRANCH   9  22
ATOM     22  O   UNL     1      33.236 -13.778 -26.099  0.00  0.00    -0.506 OA
ATOM     23  H   UNL     1      32.869 -14.077 -26.907  0.00  0.00    +0.292 HD
ENDBRANCH   9  22
TORSDOF 4
ENDMDL
MODEL 5
REMARK VINA RESULT:      -9.9      1.531      7.544
REMARK  Name = 56960912
REMARK  4 active torsions:
REMARK  status: ('A' for Active; 'I' for Inactive)
REMARK    1  A    between atoms: C_2  and  C_12
REMARK    2  A    between atoms: C_9  and  O_22
REMARK    3  A    between atoms: C_15  and  C_19
REMARK    4  A    between atoms: C_19  and  O_20
REMARK                            x       y       z     vdW  Elec       q    Type
REMARK                         _______ _______ _______ _____ _____    ______ ____
ROOT
ATOM      1  N   UNL     1      34.093 -17.449 -23.120  0.00  0.00    -0.406 NA
ATOM      2  C   UNL     1      34.301 -17.413 -21.783  0.00  0.00    +0.131 C 
ATOM      3  C   UNL     1      34.071 -15.039 -23.113  0.00  0.00    +0.099 C 
ATOM      4  C   UNL     1      33.979 -16.280 -23.778  0.00  0.00    +0.117 C 
ATOM      5  C   UNL     1      34.405 -16.249 -21.048  0.00  0.00    +0.028 C 
ATOM      6  C   UNL     1      34.287 -15.047 -21.729  0.00  0.00    -0.012 C 
ATOM      7  C   UNL     1      33.947 -13.838 -23.832  0.00  0.00    +0.022 C 
ATOM      8  C   UNL     1      33.764 -16.271 -25.153  0.00  0.00    +0.031 C 
ATOM      9  C   UNL     1      33.733 -13.859 -25.207  0.00  0.00    +0.130 C 
ATOM     10  C   UNL     1      33.641 -15.078 -25.868  0.00  0.00    +0.039 C 
ENDROOT
BRANCH   2  12
ATOM     11 CL   UNL     1      37.111 -18.665 -21.609  0.00  0.00    -0.082 Cl
ATOM     12  C   UNL     1      34.413 -18.705 -21.151  0.00  0.00    +0.040 C 
ATOM     13  C   UNL     1      35.639 -19.358 -21.021  0.00  0.00    +0.060 C 
ATOM     14  C   UNL     1      33.250 -19.301 -20.662  0.00  0.00    +0.004 C 
ATOM     15  C   UNL     1      34.539 -21.203 -19.913  0.00  0.00    +0.076 C 
ATOM     16  C   UNL     1      35.702 -20.607 -20.402  0.00  0.00    +0.018 C 
ATOM     17  C   UNL     1      33.313 -20.550 -20.043  0.00  0.00    +0.007 C 
BRANCH  15  19
ATOM     18  O   UNL     1      34.021 -23.523 -19.648  0.00  0.00    -0.245 OA
ATOM     19  C   UNL     1      34.606 -22.503 -19.267  0.00  0.00    +0.338 C 
BRANCH  19  20
ATOM     20  O   UNL     1      35.402 -22.496 -18.162  0.00  0.00    -0.477 OA
ATOM     21  H   UNL     1      36.291 -22.206 -18.228  0.00  0.00    +0.295 HD
ENDBRANCH  19  20
ENDBRANCH  15  19
ENDBRANCH   2  12
BRANCH   9  22
ATOM     22  O   UNL     1      33.614 -12.694 -25.899  0.00  0.00    -0.506 OA
ATOM     23  H   UNL     1      34.296 -12.053 -25.860  0.00  0.00    +0.292 HD
ENDBRANCH   9  22
TORSDOF 4
ENDMDL
MODEL 6
REMARK VINA RESULT:      -9.6      8.213      9.543
REMARK  Name = 56960912
REMARK  4 active torsions:
REMARK  status: ('A' for Active; 'I' for Inactive)
REMARK    1  A    between atoms: C_2  and  C_12
REMARK    2  A    between atoms: C_9  and  O_22
REMARK    3  A    between atoms: C_15  and  C_19
REMARK    4  A    between atoms: C_19  and  O_20
REMARK                            x       y       z     vdW  Elec       q    Type
REMARK                         _______ _______ _______ _____ _____    ______ ____
ROOT
ATOM      1  N   UNL     1      35.404 -24.752 -15.280  0.00  0.00    -0.406 NA
ATOM      2  C   UNL     1      34.993 -23.507 -15.616  0.00  0.00    +0.131 C 
ATOM      3  C   UNL     1      37.672 -23.939 -15.317  0.00  0.00    +0.099 C 
ATOM      4  C   UNL     1      36.724 -24.968 -15.132  0.00  0.00    +0.117 C 
ATOM      5  C   UNL     1      35.844 -22.439 -15.817  0.00  0.00    +0.028 C 
ATOM      6  C   UNL     1      37.204 -22.665 -15.663  0.00  0.00    -0.012 C 
ATOM      7  C   UNL     1      39.043 -24.201 -15.155  0.00  0.00    +0.022 C 
ATOM      8  C   UNL     1      37.190 -26.233 -14.788  0.00  0.00    +0.031 C 
ATOM      9  C   UNL     1      39.481 -25.476 -14.809  0.00  0.00    +0.130 C 
ATOM     10  C   UNL     1      38.553 -26.493 -14.626  0.00  0.00    +0.039 C 
ENDROOT
BRANCH   2  12
ATOM     11 CL   UNL     1      33.893 -22.968 -18.444  0.00  0.00    -0.082 Cl
ATOM     12  C   UNL     1      33.564 -23.356 -15.754  0.00  0.00    +0.040 C 
ATOM     13  C   UNL     1      32.966 -23.110 -16.990  0.00  0.00    +0.060 C 
ATOM     14  C   UNL     1      32.776 -23.463 -14.608  0.00  0.00    +0.004 C 
ATOM     15  C   UNL     1      30.793 -23.078 -15.933  0.00  0.00    +0.076 C 
ATOM     16  C   UNL     1      31.580 -22.971 -17.080  0.00  0.00    +0.018 C 
ATOM     17  C   UNL     1      31.391 -23.324 -14.697  0.00  0.00    +0.007 C 
BRANCH  15  19
ATOM     18  O   UNL     1      28.522 -23.572 -15.367  0.00  0.00    -0.245 OA
ATOM     19  C   UNL     1      29.349 -22.934 -16.026  0.00  0.00    +0.338 C 
BRANCH  19  20
ATOM     20  O   UNL     1      28.977 -21.997 -16.941  0.00  0.00    -0.477 OA
ATOM     21  H   UNL     1      28.416 -22.235 -17.653  0.00  0.00    +0.295 HD
ENDBRANCH  19  20
ENDBRANCH  15  19
ENDBRANCH   2  12
BRANCH   9  22
ATOM     22  O   UNL     1      40.810 -25.724 -14.653  0.00  0.00    -0.506 OA
ATOM     23  H   UNL     1      41.400 -25.019 -14.476  0.00  0.00    +0.292 HD
ENDBRANCH   9  22
TORSDOF 4
ENDMDL
MODEL 7
REMARK VINA RESULT:      -9.5      4.783      9.122
REMARK  Name = 56960912
REMARK  4 active torsions:
REMARK  status: ('A' for Active; 'I' for Inactive)
REMARK    1  A    between atoms: C_2  and  C_12
REMARK    2  A    between atoms: C_9  and  O_22
REMARK    3  A    between atoms: C_15  and  C_19
REMARK    4  A    between atoms: C_19  and  O_20
REMARK                            x       y       z     vdW  Elec       q    Type
REMARK                         _______ _______ _______ _____ _____    ______ ____
ROOT
ATOM      1  N   UNL     1      34.148 -11.803 -23.926  0.00  0.00    -0.406 NA
ATOM      2  C   UNL     1      33.346 -12.745 -23.377  0.00  0.00    +0.131 C 
ATOM      3  C   UNL     1      32.673 -10.121 -23.031  0.00  0.00    +0.099 C 
ATOM      4  C   UNL     1      33.819 -10.509 -23.757  0.00  0.00    +0.117 C 
ATOM      5  C   UNL     1      32.206 -12.462 -22.651  0.00  0.00    +0.028 C 
ATOM      6  C   UNL     1      31.870 -11.127 -22.479  0.00  0.00    -0.012 C 
ATOM      7  C   UNL     1      32.360  -8.760 -22.875  0.00  0.00    +0.022 C 
ATOM      8  C   UNL     1      34.617  -9.509 -24.304  0.00  0.00    +0.031 C 
ATOM      9  C   UNL     1      33.176  -7.781 -23.433  0.00  0.00    +0.130 C 
ATOM     10  C   UNL     1      34.306  -8.156 -24.149  0.00  0.00    +0.039 C 
ENDROOT
BRANCH   2  12
ATOM     11 CL   UNL     1      32.667 -14.006 -26.106  0.00  0.00    -0.082 Cl
ATOM     12  C   UNL     1      33.766 -14.107 -23.601  0.00  0.00    +0.040 C 
ATOM     13  C   UNL     1      33.509 -14.769 -24.802  0.00  0.00    +0.060 C 
ATOM     14  C   UNL     1      34.448 -14.763 -22.576  0.00  0.00    +0.004 C 
ATOM     15  C   UNL     1      34.616 -16.742 -23.951  0.00  0.00    +0.076 C 
ATOM     16  C   UNL     1      33.933 -16.087 -24.977  0.00  0.00    +0.018 C 
ATOM     17  C   UNL     1      34.874 -16.080 -22.750  0.00  0.00    +0.007 C 
BRANCH  15  19
ATOM     18  O   UNL     1      34.528 -18.946 -24.877  0.00  0.00    -0.245 OA
ATOM     19  C   UNL     1      35.059 -18.114 -24.134  0.00  0.00    +0.338 C 
BRANCH  19  20
ATOM     20  O   UNL     1      36.156 -18.412 -23.384  0.00  0.00    -0.477 OA
ATOM     21  H   UNL     1      36.796 -19.014 -23.709  0.00  0.00    +0.295 HD
ENDBRANCH  19  20
ENDBRANCH  15  19
ENDBRANCH   2  12
BRANCH   9  22
ATOM     22  O   UNL     1      32.868  -6.464 -23.279  0.00  0.00    -0.506 OA
ATOM     23  H   UNL     1      33.550  -5.823 -23.256  0.00  0.00    +0.292 HD
ENDBRANCH   9  22
TORSDOF 4
ENDMDL
MODEL 8
REMARK VINA RESULT:      -9.5      8.397     10.743
REMARK  Name = 56960912
REMARK  4 active torsions:
REMARK  status: ('A' for Active; 'I' for Inactive)
REMARK    1  A    between atoms: C_2  and  C_12
REMARK    2  A    between atoms: C_9  and  O_22
REMARK    3  A    between atoms: C_15  and  C_19
REMARK    4  A    between atoms: C_19  and  O_20
REMARK                            x       y       z     vdW  Elec       q    Type
REMARK                         _______ _______ _______ _____ _____    ______ ____
ROOT
ATOM      1  N   UNL     1      33.793 -23.911 -14.717  0.00  0.00    -0.406 NA
ATOM      2  C   UNL     1      34.649 -23.865 -15.764  0.00  0.00    +0.131 C 
ATOM      3  C   UNL     1      32.041 -23.190 -16.207  0.00  0.00    +0.099 C 
ATOM      4  C   UNL     1      32.506 -23.578 -14.933  0.00  0.00    +0.117 C 
ATOM      5  C   UNL     1      34.287 -23.499 -17.045  0.00  0.00    +0.028 C 
ATOM      6  C   UNL     1      32.961 -23.157 -17.263  0.00  0.00    -0.012 C 
ATOM      7  C   UNL     1      30.691 -22.849 -16.396  0.00  0.00    +0.022 C 
ATOM      8  C   UNL     1      31.591 -23.611 -13.884  0.00  0.00    +0.031 C 
ATOM      9  C   UNL     1      29.798 -22.892 -15.329  0.00  0.00    +0.130 C 
ATOM     10  C   UNL     1      30.249 -23.273 -14.072  0.00  0.00    +0.039 C 
ENDROOT
BRANCH   2  12
ATOM     11 CL   UNL     1      36.840 -21.749 -16.239  0.00  0.00    -0.082 Cl
ATOM     12  C   UNL     1      36.009 -24.236 -15.453  0.00  0.00    +0.040 C 
ATOM     13  C   UNL     1      37.073 -23.352 -15.631  0.00  0.00    +0.060 C 
ATOM     14  C   UNL     1      36.244 -25.520 -14.960  0.00  0.00    +0.004 C 
ATOM     15  C   UNL     1      38.608 -25.036 -14.824  0.00  0.00    +0.076 C 
ATOM     16  C   UNL     1      38.372 -23.752 -15.317  0.00  0.00    +0.018 C 
ATOM     17  C   UNL     1      37.543 -25.920 -14.645  0.00  0.00    +0.007 C 
BRANCH  15  19
ATOM     18  O   UNL     1      40.881 -24.697 -14.163  0.00  0.00    -0.245 OA
ATOM     19  C   UNL     1      39.961 -25.452 -14.496  0.00  0.00    +0.338 C 
BRANCH  19  20
ATOM     20  O   UNL     1      40.129 -26.799 -14.591  0.00  0.00    -0.477 OA
ATOM     21  H   UNL     1      40.977 -27.153 -14.779  0.00  0.00    +0.295 HD
ENDBRANCH  19  20
ENDBRANCH  15  19
ENDBRANCH   2  12
BRANCH   9  22
ATOM     22  O   UNL     1      28.492 -22.560 -15.517  0.00  0.00    -0.506 OA
ATOM     23  H   UNL     1      28.256 -21.936 -16.174  0.00  0.00    +0.292 HD
ENDBRANCH   9  22
TORSDOF 4
ENDMDL
MODEL 9
REMARK VINA RESULT:      -9.3      4.151      6.502
REMARK  Name = 56960912
REMARK  4 active torsions:
REMARK  status: ('A' for Active; 'I' for Inactive)
REMARK    1  A    between atoms: C_2  and  C_12
REMARK    2  A    between atoms: C_9  and  O_22
REMARK    3  A    between atoms: C_15  and  C_19
REMARK    4  A    between atoms: C_19  and  O_20
REMARK                            x       y       z     vdW  Elec       q    Type
REMARK                         _______ _______ _______ _____ _____    ______ ____
ROOT
ATOM      1  N   UNL     1      34.383 -14.284 -23.529  0.00  0.00    -0.406 NA
ATOM      2  C   UNL     1      33.737 -13.521 -24.441  0.00  0.00    +0.131 C 
ATOM      3  C   UNL     1      33.987 -16.192 -24.946  0.00  0.00    +0.099 C 
ATOM      4  C   UNL     1      34.507 -15.602 -23.776  0.00  0.00    +0.117 C 
ATOM      5  C   UNL     1      33.196 -14.008 -25.614  0.00  0.00    +0.028 C 
ATOM      6  C   UNL     1      33.327 -15.366 -25.865  0.00  0.00    -0.012 C 
ATOM      7  C   UNL     1      34.135 -17.571 -25.172  0.00  0.00    +0.022 C 
ATOM      8  C   UNL     1      35.164 -16.424 -22.864  0.00  0.00    +0.031 C 
ATOM      9  C   UNL     1      34.797 -18.369 -24.243  0.00  0.00    +0.130 C 
ATOM     10  C   UNL     1      35.312 -17.794 -23.088  0.00  0.00    +0.039 C 
ENDROOT
BRANCH   2  12
ATOM     11 CL   UNL     1      31.803 -12.730 -22.175  0.00  0.00    -0.082 Cl
ATOM     12  C   UNL     1      33.646 -12.120 -24.105  0.00  0.00    +0.040 C 
ATOM     13  C   UNL     1      32.802 -11.658 -23.095  0.00  0.00    +0.060 C 
ATOM     14  C   UNL     1      34.434 -11.219 -24.822  0.00  0.00    +0.004 C 
ATOM     15  C   UNL     1      33.532  -9.394 -23.520  0.00  0.00    +0.076 C 
ATOM     16  C   UNL     1      32.744 -10.295 -22.803  0.00  0.00    +0.018 C 
ATOM     17  C   UNL     1      34.377  -9.856 -24.529  0.00  0.00    +0.007 C 
BRANCH  15  19
ATOM     18  O   UNL     1      32.439  -7.313 -23.075  0.00  0.00    -0.245 OA
ATOM     19  C   UNL     1      33.473  -7.974 -23.214  0.00  0.00    +0.338 C 
BRANCH  19  20
ATOM     20  O   UNL     1      34.710  -7.417 -23.088  0.00  0.00    -0.477 OA
ATOM     21  H   UNL     1      34.802  -6.561 -22.717  0.00  0.00    +0.295 HD
ENDBRANCH  19  20
ENDBRANCH  15  19
ENDBRANCH   2  12
BRANCH   9  22
ATOM     22  O   UNL     1      34.938 -19.704 -24.465  0.00  0.00    -0.506 OA
ATOM     23  H   UNL     1      35.168 -20.016 -25.318  0.00  0.00    +0.292 HD
ENDBRANCH   9  22
TORSDOF 4
ENDMDL
