MODEL 1
REMARK VINA RESULT:      -8.1      0.000      0.000
REMARK  Name = 2467
REMARK  8 active torsions:
REMARK  status: ('A' for Active; 'I' for Inactive)
REMARK    1  A    between atoms: C_1  and  C_8
REMARK    2  A    between atoms: C_2  and  O_18
REMARK    3  A    between atoms: C_3  and  O_20
REMARK    4  A    between atoms: C_6  and  O_22
REMARK    5  A    between atoms: C_8  and  C_9
REMARK    6  A    between atoms: C_9  and  C_10
REMARK    7  A    between atoms: C_10  and  C_11
REMARK    8  A    between atoms: C_11  and  N_12
REMARK                            x       y       z     vdW  Elec       q    Type
REMARK                         _______ _______ _______ _____ _____    ______ ____
ROOT
ATOM      1  C   UNL     1      33.666 -23.221 -16.858  0.00  0.00    +0.103 C 
ATOM      2  C   UNL     1      34.898 -23.136 -16.247  0.00  0.00    +0.147 C 
ATOM      3  C   UNL     1      32.514 -23.516 -16.160  0.00  0.00    +0.147 C 
ATOM      4  C   UNL     1      34.983 -23.356 -14.872  0.00  0.00    +0.074 C 
ATOM      5  C   UNL     1      32.599 -23.736 -14.784  0.00  0.00    +0.074 C 
ATOM      6  C   UNL     1      33.834 -23.657 -14.141  0.00  0.00    +0.145 C 
ENDROOT
BRANCH   1   8
ATOM      7  O   UNL     1      33.860 -23.900 -19.097  0.00  0.00    -0.291 OA
ATOM      8  C   UNL     1      33.575 -22.986 -18.328  0.00  0.00    +0.179 C 
BRANCH   8   9
ATOM      9  C   UNL     1      33.151 -21.610 -18.821  0.00  0.00    +0.067 C 
BRANCH   9  10
ATOM     10  C   UNL     1      34.073 -21.043 -19.904  0.00  0.00    -0.015 C 
BRANCH  10  11
ATOM     11  C   UNL     1      33.352 -20.052 -20.820  0.00  0.00    -0.077 C 
BRANCH  11  12
ATOM     12  N   UNL     1      34.298 -19.093 -21.370  0.00  0.00    +0.387 N 
ATOM     13  C   UNL     1      35.656 -19.295 -20.867  0.00  0.00    -0.077 C 
ATOM     14  C   UNL     1      34.413 -19.194 -22.825  0.00  0.00    -0.077 C 
ATOM     15  C   UNL     1      36.504 -18.483 -21.835  0.00  0.00    -0.025 C 
ATOM     16  C   UNL     1      35.685 -18.414 -23.120  0.00  0.00    -0.025 C 
ATOM     17  H   UNL     1      33.925 -18.188 -21.086  0.00  0.00    -0.080 HD
ENDBRANCH  11  12
ENDBRANCH  10  11
ENDBRANCH   9  10
ENDBRANCH   8   9
ENDBRANCH   1   8
BRANCH   2  18
ATOM     18  O   UNL     1      36.035 -22.845 -16.942  0.00  0.00    -0.471 OA
ATOM     19  C   UNL     1      37.126 -22.307 -16.198  0.00  0.00    +0.252 C 
ENDBRANCH   2  18
BRANCH   3  20
ATOM     20  O   UNL     1      31.298 -23.599 -16.769  0.00  0.00    -0.471 OA
ATOM     21  C   UNL     1      30.189 -23.022 -16.083  0.00  0.00    +0.252 C 
ENDBRANCH   3  20
BRANCH   6  22
ATOM     22  O   UNL     1      33.917 -23.873 -12.799  0.00  0.00    -0.471 OA
ATOM     23  C   UNL     1      35.215 -24.120 -12.262  0.00  0.00    +0.252 C 
ENDBRANCH   6  22
TORSDOF 8
ENDMDL
MODEL 2
REMARK VINA RESULT:      -8.0      8.302     11.498
REMARK  Name = 2467
REMARK  8 active torsions:
REMARK  status: ('A' for Active; 'I' for Inactive)
REMARK    1  A    between atoms: C_1  and  C_8
REMARK    2  A    between atoms: C_2  and  O_18
REMARK    3  A    between atoms: C_3  and  O_20
REMARK    4  A    between atoms: C_6  and  O_22
REMARK    5  A    between atoms: C_8  and  C_9
REMARK    6  A    between atoms: C_9  and  C_10
REMARK    7  A    between atoms: C_10  and  C_11
REMARK    8  A    between atoms: C_11  and  N_12
REMARK                            x       y       z     vdW  Elec       q    Type
REMARK                         _______ _______ _______ _____ _____    ______ ____
ROOT
ATOM      1  C   UNL     1      33.619 -14.287 -23.846  0.00  0.00    +0.103 C 
ATOM      2  C   UNL     1      34.341 -15.025 -22.932  0.00  0.00    +0.147 C 
ATOM      3  C   UNL     1      33.321 -14.761 -25.106  0.00  0.00    +0.147 C 
ATOM      4  C   UNL     1      34.784 -16.296 -23.295  0.00  0.00    +0.074 C 
ATOM      5  C   UNL     1      33.765 -16.033 -25.469  0.00  0.00    +0.074 C 
ATOM      6  C   UNL     1      34.497 -16.800 -24.564  0.00  0.00    +0.145 C 
ENDROOT
BRANCH   1   8
ATOM      7  O   UNL     1      33.844 -11.953 -23.725  0.00  0.00    -0.291 OA
ATOM      8  C   UNL     1      33.145 -12.927 -23.459  0.00  0.00    +0.179 C 
BRANCH   8   9
ATOM      9  C   UNL     1      31.818 -12.800 -22.725  0.00  0.00    +0.067 C 
BRANCH   9  10
ATOM     10  C   UNL     1      31.965 -12.292 -21.288  0.00  0.00    -0.015 C 
BRANCH  10  11
ATOM     11  C   UNL     1      31.207 -10.984 -21.055  0.00  0.00    -0.077 C 
BRANCH  11  12
ATOM     12  N   UNL     1      32.110  -9.849 -21.179  0.00  0.00    +0.387 N 
ATOM     13  C   UNL     1      31.767  -8.981 -22.304  0.00  0.00    -0.077 C 
ATOM     14  C   UNL     1      32.076  -8.979 -20.003  0.00  0.00    -0.077 C 
ATOM     15  C   UNL     1      32.553  -7.712 -22.010  0.00  0.00    -0.025 C 
ATOM     16  C   UNL     1      32.760  -7.713 -20.498  0.00  0.00    -0.025 C 
ATOM     17  H   UNL     1      33.027 -10.276 -21.302  0.00  0.00    -0.080 HD
ENDBRANCH  11  12
ENDBRANCH  10  11
ENDBRANCH   9  10
ENDBRANCH   8   9
ENDBRANCH   1   8
BRANCH   2  18
ATOM     18  O   UNL     1      34.635 -14.552 -21.688  0.00  0.00    -0.471 OA
ATOM     19  C   UNL     1      34.521 -15.472 -20.604  0.00  0.00    +0.252 C 
ENDBRANCH   2  18
BRANCH   3  20
ATOM     20  O   UNL     1      32.608 -14.027 -26.006  0.00  0.00    -0.471 OA
ATOM     21  C   UNL     1      33.323 -13.491 -27.117  0.00  0.00    +0.252 C 
ENDBRANCH   3  20
BRANCH   6  22
ATOM     22  O   UNL     1      34.931 -18.041 -24.918  0.00  0.00    -0.471 OA
ATOM     23  C   UNL     1      34.920 -19.046 -23.905  0.00  0.00    +0.252 C 
ENDBRANCH   6  22
TORSDOF 8
ENDMDL
MODEL 3
REMARK VINA RESULT:      -8.0      8.295     11.554
REMARK  Name = 2467
REMARK  8 active torsions:
REMARK  status: ('A' for Active; 'I' for Inactive)
REMARK    1  A    between atoms: C_1  and  C_8
REMARK    2  A    between atoms: C_2  and  O_18
REMARK    3  A    between atoms: C_3  and  O_20
REMARK    4  A    between atoms: C_6  and  O_22
REMARK    5  A    between atoms: C_8  and  C_9
REMARK    6  A    between atoms: C_9  and  C_10
REMARK    7  A    between atoms: C_10  and  C_11
REMARK    8  A    between atoms: C_11  and  N_12
REMARK                            x       y       z     vdW  Elec       q    Type
REMARK                         _______ _______ _______ _____ _____    ______ ____
ROOT
ATOM      1  C   UNL     1      33.640 -14.278 -23.845  0.00  0.00    +0.103 C 
ATOM      2  C   UNL     1      33.338 -14.751 -25.103  0.00  0.00    +0.147 C 
ATOM      3  C   UNL     1      34.357 -15.019 -22.930  0.00  0.00    +0.147 C 
ATOM      4  C   UNL     1      33.773 -16.026 -25.465  0.00  0.00    +0.074 C 
ATOM      5  C   UNL     1      34.793 -16.295 -23.291  0.00  0.00    +0.074 C 
ATOM      6  C   UNL     1      34.500 -16.798 -24.558  0.00  0.00    +0.145 C 
ENDROOT
BRANCH   1   8
ATOM      7  O   UNL     1      33.890 -11.947 -23.704  0.00  0.00    -0.291 OA
ATOM      8  C   UNL     1      33.174 -12.915 -23.458  0.00  0.00    +0.179 C 
BRANCH   8   9
ATOM      9  C   UNL     1      31.834 -12.777 -22.751  0.00  0.00    +0.067 C 
BRANCH   9  10
ATOM     10  C   UNL     1      31.963 -12.378 -21.278  0.00  0.00    -0.015 C 
BRANCH  10  11
ATOM     11  C   UNL     1      31.210 -11.085 -20.958  0.00  0.00    -0.077 C 
BRANCH  11  12
ATOM     12  N   UNL     1      32.092  -9.938 -21.107  0.00  0.00    +0.387 N 
ATOM     13  C   UNL     1      31.734  -9.101 -22.252  0.00  0.00    -0.077 C 
ATOM     14  C   UNL     1      32.043  -9.042 -19.952  0.00  0.00    -0.077 C 
ATOM     15  C   UNL     1      32.497  -7.813 -21.986  0.00  0.00    -0.025 C 
ATOM     16  C   UNL     1      32.704  -7.776 -20.475  0.00  0.00    -0.025 C 
ATOM     17  H   UNL     1      33.017 -10.351 -21.221  0.00  0.00    -0.080 HD
ENDBRANCH  11  12
ENDBRANCH  10  11
ENDBRANCH   9  10
ENDBRANCH   8   9
ENDBRANCH   1   8
BRANCH   2  18
ATOM     18  O   UNL     1      32.628 -14.014 -26.004  0.00  0.00    -0.471 OA
ATOM     19  C   UNL     1      33.336 -13.530 -27.144  0.00  0.00    +0.252 C 
ENDBRANCH   2  18
BRANCH   3  20
ATOM     20  O   UNL     1      34.653 -14.546 -21.686  0.00  0.00    -0.471 OA
ATOM     21  C   UNL     1      34.578 -15.474 -20.606  0.00  0.00    +0.252 C 
ENDBRANCH   3  20
BRANCH   6  22
ATOM     22  O   UNL     1      34.924 -18.043 -24.911  0.00  0.00    -0.471 OA
ATOM     23  C   UNL     1      34.941 -19.036 -23.887  0.00  0.00    +0.252 C 
ENDBRANCH   6  22
TORSDOF 8
ENDMDL
MODEL 4
REMARK VINA RESULT:      -8.0      0.613      2.871
REMARK  Name = 2467
REMARK  8 active torsions:
REMARK  status: ('A' for Active; 'I' for Inactive)
REMARK    1  A    between atoms: C_1  and  C_8
REMARK    2  A    between atoms: C_2  and  O_18
REMARK    3  A    between atoms: C_3  and  O_20
REMARK    4  A    between atoms: C_6  and  O_22
REMARK    5  A    between atoms: C_8  and  C_9
REMARK    6  A    between atoms: C_9  and  C_10
REMARK    7  A    between atoms: C_10  and  C_11
REMARK    8  A    between atoms: C_11  and  N_12
REMARK                            x       y       z     vdW  Elec       q    Type
REMARK                         _______ _______ _______ _____ _____    ______ ____
ROOT
ATOM      1  C   UNL     1      33.646 -23.285 -16.738  0.00  0.00    +0.103 C 
ATOM      2  C   UNL     1      32.518 -23.593 -16.009  0.00  0.00    +0.147 C 
ATOM      3  C   UNL     1      34.890 -23.165 -16.157  0.00  0.00    +0.147 C 
ATOM      4  C   UNL     1      32.639 -23.792 -14.634  0.00  0.00    +0.074 C 
ATOM      5  C   UNL     1      35.013 -23.364 -14.781  0.00  0.00    +0.074 C 
ATOM      6  C   UNL     1      33.887 -23.677 -14.020  0.00  0.00    +0.145 C 
ENDROOT
BRANCH   1   8
ATOM      7  O   UNL     1      33.835 -23.977 -18.973  0.00  0.00    -0.291 OA
ATOM      8  C   UNL     1      33.515 -23.072 -18.209  0.00  0.00    +0.179 C 
BRANCH   8   9
ATOM      9  C   UNL     1      33.009 -21.725 -18.707  0.00  0.00    +0.067 C 
BRANCH   9  10
ATOM     10  C   UNL     1      33.874 -21.126 -19.819  0.00  0.00    -0.015 C 
BRANCH  10  11
ATOM     11  C   UNL     1      33.141 -20.033 -20.599  0.00  0.00    -0.077 C 
BRANCH  11  12
ATOM     12  N   UNL     1      34.078 -19.292 -21.431  0.00  0.00    +0.387 N 
ATOM     13  C   UNL     1      33.981 -17.847 -21.233  0.00  0.00    -0.077 C 
ATOM     14  C   UNL     1      35.472 -19.623 -21.133  0.00  0.00    -0.077 C 
ATOM     15  C   UNL     1      35.262 -17.327 -21.868  0.00  0.00    -0.025 C 
ATOM     16  C   UNL     1      36.240 -18.496 -21.806  0.00  0.00    -0.025 C 
ATOM     17  H   UNL     1      33.826 -19.557 -22.383  0.00  0.00    -0.080 HD
ENDBRANCH  11  12
ENDBRANCH  10  11
ENDBRANCH   9  10
ENDBRANCH   8   9
ENDBRANCH   1   8
BRANCH   2  18
ATOM     18  O   UNL     1      31.288 -23.709 -16.588  0.00  0.00    -0.471 OA
ATOM     19  C   UNL     1      30.210 -23.023 -15.955  0.00  0.00    +0.252 C 
ENDBRANCH   2  18
BRANCH   3  20
ATOM     20  O   UNL     1      36.003 -22.860 -16.883  0.00  0.00    -0.471 OA
ATOM     21  C   UNL     1      37.160 -22.456 -16.154  0.00  0.00    +0.252 C 
ENDBRANCH   3  20
BRANCH   6  22
ATOM     22  O   UNL     1      34.006 -23.870 -12.677  0.00  0.00    -0.471 OA
ATOM     23  C   UNL     1      35.311 -24.151 -12.176  0.00  0.00    +0.252 C 
ENDBRANCH   6  22
TORSDOF 8
ENDMDL
MODEL 5
REMARK VINA RESULT:      -7.9      8.461     12.068
REMARK  Name = 2467
REMARK  8 active torsions:
REMARK  status: ('A' for Active; 'I' for Inactive)
REMARK    1  A    between atoms: C_1  and  C_8
REMARK    2  A    between atoms: C_2  and  O_18
REMARK    3  A    between atoms: C_3  and  O_20
REMARK    4  A    between atoms: C_6  and  O_22
REMARK    5  A    between atoms: C_8  and  C_9
REMARK    6  A    between atoms: C_9  and  C_10
REMARK    7  A    between atoms: C_10  and  C_11
REMARK    8  A    between atoms: C_11  and  N_12
REMARK                            x       y       z     vdW  Elec       q    Type
REMARK                         _______ _______ _______ _____ _____    ______ ____
ROOT
ATOM      1  C   UNL     1      33.558 -14.207 -23.860  0.00  0.00    +0.103 C 
ATOM      2  C   UNL     1      33.284 -14.691 -25.120  0.00  0.00    +0.147 C 
ATOM      3  C   UNL     1      34.287 -14.925 -22.935  0.00  0.00    +0.147 C 
ATOM      4  C   UNL     1      33.761 -15.953 -25.474  0.00  0.00    +0.074 C 
ATOM      5  C   UNL     1      34.764 -16.188 -23.289  0.00  0.00    +0.074 C 
ATOM      6  C   UNL     1      34.501 -16.702 -24.558  0.00  0.00    +0.145 C 
ENDROOT
BRANCH   1   8
ATOM      7  O   UNL     1      32.020 -12.774 -22.814  0.00  0.00    -0.291 OA
ATOM      8  C   UNL     1      33.048 -12.857 -23.481  0.00  0.00    +0.179 C 
BRANCH   8   9
ATOM      9  C   UNL     1      33.812 -11.630 -23.957  0.00  0.00    +0.067 C 
BRANCH   9  10
ATOM     10  C   UNL     1      33.033 -10.324 -23.781  0.00  0.00    -0.015 C 
BRANCH  10  11
ATOM     11  C   UNL     1      33.955  -9.108 -23.670  0.00  0.00    -0.077 C 
BRANCH  11  12
ATOM     12  N   UNL     1      33.183  -7.918 -23.343  0.00  0.00    +0.387 N 
ATOM     13  C   UNL     1      31.775  -8.045 -23.714  0.00  0.00    -0.077 C 
ATOM     14  C   UNL     1      33.174  -7.636 -21.908  0.00  0.00    -0.077 C 
ATOM     15  C   UNL     1      31.116  -6.906 -22.951  0.00  0.00    -0.025 C 
ATOM     16  C   UNL     1      32.038  -6.634 -21.766  0.00  0.00    -0.025 C 
ATOM     17  H   UNL     1      33.643  -7.175 -23.868  0.00  0.00    -0.080 HD
ENDBRANCH  11  12
ENDBRANCH  10  11
ENDBRANCH   9  10
ENDBRANCH   8   9
ENDBRANCH   1   8
BRANCH   2  18
ATOM     18  O   UNL     1      32.562 -13.978 -26.031  0.00  0.00    -0.471 OA
ATOM     19  C   UNL     1      33.268 -13.474 -27.163  0.00  0.00    +0.252 C 
ENDBRANCH   2  18
BRANCH   3  20
ATOM     20  O   UNL     1      34.556 -14.441 -21.690  0.00  0.00    -0.471 OA
ATOM     21  C   UNL     1      34.498 -15.369 -20.609  0.00  0.00    +0.252 C 
ENDBRANCH   3  20
BRANCH   6  22
ATOM     22  O   UNL     1      34.966 -17.934 -24.903  0.00  0.00    -0.471 OA
ATOM     23  C   UNL     1      34.912 -18.950 -23.903  0.00  0.00    +0.252 C 
ENDBRANCH   6  22
TORSDOF 8
ENDMDL
MODEL 6
REMARK VINA RESULT:      -7.8      8.425     11.951
REMARK  Name = 2467
REMARK  8 active torsions:
REMARK  status: ('A' for Active; 'I' for Inactive)
REMARK    1  A    between atoms: C_1  and  C_8
REMARK    2  A    between atoms: C_2  and  O_18
REMARK    3  A    between atoms: C_3  and  O_20
REMARK    4  A    between atoms: C_6  and  O_22
REMARK    5  A    between atoms: C_8  and  C_9
REMARK    6  A    between atoms: C_9  and  C_10
REMARK    7  A    between atoms: C_10  and  C_11
REMARK    8  A    between atoms: C_11  and  N_12
REMARK                            x       y       z     vdW  Elec       q    Type
REMARK                         _______ _______ _______ _____ _____    ______ ____
ROOT
ATOM      1  C   UNL     1      33.565 -14.242 -23.881  0.00  0.00    +0.103 C 
ATOM      2  C   UNL     1      34.285 -14.959 -22.950  0.00  0.00    +0.147 C 
ATOM      3  C   UNL     1      33.291 -14.734 -25.140  0.00  0.00    +0.147 C 
ATOM      4  C   UNL     1      34.752 -16.228 -23.293  0.00  0.00    +0.074 C 
ATOM      5  C   UNL     1      33.758 -16.004 -25.483  0.00  0.00    +0.074 C 
ATOM      6  C   UNL     1      34.489 -16.750 -24.559  0.00  0.00    +0.145 C 
ENDROOT
BRANCH   1   8
ATOM      7  O   UNL     1      32.059 -12.788 -22.820  0.00  0.00    -0.291 OA
ATOM      8  C   UNL     1      33.066 -12.885 -23.515  0.00  0.00    +0.179 C 
BRANCH   8   9
ATOM      9  C   UNL     1      33.816 -11.668 -24.038  0.00  0.00    +0.067 C 
BRANCH   9  10
ATOM     10  C   UNL     1      33.167 -10.339 -23.641  0.00  0.00    -0.015 C 
BRANCH  10  11
ATOM     11  C   UNL     1      34.144  -9.166 -23.734  0.00  0.00    -0.077 C 
BRANCH  11  12
ATOM     12  N   UNL     1      33.685  -8.061 -22.905  0.00  0.00    +0.387 N 
ATOM     13  C   UNL     1      33.002  -7.027 -23.680  0.00  0.00    -0.077 C 
ATOM     14  C   UNL     1      32.713  -8.485 -21.898  0.00  0.00    -0.077 C 
ATOM     15  C   UNL     1      32.290  -6.211 -22.611  0.00  0.00    -0.025 C 
ATOM     16  C   UNL     1      32.104  -7.169 -21.438  0.00  0.00    -0.025 C 
ATOM     17  H   UNL     1      34.538  -7.704 -22.475  0.00  0.00    -0.080 HD
ENDBRANCH  11  12
ENDBRANCH  10  11
ENDBRANCH   9  10
ENDBRANCH   8   9
ENDBRANCH   1   8
BRANCH   2  18
ATOM     18  O   UNL     1      34.555 -14.468 -21.707  0.00  0.00    -0.471 OA
ATOM     19  C   UNL     1      34.571 -15.406 -20.632  0.00  0.00    +0.252 C 
ENDBRANCH   2  18
BRANCH   3  20
ATOM     20  O   UNL     1      32.579 -14.021 -26.057  0.00  0.00    -0.471 OA
ATOM     21  C   UNL     1      33.286 -13.551 -27.203  0.00  0.00    +0.252 C 
ENDBRANCH   3  20
BRANCH   6  22
ATOM     22  O   UNL     1      34.946 -17.988 -24.894  0.00  0.00    -0.471 OA
ATOM     23  C   UNL     1      34.912 -18.988 -23.877  0.00  0.00    +0.252 C 
ENDBRANCH   6  22
TORSDOF 8
ENDMDL
MODEL 7
REMARK VINA RESULT:      -7.8      7.081     11.130
REMARK  Name = 2467
REMARK  8 active torsions:
REMARK  status: ('A' for Active; 'I' for Inactive)
REMARK    1  A    between atoms: C_1  and  C_8
REMARK    2  A    between atoms: C_2  and  O_18
REMARK    3  A    between atoms: C_3  and  O_20
REMARK    4  A    between atoms: C_6  and  O_22
REMARK    5  A    between atoms: C_8  and  C_9
REMARK    6  A    between atoms: C_9  and  C_10
REMARK    7  A    between atoms: C_10  and  C_11
REMARK    8  A    between atoms: C_11  and  N_12
REMARK                            x       y       z     vdW  Elec       q    Type
REMARK                         _______ _______ _______ _____ _____    ______ ____
ROOT
ATOM      1  C   UNL     1      33.177 -13.491 -23.464  0.00  0.00    +0.103 C 
ATOM      2  C   UNL     1      32.395 -13.617 -22.336  0.00  0.00    +0.147 C 
ATOM      3  C   UNL     1      33.474 -12.265 -24.022  0.00  0.00    +0.147 C 
ATOM      4  C   UNL     1      31.888 -12.465 -21.736  0.00  0.00    +0.074 C 
ATOM      5  C   UNL     1      32.967 -11.112 -23.422  0.00  0.00    +0.074 C 
ATOM      6  C   UNL     1      32.173 -11.212 -22.280  0.00  0.00    +0.145 C 
ENDROOT
BRANCH   1   8
ATOM      7  O   UNL     1      33.209 -15.128 -25.146  0.00  0.00    -0.291 OA
ATOM      8  C   UNL     1      33.719 -14.723 -24.105  0.00  0.00    +0.179 C 
BRANCH   8   9
ATOM      9  C   UNL     1      34.875 -15.447 -23.430  0.00  0.00    +0.067 C 
BRANCH   9  10
ATOM     10  C   UNL     1      34.669 -16.961 -23.333  0.00  0.00    -0.015 C 
BRANCH  10  11
ATOM     11  C   UNL     1      35.685 -17.627 -22.403  0.00  0.00    -0.077 C 
BRANCH  11  12
ATOM     12  N   UNL     1      35.168 -18.899 -21.919  0.00  0.00    +0.387 N 
ATOM     13  C   UNL     1      36.010 -19.485 -20.878  0.00  0.00    -0.077 C 
ATOM     14  C   UNL     1      33.845 -18.768 -21.309  0.00  0.00    -0.077 C 
ATOM     15  C   UNL     1      35.110 -20.549 -20.269  0.00  0.00    -0.025 C 
ATOM     16  C   UNL     1      33.687 -20.080 -20.556  0.00  0.00    -0.025 C 
ATOM     17  H   UNL     1      35.140 -19.486 -22.752  0.00  0.00    -0.080 HD
ENDBRANCH  11  12
ENDBRANCH  10  11
ENDBRANCH   9  10
ENDBRANCH   8   9
ENDBRANCH   1   8
BRANCH   2  18
ATOM     18  O   UNL     1      32.103 -14.831 -21.788  0.00  0.00    -0.471 OA
ATOM     19  C   UNL     1      32.628 -15.098 -20.489  0.00  0.00    +0.252 C 
ENDBRANCH   2  18
BRANCH   3  20
ATOM     20  O   UNL     1      34.247 -12.145 -25.137  0.00  0.00    -0.471 OA
ATOM     21  C   UNL     1      34.778 -10.852 -25.422  0.00  0.00    +0.252 C 
ENDBRANCH   3  20
BRANCH   6  22
ATOM     22  O   UNL     1      31.677 -10.087 -21.695  0.00  0.00    -0.471 OA
ATOM     23  C   UNL     1      31.541  -8.932 -22.522  0.00  0.00    +0.252 C 
ENDBRANCH   6  22
TORSDOF 8
ENDMDL
MODEL 8
REMARK VINA RESULT:      -7.7      1.021      2.945
REMARK  Name = 2467
REMARK  8 active torsions:
REMARK  status: ('A' for Active; 'I' for Inactive)
REMARK    1  A    between atoms: C_1  and  C_8
REMARK    2  A    between atoms: C_2  and  O_18
REMARK    3  A    between atoms: C_3  and  O_20
REMARK    4  A    between atoms: C_6  and  O_22
REMARK    5  A    between atoms: C_8  and  C_9
REMARK    6  A    between atoms: C_9  and  C_10
REMARK    7  A    between atoms: C_10  and  C_11
REMARK    8  A    between atoms: C_11  and  N_12
REMARK                            x       y       z     vdW  Elec       q    Type
REMARK                         _______ _______ _______ _____ _____    ______ ____
ROOT
ATOM      1  C   UNL     1      34.200 -22.972 -17.254  0.00  0.00    +0.103 C 
ATOM      2  C   UNL     1      33.253 -23.332 -16.319  0.00  0.00    +0.147 C 
ATOM      3  C   UNL     1      35.514 -22.728 -16.917  0.00  0.00    +0.147 C 
ATOM      4  C   UNL     1      33.639 -23.454 -14.984  0.00  0.00    +0.074 C 
ATOM      5  C   UNL     1      35.900 -22.849 -15.581  0.00  0.00    +0.074 C 
ATOM      6  C   UNL     1      34.962 -23.211 -14.615  0.00  0.00    +0.145 C 
ENDROOT
BRANCH   1   8
ATOM      7  O   UNL     1      33.889 -23.816 -19.423  0.00  0.00    -0.291 OA
ATOM      8  C   UNL     1      33.787 -22.842 -18.681  0.00  0.00    +0.179 C 
BRANCH   8   9
ATOM      9  C   UNL     1      33.275 -21.495 -19.171  0.00  0.00    +0.067 C 
BRANCH   9  10
ATOM     10  C   UNL     1      34.271 -20.757 -20.070  0.00  0.00    -0.015 C 
BRANCH  10  11
ATOM     11  C   UNL     1      33.604 -19.649 -20.887  0.00  0.00    -0.077 C 
BRANCH  11  12
ATOM     12  N   UNL     1      34.605 -18.904 -21.636  0.00  0.00    +0.387 N 
ATOM     13  C   UNL     1      34.616 -19.253 -23.056  0.00  0.00    -0.077 C 
ATOM     14  C   UNL     1      34.367 -17.461 -21.602  0.00  0.00    -0.077 C 
ATOM     15  C   UNL     1      35.416 -18.120 -23.681  0.00  0.00    -0.025 C 
ATOM     16  C   UNL     1      35.256 -16.943 -22.723  0.00  0.00    -0.025 C 
ATOM     17  H   UNL     1      35.485 -19.149 -21.183  0.00  0.00    -0.080 HD
ENDBRANCH  11  12
ENDBRANCH  10  11
ENDBRANCH   9  10
ENDBRANCH   8   9
ENDBRANCH   1   8
BRANCH   2  18
ATOM     18  O   UNL     1      31.954 -23.572 -16.656  0.00  0.00    -0.471 OA
ATOM     19  C   UNL     1      31.014 -23.657 -15.587  0.00  0.00    +0.252 C 
ENDBRANCH   2  18
BRANCH   3  20
ATOM     20  O   UNL     1      36.446 -22.372 -17.845  0.00  0.00    -0.471 OA
ATOM     21  C   UNL     1      37.109 -21.124 -17.652  0.00  0.00    +0.252 C 
ENDBRANCH   3  20
BRANCH   6  22
ATOM     22  O   UNL     1      35.338 -23.329 -13.312  0.00  0.00    -0.471 OA
ATOM     23  C   UNL     1      34.859 -24.468 -12.599  0.00  0.00    +0.252 C 
ENDBRANCH   6  22
TORSDOF 8
ENDMDL
MODEL 9
REMARK VINA RESULT:      -7.6      1.576      2.322
REMARK  Name = 2467
REMARK  8 active torsions:
REMARK  status: ('A' for Active; 'I' for Inactive)
REMARK    1  A    between atoms: C_1  and  C_8
REMARK    2  A    between atoms: C_2  and  O_18
REMARK    3  A    between atoms: C_3  and  O_20
REMARK    4  A    between atoms: C_6  and  O_22
REMARK    5  A    between atoms: C_8  and  C_9
REMARK    6  A    between atoms: C_9  and  C_10
REMARK    7  A    between atoms: C_10  and  C_11
REMARK    8  A    between atoms: C_11  and  N_12
REMARK                            x       y       z     vdW  Elec       q    Type
REMARK                         _______ _______ _______ _____ _____    ______ ____
ROOT
ATOM      1  C   UNL     1      34.855 -22.576 -17.840  0.00  0.00    +0.103 C 
ATOM      2  C   UNL     1      36.132 -22.107 -18.059  0.00  0.00    +0.147 C 
ATOM      3  C   UNL     1      34.437 -23.030 -16.607  0.00  0.00    +0.147 C 
ATOM      4  C   UNL     1      37.035 -22.091 -16.996  0.00  0.00    +0.074 C 
ATOM      5  C   UNL     1      35.339 -23.014 -15.542  0.00  0.00    +0.074 C 
ATOM      6  C   UNL     1      36.638 -22.545 -15.737  0.00  0.00    +0.145 C 
ENDROOT
BRANCH   1   8
ATOM      7  O   UNL     1      33.798 -23.605 -19.666  0.00  0.00    -0.291 OA
ATOM      8  C   UNL     1      33.890 -22.593 -18.977  0.00  0.00    +0.179 C 
BRANCH   8   9
ATOM      9  C   UNL     1      33.069 -21.342 -19.255  0.00  0.00    +0.067 C 
BRANCH   9  10
ATOM     10  C   UNL     1      33.334 -20.736 -20.636  0.00  0.00    -0.015 C 
BRANCH  10  11
ATOM     11  C   UNL     1      33.282 -19.207 -20.618  0.00  0.00    -0.077 C 
BRANCH  11  12
ATOM     12  N   UNL     1      34.421 -18.655 -21.338  0.00  0.00    +0.387 N 
ATOM     13  C   UNL     1      34.627 -19.296 -22.636  0.00  0.00    -0.077 C 
ATOM     14  C   UNL     1      34.255 -17.233 -21.638  0.00  0.00    -0.077 C 
ATOM     15  C   UNL     1      35.568 -18.336 -23.346  0.00  0.00    -0.025 C 
ATOM     16  C   UNL     1      35.327 -16.981 -22.687  0.00  0.00    -0.025 C 
ATOM     17  H   UNL     1      35.209 -18.816 -20.711  0.00  0.00    -0.080 HD
ENDBRANCH  11  12
ENDBRANCH  10  11
ENDBRANCH   9  10
ENDBRANCH   8   9
ENDBRANCH   1   8
BRANCH   2  18
ATOM     18  O   UNL     1      36.542 -21.660 -19.280  0.00  0.00    -0.471 OA
ATOM     19  C   UNL     1      36.859 -20.274 -19.388  0.00  0.00    +0.252 C 
ENDBRANCH   2  18
BRANCH   3  20
ATOM     20  O   UNL     1      33.173 -23.492 -16.395  0.00  0.00    -0.471 OA
ATOM     21  C   UNL     1      32.608 -23.265 -15.105  0.00  0.00    +0.252 C 
ENDBRANCH   3  20
BRANCH   6  22
ATOM     22  O   UNL     1      37.519 -22.530 -14.699  0.00  0.00    -0.471 OA
ATOM     23  C   UNL     1      37.200 -23.337 -13.567  0.00  0.00    +0.252 C 
ENDBRANCH   6  22
TORSDOF 8
ENDMDL
