MODEL 1
REMARK VINA RESULT:      -7.9      0.000      0.000
REMARK  Name = 11750009
REMARK  6 active torsions:
REMARK  status: ('A' for Active; 'I' for Inactive)
REMARK    1  A    between atoms: C_6  and  C_22
REMARK    2  A    between atoms: C_6  and  O_26
REMARK    3  A    between atoms: C_22  and  C_23
REMARK    4  A    between atoms: C_23  and  O_24
REMARK    5  A    between atoms: O_26  and  C_28
REMARK    6  A    between atoms: C_28  and  C_29
REMARK                            x       y       z     vdW  Elec       q    Type
REMARK                         _______ _______ _______ _____ _____    ______ ____
ROOT
ATOM      1  O   UNL     1      27.456 -21.948 -15.802  0.00  0.00    -0.291 OA
ATOM      2  C   UNL     1      35.346 -24.572 -14.201  0.00  0.00    +0.040 C 
ATOM      3  C   UNL     1      34.931 -23.400 -15.121  0.00  0.00    +0.004 C 
ATOM      4  C   UNL     1      33.603 -23.645 -15.847  0.00  0.00    +0.001 C 
ATOM      5  C   UNL     1      32.478 -23.859 -14.787  0.00  0.00    +0.003 C 
ATOM      6  C   UNL     1      36.726 -24.051 -13.723  0.00  0.00    +0.188 C 
ATOM      7  C   UNL     1      34.259 -24.717 -13.123  0.00  0.00    +0.004 C 
ATOM      8  C   UNL     1      31.058 -24.081 -15.438  0.00  0.00    +0.016 C 
ATOM      9  C   UNL     1      36.184 -23.143 -15.955  0.00  0.00    +0.004 C 
ATOM     10  C   UNL     1      32.867 -24.939 -13.741  0.00  0.00    +0.000 C 
ATOM     11  C   UNL     1      37.352 -23.421 -14.987  0.00  0.00    +0.047 C 
ATOM     12  C   UNL     1      33.243 -22.471 -16.766  0.00  0.00    +0.004 C 
ATOM     13  C   UNL     1      35.514 -25.920 -14.957  0.00  0.00    +0.004 C 
ATOM     14  C   UNL     1      30.796 -22.987 -16.482  0.00  0.00    -0.042 C 
ATOM     15  C   UNL     1      31.909 -22.707 -17.463  0.00  0.00    +0.022 C 
ATOM     16  C   UNL     1      29.986 -24.008 -14.311  0.00  0.00    +0.012 C 
ATOM     17  C   UNL     1      30.952 -25.453 -16.140  0.00  0.00    +0.004 C 
ATOM     18  C   UNL     1      28.568 -23.831 -14.828  0.00  0.00    +0.069 C 
ATOM     19  C   UNL     1      29.645 -22.300 -16.578  0.00  0.00    +0.029 C 
ATOM     20  C   UNL     1      28.481 -22.621 -15.720  0.00  0.00    +0.173 C 
ENDROOT
BRANCH   6  22
ATOM     21  O   UNL     1      37.206 -25.738 -12.111  0.00  0.00    -0.290 OA
ATOM     22  C   UNL     1      37.588 -25.103 -13.092  0.00  0.00    +0.216 C 
BRANCH  22  23
ATOM     23  C   UNL     1      38.941 -25.333 -13.731  0.00  0.00    +0.206 C 
BRANCH  23  24
ATOM     24  O   UNL     1      38.943 -26.531 -14.478  0.00  0.00    -0.375 OA
ATOM     25  H   UNL     1      39.798 -26.975 -14.376  0.00  0.00    +0.211 HD
ENDBRANCH  23  24
ENDBRANCH  22  23
ENDBRANCH   6  22
BRANCH   6  26
ATOM     26  O   UNL     1      36.575 -23.048 -12.722  0.00  0.00    -0.449 OA
BRANCH  26  28
ATOM     27  O   UNL     1      38.732 -23.059 -11.903  0.00  0.00    -0.250 OA
ATOM     28  C   UNL     1      37.521 -23.049 -11.732  0.00  0.00    +0.317 C 
BRANCH  28  29
ATOM     29  C   UNL     1      36.831 -23.034 -10.389  0.00  0.00    +0.110 C 
ATOM     30  C   UNL     1      35.688 -24.032 -10.322  0.00  0.00    +0.012 C 
ENDBRANCH  28  29
ENDBRANCH  26  28
ENDBRANCH   6  26
TORSDOF 6
ENDMDL
MODEL 2
REMARK VINA RESULT:      -7.4      2.980      4.214
REMARK  Name = 11750009
REMARK  6 active torsions:
REMARK  status: ('A' for Active; 'I' for Inactive)
REMARK    1  A    between atoms: C_6  and  C_22
REMARK    2  A    between atoms: C_6  and  O_26
REMARK    3  A    between atoms: C_22  and  C_23
REMARK    4  A    between atoms: C_23  and  O_24
REMARK    5  A    between atoms: O_26  and  C_28
REMARK    6  A    between atoms: C_28  and  C_29
REMARK                            x       y       z     vdW  Elec       q    Type
REMARK                         _______ _______ _______ _____ _____    ______ ____
ROOT
ATOM      1  O   UNL     1      33.463 -18.550 -21.431  0.00  0.00    -0.291 OA
ATOM      2  C   UNL     1      35.786 -23.974 -15.358  0.00  0.00    +0.040 C 
ATOM      3  C   UNL     1      36.693 -22.948 -16.076  0.00  0.00    +0.004 C 
ATOM      4  C   UNL     1      36.309 -22.729 -17.545  0.00  0.00    +0.001 C 
ATOM      5  C   UNL     1      34.838 -22.214 -17.612  0.00  0.00    +0.003 C 
ATOM      6  C   UNL     1      36.492 -24.022 -13.978  0.00  0.00    +0.188 C 
ATOM      7  C   UNL     1      34.355 -23.412 -15.374  0.00  0.00    +0.004 C 
ATOM      8  C   UNL     1      34.359 -21.920 -19.086  0.00  0.00    +0.016 C 
ATOM      9  C   UNL     1      38.103 -23.436 -15.755  0.00  0.00    +0.004 C 
ATOM     10  C   UNL     1      33.870 -23.122 -16.806  0.00  0.00    +0.000 C 
ATOM     11  C   UNL     1      37.998 -23.995 -14.322  0.00  0.00    +0.047 C 
ATOM     12  C   UNL     1      37.248 -21.725 -18.225  0.00  0.00    +0.004 C 
ATOM     13  C   UNL     1      35.800 -25.380 -16.018  0.00  0.00    +0.004 C 
ATOM     14  C   UNL     1      35.405 -21.054 -19.801  0.00  0.00    -0.042 C 
ATOM     15  C   UNL     1      36.845 -21.490 -19.675  0.00  0.00    +0.022 C 
ATOM     16  C   UNL     1      33.000 -21.163 -19.017  0.00  0.00    +0.012 C 
ATOM     17  C   UNL     1      34.167 -23.218 -19.902  0.00  0.00    +0.004 C 
ATOM     18  C   UNL     1      32.608 -20.492 -20.324  0.00  0.00    +0.069 C 
ATOM     19  C   UNL     1      35.107 -19.969 -20.535  0.00  0.00    +0.029 C 
ATOM     20  C   UNL     1      33.703 -19.572 -20.791  0.00  0.00    +0.173 C 
ENDROOT
BRANCH   6  22
ATOM     21  O   UNL     1      34.939 -25.335 -12.736  0.00  0.00    -0.290 OA
ATOM     22  C   UNL     1      36.095 -25.196 -13.133  0.00  0.00    +0.216 C 
BRANCH  22  23
ATOM     23  C   UNL     1      37.191 -26.187 -12.804  0.00  0.00    +0.206 C 
BRANCH  23  24
ATOM     24  O   UNL     1      37.095 -27.329 -13.628  0.00  0.00    -0.375 OA
ATOM     25  H   UNL     1      37.236 -27.073 -14.553  0.00  0.00    +0.211 HD
ENDBRANCH  23  24
ENDBRANCH  22  23
ENDBRANCH   6  22
BRANCH   6  26
ATOM     26  O   UNL     1      36.166 -22.877 -13.196  0.00  0.00    -0.449 OA
BRANCH  26  28
ATOM     27  O   UNL     1      38.000 -22.493 -11.849  0.00  0.00    -0.250 OA
ATOM     28  C   UNL     1      36.817 -22.771 -11.996  0.00  0.00    +0.317 C 
BRANCH  28  29
ATOM     29  C   UNL     1      35.842 -23.051 -10.878  0.00  0.00    +0.110 C 
ATOM     30  C   UNL     1      36.325 -24.163  -9.963  0.00  0.00    +0.012 C 
ENDBRANCH  28  29
ENDBRANCH  26  28
ENDBRANCH   6  26
TORSDOF 6
ENDMDL
MODEL 3
REMARK VINA RESULT:      -6.8      5.856      8.493
REMARK  Name = 11750009
REMARK  6 active torsions:
REMARK  status: ('A' for Active; 'I' for Inactive)
REMARK    1  A    between atoms: C_6  and  C_22
REMARK    2  A    between atoms: C_6  and  O_26
REMARK    3  A    between atoms: C_22  and  C_23
REMARK    4  A    between atoms: C_23  and  O_24
REMARK    5  A    between atoms: O_26  and  C_28
REMARK    6  A    between atoms: C_28  and  C_29
REMARK                            x       y       z     vdW  Elec       q    Type
REMARK                         _______ _______ _______ _____ _____    ______ ____
ROOT
ATOM      1  O   UNL     1      33.626 -23.834 -12.971  0.00  0.00    -0.291 OA
ATOM      2  C   UNL     1      35.164 -20.390 -20.552  0.00  0.00    +0.040 C 
ATOM      3  C   UNL     1      33.803 -20.439 -19.820  0.00  0.00    +0.004 C 
ATOM      4  C   UNL     1      33.614 -21.712 -18.985  0.00  0.00    +0.001 C 
ATOM      5  C   UNL     1      34.749 -21.791 -17.918  0.00  0.00    +0.003 C 
ATOM      6  C   UNL     1      34.983 -19.070 -21.346  0.00  0.00    +0.188 C 
ATOM      7  C   UNL     1      36.265 -20.397 -19.479  0.00  0.00    +0.004 C 
ATOM      8  C   UNL     1      34.620 -23.052 -16.979  0.00  0.00    +0.016 C 
ATOM      9  C   UNL     1      32.795 -20.132 -20.923  0.00  0.00    +0.004 C 
ATOM     10  C   UNL     1      36.155 -21.624 -18.556  0.00  0.00    +0.000 C 
ATOM     11  C   UNL     1      33.517 -19.117 -21.831  0.00  0.00    +0.047 C 
ATOM     12  C   UNL     1      32.243 -21.731 -18.296  0.00  0.00    +0.004 C 
ATOM     13  C   UNL     1      35.382 -21.579 -21.530  0.00  0.00    +0.004 C 
ATOM     14  C   UNL     1      33.186 -23.144 -16.440  0.00  0.00    -0.042 C 
ATOM     15  C   UNL     1      32.072 -22.983 -17.446  0.00  0.00    +0.022 C 
ATOM     16  C   UNL     1      35.622 -22.888 -15.798  0.00  0.00    +0.012 C 
ATOM     17  C   UNL     1      34.939 -24.366 -17.726  0.00  0.00    +0.004 C 
ATOM     18  C   UNL     1      35.349 -23.825 -14.632  0.00  0.00    +0.069 C 
ATOM     19  C   UNL     1      32.881 -23.378 -15.152  0.00  0.00    +0.029 C 
ATOM     20  C   UNL     1      33.932 -23.665 -14.149  0.00  0.00    +0.173 C 
ENDROOT
BRANCH   6  22
ATOM     21  O   UNL     1      37.176 -18.767 -22.229  0.00  0.00    -0.290 OA
ATOM     22  C   UNL     1      35.974 -18.889 -22.458  0.00  0.00    +0.216 C 
BRANCH  22  23
ATOM     23  C   UNL     1      35.409 -18.867 -23.862  0.00  0.00    +0.206 C 
BRANCH  23  24
ATOM     24  O   UNL     1      35.444 -17.560 -24.394  0.00  0.00    -0.375 OA
ATOM     25  H   UNL     1      34.575 -17.335 -24.759  0.00  0.00    +0.211 HD
ENDBRANCH  23  24
ENDBRANCH  22  23
ENDBRANCH   6  22
BRANCH   6  26
ATOM     26  O   UNL     1      35.165 -17.937 -20.502  0.00  0.00    -0.449 OA
BRANCH  26  28
ATOM     27  O   UNL     1      35.243 -16.123 -21.926  0.00  0.00    -0.250 OA
ATOM     28  C   UNL     1      34.725 -16.743 -21.007  0.00  0.00    +0.317 C 
BRANCH  28  29
ATOM     29  C   UNL     1      33.493 -16.309 -20.248  0.00  0.00    +0.110 C 
ATOM     30  C   UNL     1      32.668 -15.300 -21.028  0.00  0.00    +0.012 C 
ENDBRANCH  28  29
ENDBRANCH  26  28
ENDBRANCH   6  26
TORSDOF 6
ENDMDL
MODEL 4
REMARK VINA RESULT:      -6.6      7.071     10.392
REMARK  Name = 11750009
REMARK  6 active torsions:
REMARK  status: ('A' for Active; 'I' for Inactive)
REMARK    1  A    between atoms: C_6  and  C_22
REMARK    2  A    between atoms: C_6  and  O_26
REMARK    3  A    between atoms: C_22  and  C_23
REMARK    4  A    between atoms: C_23  and  O_24
REMARK    5  A    between atoms: O_26  and  C_28
REMARK    6  A    between atoms: C_28  and  C_29
REMARK                            x       y       z     vdW  Elec       q    Type
REMARK                         _______ _______ _______ _____ _____    ______ ____
ROOT
ATOM      1  O   UNL     1      36.157 -23.236 -14.957  0.00  0.00    -0.291 OA
ATOM      2  C   UNL     1      34.994 -18.487 -21.871  0.00  0.00    +0.040 C 
ATOM      3  C   UNL     1      33.892 -19.095 -20.973  0.00  0.00    +0.004 C 
ATOM      4  C   UNL     1      34.281 -20.456 -20.381  0.00  0.00    +0.001 C 
ATOM      5  C   UNL     1      35.573 -20.286 -19.525  0.00  0.00    +0.003 C 
ATOM      6  C   UNL     1      34.256 -17.213 -22.360  0.00  0.00    +0.188 C 
ATOM      7  C   UNL     1      36.234 -18.262 -20.989  0.00  0.00    +0.004 C 
ATOM      8  C   UNL     1      36.034 -21.630 -18.839  0.00  0.00    +0.016 C 
ATOM      9  C   UNL     1      32.639 -19.005 -21.839  0.00  0.00    +0.004 C 
ATOM     10  C   UNL     1      36.699 -19.565 -20.314  0.00  0.00    +0.000 C 
ATOM     11  C   UNL     1      32.812 -17.692 -22.628  0.00  0.00    +0.047 C 
ATOM     12  C   UNL     1      33.151 -21.034 -19.519  0.00  0.00    +0.004 C 
ATOM     13  C   UNL     1      35.371 -19.386 -23.080  0.00  0.00    +0.004 C 
ATOM     14  C   UNL     1      34.838 -22.277 -18.127  0.00  0.00    -0.042 C 
ATOM     15  C   UNL     1      33.552 -22.372 -18.912  0.00  0.00    +0.022 C 
ATOM     16  C   UNL     1      37.150 -21.295 -17.806  0.00  0.00    +0.012 C 
ATOM     17  C   UNL     1      36.591 -22.642 -19.865  0.00  0.00    +0.004 C 
ATOM     18  C   UNL     1      37.423 -22.416 -16.816  0.00  0.00    +0.069 C 
ATOM     19  C   UNL     1      34.886 -22.773 -16.878  0.00  0.00    +0.029 C 
ATOM     20  C   UNL     1      36.153 -22.815 -16.113  0.00  0.00    +0.173 C 
ENDROOT
BRANCH   6  22
ATOM     21  O   UNL     1      36.006 -16.031 -23.464  0.00  0.00    -0.290 OA
ATOM     22  C   UNL     1      34.897 -16.557 -23.546  0.00  0.00    +0.216 C 
BRANCH  22  23
ATOM     23  C   UNL     1      34.105 -16.583 -24.836  0.00  0.00    +0.206 C 
BRANCH  23  24
ATOM     24  O   UNL     1      34.839 -17.221 -25.859  0.00  0.00    -0.375 OA
ATOM     25  H   UNL     1      35.078 -18.117 -25.575  0.00  0.00    +0.211 HD
ENDBRANCH  23  24
ENDBRANCH  22  23
ENDBRANCH   6  22
BRANCH   6  26
ATOM     26  O   UNL     1      34.240 -16.211 -21.347  0.00  0.00    -0.449 OA
BRANCH  26  28
ATOM     27  O   UNL     1      32.048 -15.657 -20.883  0.00  0.00    -0.250 OA
ATOM     28  C   UNL     1      33.148 -15.385 -21.345  0.00  0.00    +0.317 C 
BRANCH  28  29
ATOM     29  C   UNL     1      33.517 -14.078 -22.006  0.00  0.00    +0.110 C 
ATOM     30  C   UNL     1      32.309 -13.383 -22.611  0.00  0.00    +0.012 C 
ENDBRANCH  28  29
ENDBRANCH  26  28
ENDBRANCH   6  26
TORSDOF 6
ENDMDL
MODEL 5
REMARK VINA RESULT:      -6.3      1.529      3.508
REMARK  Name = 11750009
REMARK  6 active torsions:
REMARK  status: ('A' for Active; 'I' for Inactive)
REMARK    1  A    between atoms: C_6  and  C_22
REMARK    2  A    between atoms: C_6  and  O_26
REMARK    3  A    between atoms: C_22  and  C_23
REMARK    4  A    between atoms: C_23  and  O_24
REMARK    5  A    between atoms: O_26  and  C_28
REMARK    6  A    between atoms: C_28  and  C_29
REMARK                            x       y       z     vdW  Elec       q    Type
REMARK                         _______ _______ _______ _____ _____    ______ ____
ROOT
ATOM      1  O   UNL     1      27.535 -24.566 -17.218  0.00  0.00    -0.291 OA
ATOM      2  C   UNL     1      35.345 -23.674 -14.071  0.00  0.00    +0.040 C 
ATOM      3  C   UNL     1      34.316 -24.765 -13.692  0.00  0.00    +0.004 C 
ATOM      4  C   UNL     1      32.867 -24.265 -13.733  0.00  0.00    +0.001 C 
ATOM      5  C   UNL     1      32.543 -23.764 -15.174  0.00  0.00    +0.003 C 
ATOM      6  C   UNL     1      36.659 -24.465 -13.838  0.00  0.00    +0.188 C 
ATOM      7  C   UNL     1      35.052 -23.247 -15.519  0.00  0.00    +0.004 C 
ATOM      8  C   UNL     1      31.055 -23.263 -15.329  0.00  0.00    +0.016 C 
ATOM      9  C   UNL     1      34.860 -25.326 -12.382  0.00  0.00    +0.004 C 
ATOM     10  C   UNL     1      33.604 -22.752 -15.686  0.00  0.00    +0.000 C 
ATOM     11  C   UNL     1      36.392 -25.271 -12.547  0.00  0.00    +0.047 C 
ATOM     12  C   UNL     1      31.883 -25.370 -13.327  0.00  0.00    +0.004 C 
ATOM     13  C   UNL     1      35.296 -22.430 -13.141  0.00  0.00    +0.004 C 
ATOM     14  C   UNL     1      30.098 -24.317 -14.755  0.00  0.00    -0.042 C 
ATOM     15  C   UNL     1      30.443 -24.877 -13.396  0.00  0.00    +0.022 C 
ATOM     16  C   UNL     1      30.765 -23.051 -16.844  0.00  0.00    +0.012 C 
ATOM     17  C   UNL     1      30.812 -21.933 -14.582  0.00  0.00    +0.004 C 
ATOM     18  C   UNL     1      29.285 -22.934 -17.171  0.00  0.00    +0.069 C 
ATOM     19  C   UNL     1      28.984 -24.738 -15.377  0.00  0.00    +0.029 C 
ATOM     20  C   UNL     1      28.536 -24.132 -16.652  0.00  0.00    +0.173 C 
ENDROOT
BRANCH   6  22
ATOM     21  O   UNL     1      38.294 -22.986 -14.742  0.00  0.00    -0.290 OA
ATOM     22  C   UNL     1      37.882 -23.601 -13.760  0.00  0.00    +0.216 C 
BRANCH  22  23
ATOM     23  C   UNL     1      38.571 -23.534 -12.413  0.00  0.00    +0.206 C 
BRANCH  23  24
ATOM     24  O   UNL     1      38.298 -22.305 -11.774  0.00  0.00    -0.375 OA
ATOM     25  H   UNL     1      39.115 -21.953 -11.388  0.00  0.00    +0.211 HD
ENDBRANCH  23  24
ENDBRANCH  22  23
ENDBRANCH   6  22
BRANCH   6  26
ATOM     26  O   UNL     1      36.911 -25.366 -14.913  0.00  0.00    -0.449 OA
BRANCH  26  28
ATOM     27  O   UNL     1      37.528 -27.413 -14.045  0.00  0.00    -0.250 OA
ATOM     28  C   UNL     1      37.791 -26.379 -14.645  0.00  0.00    +0.317 C 
BRANCH  28  29
ATOM     29  C   UNL     1      39.145 -26.021 -15.211  0.00  0.00    +0.110 C 
ATOM     30  C   UNL     1      40.259 -26.226 -14.200  0.00  0.00    +0.012 C 
ENDBRANCH  28  29
ENDBRANCH  26  28
ENDBRANCH   6  26
TORSDOF 6
ENDMDL
MODEL 6
REMARK VINA RESULT:      -5.8     12.178     15.366
REMARK  Name = 11750009
REMARK  6 active torsions:
REMARK  status: ('A' for Active; 'I' for Inactive)
REMARK    1  A    between atoms: C_6  and  C_22
REMARK    2  A    between atoms: C_6  and  O_26
REMARK    3  A    between atoms: C_22  and  C_23
REMARK    4  A    between atoms: C_23  and  O_24
REMARK    5  A    between atoms: O_26  and  C_28
REMARK    6  A    between atoms: C_28  and  C_29
REMARK                            x       y       z     vdW  Elec       q    Type
REMARK                         _______ _______ _______ _____ _____    ______ ____
ROOT
ATOM      1  O   UNL     1      36.389 -18.600 -21.127  0.00  0.00    -0.291 OA
ATOM      2  C   UNL     1      32.252 -11.386 -22.720  0.00  0.00    +0.040 C 
ATOM      3  C   UNL     1      32.124 -12.263 -21.453  0.00  0.00    +0.004 C 
ATOM      4  C   UNL     1      32.281 -13.761 -21.739  0.00  0.00    +0.001 C 
ATOM      5  C   UNL     1      33.685 -14.013 -22.371  0.00  0.00    +0.003 C 
ATOM      6  C   UNL     1      31.955  -9.994 -22.104  0.00  0.00    +0.188 C 
ATOM      7  C   UNL     1      33.667 -11.596 -23.284  0.00  0.00    +0.004 C 
ATOM      8  C   UNL     1      33.958 -15.538 -22.667  0.00  0.00    +0.016 C 
ATOM      9  C   UNL     1      30.830 -11.772 -20.811  0.00  0.00    +0.004 C 
ATOM     10  C   UNL     1      33.949 -13.079 -23.583  0.00  0.00    +0.000 C 
ATOM     11  C   UNL     1      30.804 -10.259 -21.107  0.00  0.00    +0.047 C 
ATOM     12  C   UNL     1      32.123 -14.595 -20.460  0.00  0.00    +0.004 C 
ATOM     13  C   UNL     1      31.200 -11.725 -23.813  0.00  0.00    +0.004 C 
ATOM     14  C   UNL     1      33.625 -16.370 -21.421  0.00  0.00    -0.042 C 
ATOM     15  C   UNL     1      32.307 -16.080 -20.745  0.00  0.00    +0.022 C 
ATOM     16  C   UNL     1      35.464 -15.704 -23.030  0.00  0.00    +0.012 C 
ATOM     17  C   UNL     1      33.101 -16.062 -23.841  0.00  0.00    +0.004 C 
ATOM     18  C   UNL     1      35.950 -17.143 -22.974  0.00  0.00    +0.069 C 
ATOM     19  C   UNL     1      34.419 -17.336 -20.929  0.00  0.00    +0.029 C 
ATOM     20  C   UNL     1      35.662 -17.742 -21.624  0.00  0.00    +0.173 C 
ENDROOT
BRANCH   6  22
ATOM     21  O   UNL     1      30.496  -8.484 -23.229  0.00  0.00    -0.290 OA
ATOM     22  C   UNL     1      31.634  -8.937 -23.117  0.00  0.00    +0.216 C 
BRANCH  22  23
ATOM     23  C   UNL     1      32.784  -8.465 -23.982  0.00  0.00    +0.206 C 
BRANCH  23  24
ATOM     24  O   UNL     1      32.801  -7.057 -24.064  0.00  0.00    -0.375 OA
ATOM     25  H   UNL     1      33.374  -6.699 -23.369  0.00  0.00    +0.211 HD
ENDBRANCH  23  24
ENDBRANCH  22  23
ENDBRANCH   6  22
BRANCH   6  26
ATOM     26  O   UNL     1      33.087  -9.497 -21.395  0.00  0.00    -0.449 OA
BRANCH  26  28
ATOM     27  O   UNL     1      32.365  -9.109 -19.238  0.00  0.00    -0.250 OA
ATOM     28  C   UNL     1      32.810  -8.714 -20.307  0.00  0.00    +0.317 C 
BRANCH  28  29
ATOM     29  C   UNL     1      33.142  -7.277 -20.635  0.00  0.00    +0.110 C 
ATOM     30  C   UNL     1      31.901  -6.403 -20.692  0.00  0.00    +0.012 C 
ENDBRANCH  28  29
ENDBRANCH  26  28
ENDBRANCH   6  26
TORSDOF 6
ENDMDL
MODEL 7
REMARK VINA RESULT:      -5.8     13.995     16.724
REMARK  Name = 11750009
REMARK  6 active torsions:
REMARK  status: ('A' for Active; 'I' for Inactive)
REMARK    1  A    between atoms: C_6  and  C_22
REMARK    2  A    between atoms: C_6  and  O_26
REMARK    3  A    between atoms: C_22  and  C_23
REMARK    4  A    between atoms: C_23  and  O_24
REMARK    5  A    between atoms: O_26  and  C_28
REMARK    6  A    between atoms: C_28  and  C_29
REMARK                            x       y       z     vdW  Elec       q    Type
REMARK                         _______ _______ _______ _____ _____    ______ ____
ROOT
ATOM      1  O   UNL     1      31.560  -4.586 -24.911  0.00  0.00    -0.291 OA
ATOM      2  C   UNL     1      33.710 -12.651 -23.483  0.00  0.00    +0.040 C 
ATOM      3  C   UNL     1      32.410 -11.947 -23.027  0.00  0.00    +0.004 C 
ATOM      4  C   UNL     1      32.616 -10.467 -22.682  0.00  0.00    +0.001 C 
ATOM      5  C   UNL     1      33.161  -9.724 -23.941  0.00  0.00    +0.003 C 
ATOM      6  C   UNL     1      33.176 -14.098 -23.648  0.00  0.00    +0.188 C 
ATOM      7  C   UNL     1      34.188 -11.948 -24.764  0.00  0.00    +0.004 C 
ATOM      8  C   UNL     1      33.370  -8.180 -23.699  0.00  0.00    +0.016 C 
ATOM      9  C   UNL     1      31.861 -12.879 -21.950  0.00  0.00    +0.004 C 
ATOM     10  C   UNL     1      34.401 -10.440 -24.544  0.00  0.00    +0.000 C 
ATOM     11  C   UNL     1      32.230 -14.293 -22.442  0.00  0.00    +0.047 C 
ATOM     12  C   UNL     1      31.310  -9.815 -22.211  0.00  0.00    +0.004 C 
ATOM     13  C   UNL     1      34.839 -12.614 -22.416  0.00  0.00    +0.004 C 
ATOM     14  C   UNL     1      32.105  -7.585 -23.065  0.00  0.00    -0.042 C 
ATOM     15  C   UNL     1      31.514  -8.339 -21.897  0.00  0.00    +0.022 C 
ATOM     16  C   UNL     1      33.645  -7.501 -25.073  0.00  0.00    +0.012 C 
ATOM     17  C   UNL     1      34.561  -7.898 -22.756  0.00  0.00    +0.004 C 
ATOM     18  C   UNL     1      33.495  -5.988 -25.048  0.00  0.00    +0.069 C 
ATOM     19  C   UNL     1      31.526  -6.443 -23.472  0.00  0.00    +0.029 C 
ATOM     20  C   UNL     1      32.135  -5.604 -24.530  0.00  0.00    +0.173 C 
ENDROOT
BRANCH   6  22
ATOM     21  O   UNL     1      35.217 -14.998 -24.487  0.00  0.00    -0.290 OA
ATOM     22  C   UNL     1      34.254 -15.137 -23.734  0.00  0.00    +0.216 C 
BRANCH  22  23
ATOM     23  C   UNL     1      34.086 -16.353 -22.847  0.00  0.00    +0.206 C 
BRANCH  23  24
ATOM     24  O   UNL     1      34.507 -17.521 -23.518  0.00  0.00    -0.375 OA
ATOM     25  H   UNL     1      34.439 -17.387 -24.476  0.00  0.00    +0.211 HD
ENDBRANCH  23  24
ENDBRANCH  22  23
ENDBRANCH   6  22
BRANCH   6  26
ATOM     26  O   UNL     1      32.434 -14.234 -24.857  0.00  0.00    -0.449 OA
BRANCH  26  28
ATOM     27  O   UNL     1      33.162 -16.196 -25.829  0.00  0.00    -0.250 OA
ATOM     28  C   UNL     1      33.029 -14.980 -25.839  0.00  0.00    +0.317 C 
BRANCH  28  29
ATOM     29  C   UNL     1      33.496 -14.061 -26.942  0.00  0.00    +0.110 C 
ATOM     30  C   UNL     1      32.386 -13.148 -27.434  0.00  0.00    +0.012 C 
ENDBRANCH  28  29
ENDBRANCH  26  28
ENDBRANCH   6  26
TORSDOF 6
ENDMDL
MODEL 8
REMARK VINA RESULT:      -5.7     18.417     21.458
REMARK  Name = 11750009
REMARK  6 active torsions:
REMARK  status: ('A' for Active; 'I' for Inactive)
REMARK    1  A    between atoms: C_6  and  C_22
REMARK    2  A    between atoms: C_6  and  O_26
REMARK    3  A    between atoms: C_22  and  C_23
REMARK    4  A    between atoms: C_23  and  O_24
REMARK    5  A    between atoms: O_26  and  C_28
REMARK    6  A    between atoms: C_28  and  C_29
REMARK                            x       y       z     vdW  Elec       q    Type
REMARK                         _______ _______ _______ _____ _____    ______ ____
ROOT
ATOM      1  O   UNL     1      31.965 -13.266 -22.871  0.00  0.00    -0.291 OA
ATOM      2  C   UNL     1      32.412  -5.073 -24.964  0.00  0.00    +0.040 C 
ATOM      3  C   UNL     1      33.374  -6.196 -25.417  0.00  0.00    +0.004 C 
ATOM      4  C   UNL     1      33.583  -7.278 -24.350  0.00  0.00    +0.001 C 
ATOM      5  C   UNL     1      32.205  -7.922 -24.005  0.00  0.00    +0.003 C 
ATOM      6  C   UNL     1      32.506  -4.138 -26.197  0.00  0.00    +0.188 C 
ATOM      7  C   UNL     1      31.043  -5.721 -24.699  0.00  0.00    +0.004 C 
ATOM      8  C   UNL     1      32.320  -9.079 -22.939  0.00  0.00    +0.016 C 
ATOM      9  C   UNL     1      34.591  -5.433 -25.933  0.00  0.00    +0.004 C 
ATOM     10  C   UNL     1      31.136  -6.850 -23.657  0.00  0.00    +0.000 C 
ATOM     11  C   UNL     1      34.002  -4.164 -26.580  0.00  0.00    +0.047 C 
ATOM     12  C   UNL     1      34.562  -8.357 -24.831  0.00  0.00    +0.004 C 
ATOM     13  C   UNL     1      32.892  -4.328 -23.687  0.00  0.00    +0.004 C 
ATOM     14  C   UNL     1      33.429 -10.054 -23.359  0.00  0.00    -0.042 C 
ATOM     15  C   UNL     1      34.744  -9.443 -23.779  0.00  0.00    +0.022 C 
ATOM     16  C   UNL     1      30.953  -9.824 -22.876  0.00  0.00    +0.012 C 
ATOM     17  C   UNL     1      32.659  -8.539 -21.533  0.00  0.00    +0.004 C 
ATOM     18  C   UNL     1      31.026 -11.175 -22.182  0.00  0.00    +0.069 C 
ATOM     19  C   UNL     1      33.297 -11.391 -23.348  0.00  0.00    +0.029 C 
ATOM     20  C   UNL     1      32.073 -12.042 -22.829  0.00  0.00    +0.173 C 
ENDROOT
BRANCH   6  22
ATOM     21  O   UNL     1      32.729  -1.786 -25.890  0.00  0.00    -0.290 OA
ATOM     22  C   UNL     1      31.976  -2.756 -25.954  0.00  0.00    +0.216 C 
BRANCH  22  23
ATOM     23  C   UNL     1      30.476  -2.632 -25.795  0.00  0.00    +0.206 C 
BRANCH  23  24
ATOM     24  O   UNL     1      30.136  -2.379 -24.448  0.00  0.00    -0.375 OA
ATOM     25  H   UNL     1      29.290  -1.908 -24.410  0.00  0.00    +0.211 HD
ENDBRANCH  23  24
ENDBRANCH  22  23
ENDBRANCH   6  22
BRANCH   6  26
ATOM     26  O   UNL     1      31.733  -4.644 -27.282  0.00  0.00    -0.449 OA
BRANCH  26  28
ATOM     27  O   UNL     1      33.040  -5.197 -29.103  0.00  0.00    -0.250 OA
ATOM     28  C   UNL     1      32.260  -4.447 -28.530  0.00  0.00    +0.317 C 
BRANCH  28  29
ATOM     29  C   UNL     1      31.725  -3.152 -29.094  0.00  0.00    +0.110 C 
ATOM     30  C   UNL     1      32.836  -2.173 -29.432  0.00  0.00    +0.012 C 
ENDBRANCH  28  29
ENDBRANCH  26  28
ENDBRANCH   6  26
TORSDOF 6
ENDMDL
MODEL 9
REMARK VINA RESULT:      -5.7     15.883     18.945
REMARK  Name = 11750009
REMARK  6 active torsions:
REMARK  status: ('A' for Active; 'I' for Inactive)
REMARK    1  A    between atoms: C_6  and  C_22
REMARK    2  A    between atoms: C_6  and  O_26
REMARK    3  A    between atoms: C_22  and  C_23
REMARK    4  A    between atoms: C_23  and  O_24
REMARK    5  A    between atoms: O_26  and  C_28
REMARK    6  A    between atoms: C_28  and  C_29
REMARK                            x       y       z     vdW  Elec       q    Type
REMARK                         _______ _______ _______ _____ _____    ______ ____
ROOT
ATOM      1  O   UNL     1      33.166 -15.190 -26.990  0.00  0.00    -0.291 OA
ATOM      2  C   UNL     1      32.512  -7.933 -22.676  0.00  0.00    +0.040 C 
ATOM      3  C   UNL     1      33.278  -8.154 -24.001  0.00  0.00    +0.004 C 
ATOM      4  C   UNL     1      33.905  -9.549 -24.109  0.00  0.00    +0.001 C 
ATOM      5  C   UNL     1      32.777 -10.621 -24.011  0.00  0.00    +0.003 C 
ATOM      6  C   UNL     1      32.109  -6.446 -22.854  0.00  0.00    +0.188 C 
ATOM      7  C   UNL     1      31.362  -8.953 -22.635  0.00  0.00    +0.004 C 
ATOM      8  C   UNL     1      33.319 -12.096 -24.151  0.00  0.00    +0.016 C 
ATOM      9  C   UNL     1      34.190  -6.933 -24.091  0.00  0.00    +0.004 C 
ATOM     10  C   UNL     1      31.874 -10.398 -22.767  0.00  0.00    +0.000 C 
ATOM     11  C   UNL     1      33.358  -5.787 -23.481  0.00  0.00    +0.047 C 
ATOM     12  C   UNL     1      34.675  -9.716 -25.426  0.00  0.00    +0.004 C 
ATOM     13  C   UNL     1      33.402  -8.101 -21.414  0.00  0.00    +0.004 C 
ATOM     14  C   UNL     1      34.229 -12.192 -25.383  0.00  0.00    -0.042 C 
ATOM     15  C   UNL     1      35.273 -11.113 -25.540  0.00  0.00    +0.022 C 
ATOM     16  C   UNL     1      32.100 -13.052 -24.314  0.00  0.00    +0.012 C 
ATOM     17  C   UNL     1      34.134 -12.533 -22.913  0.00  0.00    +0.004 C 
ATOM     18  C   UNL     1      32.473 -14.434 -24.828  0.00  0.00    +0.069 C 
ATOM     19  C   UNL     1      34.159 -13.178 -26.293  0.00  0.00    +0.029 C 
ATOM     20  C   UNL     1      33.237 -14.325 -26.120  0.00  0.00    +0.173 C 
ENDROOT
BRANCH   6  22
ATOM     21  O   UNL     1      32.437  -5.584 -20.658  0.00  0.00    -0.290 OA
ATOM     22  C   UNL     1      31.657  -5.783 -21.588  0.00  0.00    +0.216 C 
BRANCH  22  23
ATOM     23  C   UNL     1      30.200  -5.378 -21.525  0.00  0.00    +0.206 C 
BRANCH  23  24
ATOM     24  O   UNL     1      30.059  -3.989 -21.730  0.00  0.00    -0.375 OA
ATOM     25  H   UNL     1      29.119  -3.768 -21.821  0.00  0.00    +0.211 HD
ENDBRANCH  23  24
ENDBRANCH  22  23
ENDBRANCH   6  22
BRANCH   6  26
ATOM     26  O   UNL     1      31.009  -6.318 -23.751  0.00  0.00    -0.449 OA
BRANCH  26  28
ATOM     27  O   UNL     1      30.483  -4.164 -24.390  0.00  0.00    -0.250 OA
ATOM     28  C   UNL     1      31.045  -5.234 -24.585  0.00  0.00    +0.317 C 
BRANCH  28  29
ATOM     29  C   UNL     1      31.892  -5.565 -25.791  0.00  0.00    +0.110 C 
ATOM     30  C   UNL     1      32.392  -4.318 -26.499  0.00  0.00    +0.012 C 
ENDBRANCH  28  29
ENDBRANCH  26  28
ENDBRANCH   6  26
TORSDOF 6
ENDMDL
