MODEL 1
REMARK VINA RESULT:      -8.4      0.000      0.000
REMARK  Name = 10016012
REMARK  3 active torsions:
REMARK  status: ('A' for Active; 'I' for Inactive)
REMARK    1  A    between atoms: C_4  and  C_15
REMARK    2  A    between atoms: C_9  and  O_13
REMARK    3  A    between atoms: C_15  and  N_16
REMARK                            x       y       z     vdW  Elec       q    Type
REMARK                         _______ _______ _______ _____ _____    ______ ____
ROOT
ATOM      1 CL   UNL     1      32.315 -13.043 -21.576  0.00  0.00    -0.086 Cl
ATOM      2 CL   UNL     1      32.895 -14.194 -26.754  0.00  0.00    -0.079 Cl
ATOM      3  N   UNL     1      35.080 -17.109 -23.193  0.00  0.00    -0.409 NA
ATOM      4  C   UNL     1      35.336 -17.397 -21.897  0.00  0.00    +0.088 C 
ATOM      5  C   UNL     1      33.791 -15.214 -22.448  0.00  0.00    +0.110 C 
ATOM      6  C   UNL     1      34.318 -16.034 -23.468  0.00  0.00    +0.151 C 
ATOM      7  C   UNL     1      34.864 -16.656 -20.831  0.00  0.00    +0.022 C 
ATOM      8  C   UNL     1      34.080 -15.548 -21.118  0.00  0.00    -0.012 C 
ATOM      9  C   UNL     1      34.029 -15.701 -24.789  0.00  0.00    +0.170 C 
ATOM     10  C   UNL     1      33.000 -14.099 -22.771  0.00  0.00    +0.047 C 
ATOM     11  C   UNL     1      33.243 -14.593 -25.111  0.00  0.00    +0.094 C 
ATOM     12  C   UNL     1      32.728 -13.790 -24.101  0.00  0.00    +0.022 C 
ENDROOT
BRANCH   9  13
ATOM     13  O   UNL     1      34.534 -16.486 -25.792  0.00  0.00    -0.503 OA
ATOM     14  H   UNL     1      34.051 -16.596 -26.588  0.00  0.00    +0.292 HD
ENDBRANCH   9  13
BRANCH   4  15
ATOM     15  C   UNL     1      36.183 -18.597 -21.636  0.00  0.00    -0.017 C 
BRANCH  15  16
ATOM     16  N   UNL     1      35.597 -19.374 -20.549  0.00  0.00    +0.389 N 
ATOM     17  C   UNL     1      36.545 -20.379 -20.065  0.00  0.00    -0.100 C 
ATOM     18  C   UNL     1      34.356 -20.015 -20.987  0.00  0.00    -0.100 C 
ATOM     19  H   UNL     1      35.378 -18.739 -19.781  0.00  0.00    -0.079 HD
ENDBRANCH  15  16
ENDBRANCH   4  15
TORSDOF 3
ENDMDL
MODEL 2
REMARK VINA RESULT:      -8.0     10.501     12.020
REMARK  Name = 10016012
REMARK  3 active torsions:
REMARK  status: ('A' for Active; 'I' for Inactive)
REMARK    1  A    between atoms: C_4  and  C_15
REMARK    2  A    between atoms: C_9  and  O_13
REMARK    3  A    between atoms: C_15  and  N_16
REMARK                            x       y       z     vdW  Elec       q    Type
REMARK                         _______ _______ _______ _____ _____    ______ ____
ROOT
ATOM      1 CL   UNL     1      32.729 -22.525 -17.894  0.00  0.00    -0.086 Cl
ATOM      2 CL   UNL     1      28.825 -24.692 -14.973  0.00  0.00    -0.079 Cl
ATOM      3  N   UNL     1      33.570 -24.397 -13.142  0.00  0.00    -0.409 NA
ATOM      4  C   UNL     1      34.867 -24.040 -13.278  0.00  0.00    +0.088 C 
ATOM      5  C   UNL     1      33.171 -23.528 -15.355  0.00  0.00    +0.110 C 
ATOM      6  C   UNL     1      32.730 -24.145 -14.165  0.00  0.00    +0.151 C 
ATOM      7  C   UNL     1      35.390 -23.431 -14.401  0.00  0.00    +0.022 C 
ATOM      8  C   UNL     1      34.523 -23.173 -15.453  0.00  0.00    -0.012 C 
ATOM      9  C   UNL     1      31.387 -24.496 -14.068  0.00  0.00    +0.170 C 
ATOM     10  C   UNL     1      32.267 -23.280 -16.401  0.00  0.00    +0.047 C 
ATOM     11  C   UNL     1      30.488 -24.250 -15.109  0.00  0.00    +0.094 C 
ATOM     12  C   UNL     1      30.928 -23.642 -16.277  0.00  0.00    +0.022 C 
ENDROOT
BRANCH   9  13
ATOM     13  O   UNL     1      30.943 -25.098 -12.920  0.00  0.00    -0.503 OA
ATOM     14  H   UNL     1      30.840 -26.028 -12.889  0.00  0.00    +0.292 HD
ENDBRANCH   9  13
BRANCH   4  15
ATOM     15  C   UNL     1      35.763 -24.336 -12.121  0.00  0.00    -0.017 C 
BRANCH  15  16
ATOM     16  N   UNL     1      37.098 -24.658 -12.616  0.00  0.00    +0.389 N 
ATOM     17  C   UNL     1      37.343 -26.098 -12.534  0.00  0.00    -0.100 C 
ATOM     18  C   UNL     1      38.116 -23.924 -11.862  0.00  0.00    -0.100 C 
ATOM     19  H   UNL     1      37.154 -24.375 -13.595  0.00  0.00    -0.079 HD
ENDBRANCH  15  16
ENDBRANCH   4  15
TORSDOF 3
ENDMDL
MODEL 3
REMARK VINA RESULT:      -7.8      1.707      3.001
REMARK  Name = 10016012
REMARK  3 active torsions:
REMARK  status: ('A' for Active; 'I' for Inactive)
REMARK    1  A    between atoms: C_4  and  C_15
REMARK    2  A    between atoms: C_9  and  O_13
REMARK    3  A    between atoms: C_15  and  N_16
REMARK                            x       y       z     vdW  Elec       q    Type
REMARK                         _______ _______ _______ _____ _____    ______ ____
ROOT
ATOM      1 CL   UNL     1      33.446 -15.025 -26.210  0.00  0.00    -0.086 Cl
ATOM      2 CL   UNL     1      31.887 -12.352 -21.864  0.00  0.00    -0.079 Cl
ATOM      3  N   UNL     1      34.608 -16.637 -21.432  0.00  0.00    -0.409 NA
ATOM      4  C   UNL     1      35.254 -17.686 -21.989  0.00  0.00    +0.088 C 
ATOM      5  C   UNL     1      34.062 -15.880 -23.654  0.00  0.00    +0.110 C 
ATOM      6  C   UNL     1      34.019 -15.744 -22.250  0.00  0.00    +0.151 C 
ATOM      7  C   UNL     1      35.351 -17.903 -23.348  0.00  0.00    +0.022 C 
ATOM      8  C   UNL     1      34.743 -16.982 -24.190  0.00  0.00    -0.012 C 
ATOM      9  C   UNL     1      33.343 -14.649 -21.719  0.00  0.00    +0.170 C 
ATOM     10  C   UNL     1      33.438 -14.930 -24.478  0.00  0.00    +0.047 C 
ATOM     11  C   UNL     1      32.722 -13.704 -22.538  0.00  0.00    +0.094 C 
ATOM     12  C   UNL     1      32.768 -13.844 -23.920  0.00  0.00    +0.022 C 
ENDROOT
BRANCH   9  13
ATOM     13  O   UNL     1      33.291 -14.502 -20.358  0.00  0.00    -0.503 OA
ATOM     14  H   UNL     1      32.532 -14.784 -19.886  0.00  0.00    +0.292 HD
ENDBRANCH   9  13
BRANCH   4  15
ATOM     15  C   UNL     1      35.892 -18.652 -21.046  0.00  0.00    -0.017 C 
BRANCH  15  16
ATOM     16  N   UNL     1      35.225 -19.945 -21.155  0.00  0.00    +0.389 N 
ATOM     17  C   UNL     1      33.810 -19.825 -20.802  0.00  0.00    -0.100 C 
ATOM     18  C   UNL     1      35.881 -20.935 -20.299  0.00  0.00    -0.100 C 
ATOM     19  H   UNL     1      35.292 -20.260 -22.123  0.00  0.00    -0.079 HD
ENDBRANCH  15  16
ENDBRANCH   4  15
TORSDOF 3
ENDMDL
MODEL 4
REMARK VINA RESULT:      -7.6      6.863      9.971
REMARK  Name = 10016012
REMARK  3 active torsions:
REMARK  status: ('A' for Active; 'I' for Inactive)
REMARK    1  A    between atoms: C_4  and  C_15
REMARK    2  A    between atoms: C_9  and  O_13
REMARK    3  A    between atoms: C_15  and  N_16
REMARK                            x       y       z     vdW  Elec       q    Type
REMARK                         _______ _______ _______ _____ _____    ______ ____
ROOT
ATOM      1 CL   UNL     1      32.221 -24.027 -14.995  0.00  0.00    -0.086 Cl
ATOM      2 CL   UNL     1      37.170 -23.497 -13.076  0.00  0.00    -0.079 Cl
ATOM      3  N   UNL     1      36.104 -22.194 -17.884  0.00  0.00    -0.409 NA
ATOM      4  C   UNL     1      35.228 -22.068 -18.906  0.00  0.00    +0.088 C 
ATOM      5  C   UNL     1      34.301 -23.049 -16.533  0.00  0.00    +0.110 C 
ATOM      6  C   UNL     1      35.650 -22.677 -16.712  0.00  0.00    +0.151 C 
ATOM      7  C   UNL     1      33.891 -22.403 -18.826  0.00  0.00    +0.022 C 
ATOM      8  C   UNL     1      33.426 -22.901 -17.618  0.00  0.00    -0.012 C 
ATOM      9  C   UNL     1      36.518 -22.824 -15.633  0.00  0.00    +0.170 C 
ATOM     10  C   UNL     1      33.861 -23.549 -15.296  0.00  0.00    +0.047 C 
ATOM     11  C   UNL     1      36.081 -23.321 -14.404  0.00  0.00    +0.094 C 
ATOM     12  C   UNL     1      34.751 -23.685 -14.234  0.00  0.00    +0.022 C 
ENDROOT
BRANCH   9  13
ATOM     13  O   UNL     1      37.832 -22.468 -15.791  0.00  0.00    -0.503 OA
ATOM     14  H   UNL     1      38.092 -21.953 -16.529  0.00  0.00    +0.292 HD
ENDBRANCH   9  13
BRANCH   4  15
ATOM     15  C   UNL     1      35.772 -21.528 -20.187  0.00  0.00    -0.017 C 
BRANCH  15  16
ATOM     16  N   UNL     1      35.588 -20.081 -20.218  0.00  0.00    +0.389 N 
ATOM     17  C   UNL     1      34.503 -19.720 -21.131  0.00  0.00    -0.100 C 
ATOM     18  C   UNL     1      36.829 -19.414 -20.611  0.00  0.00    -0.100 C 
ATOM     19  H   UNL     1      35.337 -19.770 -19.279  0.00  0.00    -0.079 HD
ENDBRANCH  15  16
ENDBRANCH   4  15
TORSDOF 3
ENDMDL
MODEL 5
REMARK VINA RESULT:      -7.5      7.612     10.768
REMARK  Name = 10016012
REMARK  3 active torsions:
REMARK  status: ('A' for Active; 'I' for Inactive)
REMARK    1  A    between atoms: C_4  and  C_15
REMARK    2  A    between atoms: C_9  and  O_13
REMARK    3  A    between atoms: C_15  and  N_16
REMARK                            x       y       z     vdW  Elec       q    Type
REMARK                         _______ _______ _______ _____ _____    ______ ____
ROOT
ATOM      1 CL   UNL     1      31.573 -23.945 -13.415  0.00  0.00    -0.086 Cl
ATOM      2 CL   UNL     1      36.827 -24.743 -12.947  0.00  0.00    -0.079 Cl
ATOM      3  N   UNL     1      34.831 -23.165 -17.360  0.00  0.00    -0.409 NA
ATOM      4  C   UNL     1      33.767 -22.806 -18.113  0.00  0.00    +0.088 C 
ATOM      5  C   UNL     1      33.320 -23.531 -15.519  0.00  0.00    +0.110 C 
ATOM      6  C   UNL     1      34.615 -23.523 -16.080  0.00  0.00    +0.151 C 
ATOM      7  C   UNL     1      32.466 -22.781 -17.652  0.00  0.00    +0.022 C 
ATOM      8  C   UNL     1      32.245 -23.151 -16.333  0.00  0.00    -0.012 C 
ATOM      9  C   UNL     1      35.682 -23.901 -15.270  0.00  0.00    +0.170 C 
ATOM     10  C   UNL     1      33.131 -23.910 -14.179  0.00  0.00    +0.047 C 
ATOM     11  C   UNL     1      35.494 -24.278 -13.938  0.00  0.00    +0.094 C 
ATOM     12  C   UNL     1      34.216 -24.283 -13.392  0.00  0.00    +0.022 C 
ENDROOT
BRANCH   9  13
ATOM     13  O   UNL     1      36.946 -23.899 -15.799  0.00  0.00    -0.503 OA
ATOM     14  H   UNL     1      37.366 -24.710 -16.007  0.00  0.00    +0.292 HD
ENDBRANCH   9  13
BRANCH   4  15
ATOM     15  C   UNL     1      34.051 -22.416 -19.525  0.00  0.00    -0.017 C 
BRANCH  15  16
ATOM     16  N   UNL     1      34.178 -20.965 -19.609  0.00  0.00    +0.389 N 
ATOM     17  C   UNL     1      33.031 -20.388 -20.311  0.00  0.00    -0.100 C 
ATOM     18  C   UNL     1      35.425 -20.596 -20.281  0.00  0.00    -0.100 C 
ATOM     19  H   UNL     1      34.198 -20.589 -18.660  0.00  0.00    -0.079 HD
ENDBRANCH  15  16
ENDBRANCH   4  15
TORSDOF 3
ENDMDL
MODEL 6
REMARK VINA RESULT:      -7.5      3.163      5.925
REMARK  Name = 10016012
REMARK  3 active torsions:
REMARK  status: ('A' for Active; 'I' for Inactive)
REMARK    1  A    between atoms: C_4  and  C_15
REMARK    2  A    between atoms: C_9  and  O_13
REMARK    3  A    between atoms: C_15  and  N_16
REMARK                            x       y       z     vdW  Elec       q    Type
REMARK                         _______ _______ _______ _____ _____    ______ ____
ROOT
ATOM      1 CL   UNL     1      32.046 -15.324 -19.683  0.00  0.00    -0.086 Cl
ATOM      2 CL   UNL     1      35.618 -18.302 -22.298  0.00  0.00    -0.079 Cl
ATOM      3  N   UNL     1      34.248 -13.734 -24.088  0.00  0.00    -0.409 NA
ATOM      4  C   UNL     1      33.523 -12.597 -23.991  0.00  0.00    +0.088 C 
ATOM      5  C   UNL     1      33.227 -14.482 -22.037  0.00  0.00    +0.110 C 
ATOM      6  C   UNL     1      34.105 -14.665 -23.126  0.00  0.00    +0.151 C 
ATOM      7  C   UNL     1      32.641 -12.327 -22.964  0.00  0.00    +0.022 C 
ATOM      8  C   UNL     1      32.494 -13.289 -21.974  0.00  0.00    -0.012 C 
ATOM      9  C   UNL     1      34.833 -15.850 -23.187  0.00  0.00    +0.170 C 
ATOM     10  C   UNL     1      33.102 -15.474 -21.051  0.00  0.00    +0.047 C 
ATOM     11  C   UNL     1      34.709 -16.838 -22.207  0.00  0.00    +0.094 C 
ATOM     12  C   UNL     1      33.842 -16.650 -21.138  0.00  0.00    +0.022 C 
ENDROOT
BRANCH   9  13
ATOM     13  O   UNL     1      35.690 -16.046 -24.238  0.00  0.00    -0.503 OA
ATOM     14  H   UNL     1      35.371 -16.411 -25.040  0.00  0.00    +0.292 HD
ENDBRANCH   9  13
BRANCH   4  15
ATOM     15  C   UNL     1      33.712 -11.591 -25.077  0.00  0.00    -0.017 C 
BRANCH  15  16
ATOM     16  N   UNL     1      34.892 -10.784 -24.787  0.00  0.00    +0.389 N 
ATOM     17  C   UNL     1      34.521  -9.578 -24.047  0.00  0.00    -0.100 C 
ATOM     18  C   UNL     1      35.588 -10.429 -26.025  0.00  0.00    -0.100 C 
ATOM     19  H   UNL     1      35.525 -11.338 -24.209  0.00  0.00    -0.079 HD
ENDBRANCH  15  16
ENDBRANCH   4  15
TORSDOF 3
ENDMDL
MODEL 7
REMARK VINA RESULT:      -7.5      7.699      9.738
REMARK  Name = 10016012
REMARK  3 active torsions:
REMARK  status: ('A' for Active; 'I' for Inactive)
REMARK    1  A    between atoms: C_4  and  C_15
REMARK    2  A    between atoms: C_9  and  O_13
REMARK    3  A    between atoms: C_15  and  N_16
REMARK                            x       y       z     vdW  Elec       q    Type
REMARK                         _______ _______ _______ _____ _____    ______ ____
ROOT
ATOM      1 CL   UNL     1      37.169 -22.621 -15.305  0.00  0.00    -0.086 Cl
ATOM      2 CL   UNL     1      35.817 -21.332 -20.302  0.00  0.00    -0.079 Cl
ATOM      3  N   UNL     1      32.368 -23.305 -17.115  0.00  0.00    -0.409 NA
ATOM      4  C   UNL     1      32.027 -23.797 -15.902  0.00  0.00    +0.088 C 
ATOM      5  C   UNL     1      34.606 -22.984 -16.279  0.00  0.00    +0.110 C 
ATOM      6  C   UNL     1      33.639 -22.903 -17.304  0.00  0.00    +0.151 C 
ATOM      7  C   UNL     1      32.900 -23.914 -14.840  0.00  0.00    +0.022 C 
ATOM      8  C   UNL     1      34.210 -23.499 -15.037  0.00  0.00    -0.012 C 
ATOM      9  C   UNL     1      34.034 -22.391 -18.537  0.00  0.00    +0.170 C 
ATOM     10  C   UNL     1      35.924 -22.555 -16.511  0.00  0.00    +0.047 C 
ATOM     11  C   UNL     1      35.344 -21.965 -18.768  0.00  0.00    +0.094 C 
ATOM     12  C   UNL     1      36.291 -22.047 -17.755  0.00  0.00    +0.022 C 
ENDROOT
BRANCH   9  13
ATOM     13  O   UNL     1      33.108 -22.306 -19.543  0.00  0.00    -0.503 OA
ATOM     14  H   UNL     1      32.565 -21.546 -19.616  0.00  0.00    +0.292 HD
ENDBRANCH   9  13
BRANCH   4  15
ATOM     15  C   UNL     1      30.609 -24.231 -15.735  0.00  0.00    -0.017 C 
BRANCH  15  16
ATOM     16  N   UNL     1      29.722 -23.179 -16.222  0.00  0.00    +0.389 N 
ATOM     17  C   UNL     1      29.324 -22.294 -15.127  0.00  0.00    -0.100 C 
ATOM     18  C   UNL     1      28.541 -23.760 -16.863  0.00  0.00    -0.100 C 
ATOM     19  H   UNL     1      30.229 -22.629 -16.916  0.00  0.00    -0.079 HD
ENDBRANCH  15  16
ENDBRANCH   4  15
TORSDOF 3
ENDMDL
MODEL 8
REMARK VINA RESULT:      -7.5     10.490     12.311
REMARK  Name = 10016012
REMARK  3 active torsions:
REMARK  status: ('A' for Active; 'I' for Inactive)
REMARK    1  A    between atoms: C_4  and  C_15
REMARK    2  A    between atoms: C_9  and  O_13
REMARK    3  A    between atoms: C_15  and  N_16
REMARK                            x       y       z     vdW  Elec       q    Type
REMARK                         _______ _______ _______ _____ _____    ______ ____
ROOT
ATOM      1 CL   UNL     1      36.908 -22.407 -16.793  0.00  0.00    -0.086 Cl
ATOM      2 CL   UNL     1      37.832 -24.489 -11.969  0.00  0.00    -0.079 Cl
ATOM      3  N   UNL     1      33.106 -24.341 -13.863  0.00  0.00    -0.409 NA
ATOM      4  C   UNL     1      32.239 -24.019 -14.850  0.00  0.00    +0.088 C 
ATOM      5  C   UNL     1      34.881 -23.442 -15.222  0.00  0.00    +0.110 C 
ATOM      6  C   UNL     1      34.410 -24.058 -14.043  0.00  0.00    +0.151 C 
ATOM      7  C   UNL     1      32.606 -23.417 -16.037  0.00  0.00    +0.022 C 
ATOM      8  C   UNL     1      33.950 -23.126 -16.220  0.00  0.00    -0.012 C 
ATOM      9  C   UNL     1      35.336 -24.373 -13.053  0.00  0.00    +0.170 C 
ATOM     10  C   UNL     1      36.249 -23.161 -15.376  0.00  0.00    +0.047 C 
ATOM     11  C   UNL     1      36.696 -24.093 -13.206  0.00  0.00    +0.094 C 
ATOM     12  C   UNL     1      37.154 -23.486 -14.369  0.00  0.00    +0.022 C 
ENDROOT
BRANCH   9  13
ATOM     13  O   UNL     1      34.895 -24.971 -11.902  0.00  0.00    -0.503 OA
ATOM     14  H   UNL     1      35.138 -24.618 -11.069  0.00  0.00    +0.292 HD
ENDBRANCH   9  13
BRANCH   4  15
ATOM     15  C   UNL     1      30.803 -24.351 -14.610  0.00  0.00    -0.017 C 
BRANCH  15  16
ATOM     16  N   UNL     1      29.979 -23.673 -15.605  0.00  0.00    +0.389 N 
ATOM     17  C   UNL     1      29.373 -22.468 -15.036  0.00  0.00    -0.100 C 
ATOM     18  C   UNL     1      28.943 -24.573 -16.113  0.00  0.00    -0.100 C 
ATOM     19  H   UNL     1      30.578 -23.397 -16.384  0.00  0.00    -0.079 HD
ENDBRANCH  15  16
ENDBRANCH   4  15
TORSDOF 3
ENDMDL
MODEL 9
REMARK VINA RESULT:      -7.5      8.197     10.189
REMARK  Name = 10016012
REMARK  3 active torsions:
REMARK  status: ('A' for Active; 'I' for Inactive)
REMARK    1  A    between atoms: C_4  and  C_15
REMARK    2  A    between atoms: C_9  and  O_13
REMARK    3  A    between atoms: C_15  and  N_16
REMARK                            x       y       z     vdW  Elec       q    Type
REMARK                         _______ _______ _______ _____ _____    ______ ____
ROOT
ATOM      1 CL   UNL     1      30.989 -23.644 -15.359  0.00  0.00    -0.086 Cl
ATOM      2 CL   UNL     1      33.273 -21.668 -19.757  0.00  0.00    -0.079 Cl
ATOM      3  N   UNL     1      36.128 -23.460 -15.938  0.00  0.00    -0.409 NA
ATOM      4  C   UNL     1      36.244 -24.022 -14.713  0.00  0.00    +0.088 C 
ATOM      5  C   UNL     1      33.734 -23.542 -15.675  0.00  0.00    +0.110 C 
ATOM      6  C   UNL     1      34.892 -23.222 -16.415  0.00  0.00    +0.151 C 
ATOM      7  C   UNL     1      35.171 -24.370 -13.917  0.00  0.00    +0.022 C 
ATOM      8  C   UNL     1      33.898 -24.124 -14.411  0.00  0.00    -0.012 C 
ATOM      9  C   UNL     1      34.727 -22.645 -17.671  0.00  0.00    +0.170 C 
ATOM     10  C   UNL     1      32.459 -23.280 -16.205  0.00  0.00    +0.047 C 
ATOM     11  C   UNL     1      33.460 -22.384 -18.198  0.00  0.00    +0.094 C 
ATOM     12  C   UNL     1      32.324 -22.701 -17.464  0.00  0.00    +0.022 C 
ENDROOT
BRANCH   9  13
ATOM     13  O   UNL     1      35.841 -22.327 -18.403  0.00  0.00    -0.503 OA
ATOM     14  H   UNL     1      35.757 -22.094 -19.307  0.00  0.00    +0.292 HD
ENDBRANCH   9  13
BRANCH   4  15
ATOM     15  C   UNL     1      37.631 -24.269 -14.222  0.00  0.00    -0.017 C 
BRANCH  15  16
ATOM     16  N   UNL     1      38.258 -25.298 -15.044  0.00  0.00    +0.389 N 
ATOM     17  C   UNL     1      37.757 -26.624 -14.679  0.00  0.00    -0.100 C 
ATOM     18  C   UNL     1      39.715 -25.249 -14.907  0.00  0.00    -0.100 C 
ATOM     19  H   UNL     1      38.019 -25.119 -16.020  0.00  0.00    -0.079 HD
ENDBRANCH  15  16
ENDBRANCH   4  15
TORSDOF 3
ENDMDL
