MODEL 1
REMARK VINA RESULT:     -10.7      0.000      0.000
REMARK  Name = 446239
REMARK  5 active torsions:
REMARK  status: ('A' for Active; 'I' for Inactive)
REMARK    1  A    between atoms: N_2  and  C_17
REMARK    2  A    between atoms: C_3  and  C_5
REMARK    3  A    between atoms: C_6  and  S_11
REMARK    4  A    between atoms: S_11  and  N_14
REMARK    5  A    between atoms: C_17  and  C_20
REMARK                            x       y       z     vdW  Elec       q    Type
REMARK                         _______ _______ _______ _____ _____    ______ ____
ROOT
ATOM      1  O   UNL     1      36.717 -18.291 -22.233  0.00  0.00    -0.270 OA
ATOM      2  N   UNL     1      34.569 -17.418 -22.239  0.00  0.00    -0.297 N 
ATOM      3  C   UNL     1      35.530 -18.365 -21.867  0.00  0.00    +0.246 C 
ATOM      4  H   UNL     1      33.647 -17.538 -21.913  0.00  0.00    +0.150 HD
ENDROOT
BRANCH   3   5
ATOM      5  C   UNL     1      35.079 -19.476 -21.043  0.00  0.00    +0.053 C 
ATOM      6  C   UNL     1      34.214 -21.606 -19.463  0.00  0.00    +0.122 C 
ATOM      7  C   UNL     1      33.714 -19.713 -20.880  0.00  0.00    +0.006 C 
ATOM      8  C   UNL     1      36.011 -20.303 -20.417  0.00  0.00    +0.006 C 
ATOM      9  C   UNL     1      33.281 -20.779 -20.089  0.00  0.00    +0.020 C 
ATOM     10  C   UNL     1      35.579 -21.367 -19.626  0.00  0.00    +0.020 C 
BRANCH   6  11
ATOM     11  S   UNL     1      33.672 -22.939 -18.475  0.00  0.00    +0.057 S 
ATOM     12  O   UNL     1      32.377 -22.593 -17.907  0.00  0.00    -0.153 OA
ATOM     13  O   UNL     1      33.821 -24.171 -19.238  0.00  0.00    -0.153 OA
BRANCH  11  14
ATOM     14  N   UNL     1      34.842 -22.920 -17.231  0.00  0.00    -0.203 NA
ATOM     15  H   UNL     1      34.830 -23.813 -16.738  0.00  0.00    +0.144 HD
ATOM     16  H   UNL     1      34.631 -22.167 -16.576  0.00  0.00    +0.144 HD
ENDBRANCH  11  14
ENDBRANCH   6  11
ENDBRANCH   3   5
BRANCH   2  17
ATOM     17  C   UNL     1      34.855 -16.273 -23.072  0.00  0.00    +0.119 C 
BRANCH  17  20
ATOM     18  F   UNL     1      33.823 -14.595 -25.098  0.00  0.00    -0.204 F 
ATOM     19  F   UNL     1      32.329 -13.530 -19.945  0.00  0.00    -0.204 F 
ATOM     20  C   UNL     1      33.931 -15.125 -22.786  0.00  0.00    +0.027 C 
ATOM     21  C   UNL     1      33.461 -14.340 -23.833  0.00  0.00    +0.138 C 
ATOM     22  C   UNL     1      33.554 -14.859 -21.475  0.00  0.00    +0.029 C 
ATOM     23  C   UNL     1      32.697 -13.793 -21.206  0.00  0.00    +0.140 C 
ATOM     24  C   UNL     1      32.603 -13.274 -23.563  0.00  0.00    +0.032 C 
ATOM     25  C   UNL     1      32.221 -13.000 -22.250  0.00  0.00    +0.032 C 
ENDBRANCH  17  20
ENDBRANCH   2  17
TORSDOF 5
ENDMDL
MODEL 2
REMARK VINA RESULT:     -10.4      4.940      7.103
REMARK  Name = 446239
REMARK  5 active torsions:
REMARK  status: ('A' for Active; 'I' for Inactive)
REMARK    1  A    between atoms: N_2  and  C_17
REMARK    2  A    between atoms: C_3  and  C_5
REMARK    3  A    between atoms: C_6  and  S_11
REMARK    4  A    between atoms: S_11  and  N_14
REMARK    5  A    between atoms: C_17  and  C_20
REMARK                            x       y       z     vdW  Elec       q    Type
REMARK                         _______ _______ _______ _____ _____    ______ ____
ROOT
ATOM      1  O   UNL     1      32.910 -23.444 -16.752  0.00  0.00    -0.270 OA
ATOM      2  N   UNL     1      34.598 -22.480 -18.016  0.00  0.00    -0.297 N 
ATOM      3  C   UNL     1      34.108 -23.134 -16.879  0.00  0.00    +0.246 C 
ATOM      4  H   UNL     1      35.558 -22.264 -18.051  0.00  0.00    +0.150 HD
ENDROOT
BRANCH   3   5
ATOM      5  C   UNL     1      35.062 -23.422 -15.821  0.00  0.00    +0.053 C 
ATOM      6  C   UNL     1      36.893 -23.974 -13.789  0.00  0.00    +0.122 C 
ATOM      7  C   UNL     1      36.339 -22.863 -15.862  0.00  0.00    +0.006 C 
ATOM      8  C   UNL     1      34.700 -24.256 -14.763  0.00  0.00    +0.006 C 
ATOM      9  C   UNL     1      37.255 -23.140 -14.846  0.00  0.00    +0.020 C 
ATOM     10  C   UNL     1      35.615 -24.533 -13.748  0.00  0.00    +0.020 C 
BRANCH   6  11
ATOM     11  S   UNL     1      38.039 -24.319 -12.518  0.00  0.00    +0.057 S 
ATOM     12  O   UNL     1      37.456 -25.317 -11.632  0.00  0.00    -0.153 OA
ATOM     13  O   UNL     1      39.342 -24.562 -13.123  0.00  0.00    -0.153 OA
BRANCH  11  14
ATOM     14  N   UNL     1      38.084 -22.818 -11.704  0.00  0.00    -0.203 NA
ATOM     15  H   UNL     1      37.395 -22.817 -10.952  0.00  0.00    +0.144 HD
ATOM     16  H   UNL     1      37.871 -22.068 -12.361  0.00  0.00    +0.144 HD
ENDBRANCH  11  14
ENDBRANCH   6  11
ENDBRANCH   3   5
BRANCH   2  17
ATOM     17  C   UNL     1      33.772 -22.104 -19.140  0.00  0.00    +0.119 C 
BRANCH  17  20
ATOM     18  F   UNL     1      32.215 -20.274 -20.627  0.00  0.00    -0.204 F 
ATOM     19  F   UNL     1      37.640 -19.582 -20.677  0.00  0.00    -0.204 F 
ATOM     20  C   UNL     1      34.372 -20.974 -19.926  0.00  0.00    +0.027 C 
ATOM     21  C   UNL     1      33.544 -20.111 -20.635  0.00  0.00    +0.138 C 
ATOM     22  C   UNL     1      35.751 -20.803 -19.935  0.00  0.00    +0.029 C 
ATOM     23  C   UNL     1      36.311 -19.755 -20.664  0.00  0.00    +0.140 C 
ATOM     24  C   UNL     1      34.105 -19.061 -21.363  0.00  0.00    +0.032 C 
ATOM     25  C   UNL     1      35.488 -18.884 -21.378  0.00  0.00    +0.032 C 
ENDBRANCH  17  20
ENDBRANCH   2  17
TORSDOF 5
ENDMDL
MODEL 3
REMARK VINA RESULT:     -10.1      4.939      8.819
REMARK  Name = 446239
REMARK  5 active torsions:
REMARK  status: ('A' for Active; 'I' for Inactive)
REMARK    1  A    between atoms: N_2  and  C_17
REMARK    2  A    between atoms: C_3  and  C_5
REMARK    3  A    between atoms: C_6  and  S_11
REMARK    4  A    between atoms: S_11  and  N_14
REMARK    5  A    between atoms: C_17  and  C_20
REMARK                            x       y       z     vdW  Elec       q    Type
REMARK                         _______ _______ _______ _____ _____    ______ ____
ROOT
ATOM      1  O   UNL     1      33.873 -23.859 -19.256  0.00  0.00    -0.270 OA
ATOM      2  N   UNL     1      34.123 -22.572 -17.344  0.00  0.00    -0.297 N 
ATOM      3  C   UNL     1      34.098 -22.754 -18.731  0.00  0.00    +0.246 C 
ATOM      4  H   UNL     1      34.307 -21.669 -16.995  0.00  0.00    +0.150 HD
ENDROOT
BRANCH   3   5
ATOM      5  C   UNL     1      34.375 -21.588 -19.555  0.00  0.00    +0.053 C 
ATOM      6  C   UNL     1      34.906 -19.351 -21.135  0.00  0.00    +0.122 C 
ATOM      7  C   UNL     1      35.694 -21.228 -19.833  0.00  0.00    +0.006 C 
ATOM      8  C   UNL     1      33.322 -20.830 -20.067  0.00  0.00    +0.006 C 
ATOM      9  C   UNL     1      35.960 -20.109 -20.623  0.00  0.00    +0.020 C 
ATOM     10  C   UNL     1      33.588 -19.711 -20.856  0.00  0.00    +0.020 C 
BRANCH   6  11
ATOM     11  S   UNL     1      35.239 -17.952 -22.124  0.00  0.00    +0.057 S 
ATOM     12  O   UNL     1      34.470 -18.065 -23.354  0.00  0.00    -0.153 OA
ATOM     13  O   UNL     1      35.109 -16.759 -21.297  0.00  0.00    -0.153 OA
BRANCH  11  14
ATOM     14  N   UNL     1      36.892 -18.191 -22.483  0.00  0.00    -0.203 NA
ATOM     15  H   UNL     1      37.246 -18.983 -21.946  0.00  0.00    +0.144 HD
ATOM     16  H   UNL     1      37.418 -17.352 -22.240  0.00  0.00    +0.144 HD
ENDBRANCH  11  14
ENDBRANCH   6  11
ENDBRANCH   3   5
BRANCH   2  17
ATOM     17  C   UNL     1      33.892 -23.636 -16.393  0.00  0.00    +0.119 C 
BRANCH  17  20
ATOM     18  F   UNL     1      33.293 -24.633 -13.818  0.00  0.00    -0.204 F 
ATOM     19  F   UNL     1      29.203 -22.357 -16.648  0.00  0.00    -0.204 F 
ATOM     20  C   UNL     1      32.519 -23.563 -15.791  0.00  0.00    +0.027 C 
ATOM     21  C   UNL     1      32.296 -24.074 -14.517  0.00  0.00    +0.138 C 
ATOM     22  C   UNL     1      31.483 -22.983 -16.514  0.00  0.00    +0.029 C 
ATOM     23  C   UNL     1      30.207 -22.914 -15.957  0.00  0.00    +0.140 C 
ATOM     24  C   UNL     1      31.019 -24.004 -13.960  0.00  0.00    +0.032 C 
ATOM     25  C   UNL     1      29.975 -23.424 -14.680  0.00  0.00    +0.032 C 
ENDBRANCH  17  20
ENDBRANCH   2  17
TORSDOF 5
ENDMDL
MODEL 4
REMARK VINA RESULT:     -10.0      1.152      2.264
REMARK  Name = 446239
REMARK  5 active torsions:
REMARK  status: ('A' for Active; 'I' for Inactive)
REMARK    1  A    between atoms: N_2  and  C_17
REMARK    2  A    between atoms: C_3  and  C_5
REMARK    3  A    between atoms: C_6  and  S_11
REMARK    4  A    between atoms: S_11  and  N_14
REMARK    5  A    between atoms: C_17  and  C_20
REMARK                            x       y       z     vdW  Elec       q    Type
REMARK                         _______ _______ _______ _____ _____    ______ ____
ROOT
ATOM      1  O   UNL     1      34.545 -19.151 -23.141  0.00  0.00    -0.270 OA
ATOM      2  N   UNL     1      35.174 -17.695 -21.450  0.00  0.00    -0.297 N 
ATOM      3  C   UNL     1      34.722 -18.930 -21.930  0.00  0.00    +0.246 C 
ATOM      4  H   UNL     1      35.293 -17.589 -20.478  0.00  0.00    +0.150 HD
ENDROOT
BRANCH   3   5
ATOM      5  C   UNL     1      34.436 -19.958 -20.942  0.00  0.00    +0.053 C 
ATOM      6  C   UNL     1      33.889 -21.931 -19.046  0.00  0.00    +0.122 C 
ATOM      7  C   UNL     1      35.476 -20.717 -20.405  0.00  0.00    +0.006 C 
ATOM      8  C   UNL     1      33.123 -20.184 -20.531  0.00  0.00    +0.006 C 
ATOM      9  C   UNL     1      35.202 -21.704 -19.457  0.00  0.00    +0.020 C 
ATOM     10  C   UNL     1      32.849 -21.171 -19.584  0.00  0.00    +0.020 C 
BRANCH   6  11
ATOM     11  S   UNL     1      33.547 -23.164 -17.859  0.00  0.00    +0.057 S 
ATOM     12  O   UNL     1      32.345 -22.781 -17.131  0.00  0.00    -0.153 OA
ATOM     13  O   UNL     1      33.612 -24.465 -18.513  0.00  0.00    -0.153 OA
BRANCH  11  14
ATOM     14  N   UNL     1      34.895 -23.003 -16.823  0.00  0.00    -0.203 NA
ATOM     15  H   UNL     1      35.686 -22.633 -17.349  0.00  0.00    +0.144 HD
ATOM     16  H   UNL     1      35.139 -23.916 -16.439  0.00  0.00    +0.144 HD
ENDBRANCH  11  14
ENDBRANCH   6  11
ENDBRANCH   3   5
BRANCH   2  17
ATOM     17  C   UNL     1      35.477 -16.569 -22.303  0.00  0.00    +0.119 C 
BRANCH  17  20
ATOM     18  F   UNL     1      34.573 -15.376 -19.906  0.00  0.00    -0.204 F 
ATOM     19  F   UNL     1      32.208 -13.763 -24.566  0.00  0.00    -0.204 F 
ATOM     20  C   UNL     1      34.394 -15.530 -22.268  0.00  0.00    +0.027 C 
ATOM     21  C   UNL     1      33.998 -14.985 -21.051  0.00  0.00    +0.138 C 
ATOM     22  C   UNL     1      33.796 -15.124 -23.455  0.00  0.00    +0.029 C 
ATOM     23  C   UNL     1      32.789 -14.160 -23.426  0.00  0.00    +0.140 C 
ATOM     24  C   UNL     1      32.991 -14.021 -21.023  0.00  0.00    +0.032 C 
ATOM     25  C   UNL     1      32.387 -13.608 -22.210  0.00  0.00    +0.032 C 
ENDBRANCH  17  20
ENDBRANCH   2  17
TORSDOF 5
ENDMDL
MODEL 5
REMARK VINA RESULT:      -9.8      5.057      7.397
REMARK  Name = 446239
REMARK  5 active torsions:
REMARK  status: ('A' for Active; 'I' for Inactive)
REMARK    1  A    between atoms: N_2  and  C_17
REMARK    2  A    between atoms: C_3  and  C_5
REMARK    3  A    between atoms: C_6  and  S_11
REMARK    4  A    between atoms: S_11  and  N_14
REMARK    5  A    between atoms: C_17  and  C_20
REMARK                            x       y       z     vdW  Elec       q    Type
REMARK                         _______ _______ _______ _____ _____    ______ ____
ROOT
ATOM      1  O   UNL     1      32.287 -23.354 -16.899  0.00  0.00    -0.270 OA
ATOM      2  N   UNL     1      34.292 -22.656 -17.830  0.00  0.00    -0.297 N 
ATOM      3  C   UNL     1      33.513 -23.179 -16.791  0.00  0.00    +0.246 C 
ATOM      4  H   UNL     1      35.259 -22.544 -17.676  0.00  0.00    +0.150 HD
ENDROOT
BRANCH   3   5
ATOM      5  C   UNL     1      34.198 -23.493 -15.547  0.00  0.00    +0.053 C 
ATOM      6  C   UNL     1      35.510 -24.096 -13.160  0.00  0.00    +0.122 C 
ATOM      7  C   UNL     1      35.567 -23.256 -15.425  0.00  0.00    +0.006 C 
ATOM      8  C   UNL     1      33.484 -24.030 -14.475  0.00  0.00    +0.006 C 
ATOM      9  C   UNL     1      36.224 -23.558 -14.231  0.00  0.00    +0.020 C 
ATOM     10  C   UNL     1      34.141 -24.332 -13.282  0.00  0.00    +0.020 C 
BRANCH   6  11
ATOM     11  S   UNL     1      36.332 -24.472 -11.666  0.00  0.00    +0.057 S 
ATOM     12  O   UNL     1      37.527 -23.645 -11.578  0.00  0.00    -0.153 OA
ATOM     13  O   UNL     1      35.356 -24.451 -10.584  0.00  0.00    -0.153 OA
BRANCH  11  14
ATOM     14  N   UNL     1      36.801 -26.090 -11.950  0.00  0.00    -0.203 NA
ATOM     15  H   UNL     1      37.343 -26.431 -11.157  0.00  0.00    +0.144 HD
ATOM     16  H   UNL     1      37.368 -26.136 -12.796  0.00  0.00    +0.144 HD
ENDBRANCH  11  14
ENDBRANCH   6  11
ENDBRANCH   3   5
BRANCH   2  17
ATOM     17  C   UNL     1      33.756 -22.273 -19.116  0.00  0.00    +0.119 C 
BRANCH  17  20
ATOM     18  F   UNL     1      36.570 -22.105 -18.919  0.00  0.00    -0.204 F 
ATOM     19  F   UNL     1      34.009 -18.193 -21.756  0.00  0.00    -0.204 F 
ATOM     20  C   UNL     1      34.553 -21.170 -19.751  0.00  0.00    +0.027 C 
ATOM     21  C   UNL     1      35.936 -21.150 -19.613  0.00  0.00    +0.138 C 
ATOM     22  C   UNL     1      33.897 -20.178 -20.471  0.00  0.00    +0.029 C 
ATOM     23  C   UNL     1      34.634 -19.152 -21.061  0.00  0.00    +0.140 C 
ATOM     24  C   UNL     1      36.673 -20.124 -20.204  0.00  0.00    +0.032 C 
ATOM     25  C   UNL     1      36.022 -19.125 -20.927  0.00  0.00    +0.032 C 
ENDBRANCH  17  20
ENDBRANCH   2  17
TORSDOF 5
ENDMDL
MODEL 6
REMARK VINA RESULT:      -9.7      2.600      3.529
REMARK  Name = 446239
REMARK  5 active torsions:
REMARK  status: ('A' for Active; 'I' for Inactive)
REMARK    1  A    between atoms: N_2  and  C_17
REMARK    2  A    between atoms: C_3  and  C_5
REMARK    3  A    between atoms: C_6  and  S_11
REMARK    4  A    between atoms: S_11  and  N_14
REMARK    5  A    between atoms: C_17  and  C_20
REMARK                            x       y       z     vdW  Elec       q    Type
REMARK                         _______ _______ _______ _____ _____    ______ ____
ROOT
ATOM      1  O   UNL     1      32.909 -20.750 -20.744  0.00  0.00    -0.270 OA
ATOM      2  N   UNL     1      35.055 -20.180 -21.410  0.00  0.00    -0.297 N 
ATOM      3  C   UNL     1      34.135 -20.770 -20.536  0.00  0.00    +0.246 C 
ATOM      4  H   UNL     1      36.013 -20.234 -21.184  0.00  0.00    +0.150 HD
ENDROOT
BRANCH   3   5
ATOM      5  C   UNL     1      34.670 -21.398 -19.338  0.00  0.00    +0.053 C 
ATOM      6  C   UNL     1      35.698 -22.602 -17.041  0.00  0.00    +0.122 C 
ATOM      7  C   UNL     1      36.004 -21.198 -18.983  0.00  0.00    +0.006 C 
ATOM      8  C   UNL     1      33.850 -22.200 -18.545  0.00  0.00    +0.006 C 
ATOM      9  C   UNL     1      36.519 -21.800 -17.834  0.00  0.00    +0.020 C 
ATOM     10  C   UNL     1      34.364 -22.802 -17.397  0.00  0.00    +0.020 C 
BRANCH   6  11
ATOM     11  S   UNL     1      36.341 -23.355 -15.603  0.00  0.00    +0.057 S 
ATOM     12  O   UNL     1      36.169 -24.796 -15.723  0.00  0.00    -0.153 OA
ATOM     13  O   UNL     1      37.666 -22.804 -15.345  0.00  0.00    -0.153 OA
BRANCH  11  14
ATOM     14  N   UNL     1      35.263 -22.767 -14.416  0.00  0.00    -0.203 NA
ATOM     15  H   UNL     1      35.309 -21.749 -14.389  0.00  0.00    +0.144 HD
ATOM     16  H   UNL     1      35.523 -23.144 -13.505  0.00  0.00    +0.144 HD
ENDBRANCH  11  14
ENDBRANCH   6  11
ENDBRANCH   3   5
BRANCH   2  17
ATOM     17  C   UNL     1      34.678 -19.499 -22.627  0.00  0.00    +0.119 C 
BRANCH  17  20
ATOM     18  F   UNL     1      34.833 -17.725 -24.821  0.00  0.00    -0.204 F 
ATOM     19  F   UNL     1      34.644 -15.525 -19.818  0.00  0.00    -0.204 F 
ATOM     20  C   UNL     1      34.710 -18.006 -22.467  0.00  0.00    +0.027 C 
ATOM     21  C   UNL     1      34.786 -17.193 -23.593  0.00  0.00    +0.138 C 
ATOM     22  C   UNL     1      34.661 -17.452 -21.193  0.00  0.00    +0.029 C 
ATOM     23  C   UNL     1      34.691 -16.066 -21.042  0.00  0.00    +0.140 C 
ATOM     24  C   UNL     1      34.815 -15.807 -23.440  0.00  0.00    +0.032 C 
ATOM     25  C   UNL     1      34.768 -15.244 -22.166  0.00  0.00    +0.032 C 
ENDBRANCH  17  20
ENDBRANCH   2  17
TORSDOF 5
ENDMDL
MODEL 7
REMARK VINA RESULT:      -9.6      4.077      6.226
REMARK  Name = 446239
REMARK  5 active torsions:
REMARK  status: ('A' for Active; 'I' for Inactive)
REMARK    1  A    between atoms: N_2  and  C_17
REMARK    2  A    between atoms: C_3  and  C_5
REMARK    3  A    between atoms: C_6  and  S_11
REMARK    4  A    between atoms: S_11  and  N_14
REMARK    5  A    between atoms: C_17  and  C_20
REMARK                            x       y       z     vdW  Elec       q    Type
REMARK                         _______ _______ _______ _____ _____    ______ ____
ROOT
ATOM      1  O   UNL     1      33.111 -12.055 -23.803  0.00  0.00    -0.270 OA
ATOM      2  N   UNL     1      31.579 -12.389 -22.096  0.00  0.00    -0.297 N 
ATOM      3  C   UNL     1      32.670 -12.769 -22.885  0.00  0.00    +0.246 C 
ATOM      4  H   UNL     1      31.282 -13.003 -21.385  0.00  0.00    +0.150 HD
ENDROOT
BRANCH   3   5
ATOM      5  C   UNL     1      33.267 -14.066 -22.606  0.00  0.00    +0.053 C 
ATOM      6  C   UNL     1      34.412 -16.553 -22.071  0.00  0.00    +0.122 C 
ATOM      7  C   UNL     1      32.843 -14.805 -21.502  0.00  0.00    +0.006 C 
ATOM      8  C   UNL     1      34.263 -14.570 -23.443  0.00  0.00    +0.006 C 
ATOM      9  C   UNL     1      33.416 -16.049 -21.234  0.00  0.00    +0.020 C 
ATOM     10  C   UNL     1      34.835 -15.813 -23.176  0.00  0.00    +0.020 C 
BRANCH   6  11
ATOM     11  S   UNL     1      35.127 -18.110 -21.736  0.00  0.00    +0.057 S 
ATOM     12  O   UNL     1      35.783 -18.045 -20.438  0.00  0.00    -0.153 OA
ATOM     13  O   UNL     1      34.131 -19.142 -21.993  0.00  0.00    -0.153 OA
BRANCH  11  14
ATOM     14  N   UNL     1      36.323 -18.189 -22.954  0.00  0.00    -0.203 NA
ATOM     15  H   UNL     1      35.959 -18.703 -23.756  0.00  0.00    +0.144 HD
ATOM     16  H   UNL     1      37.148 -18.665 -22.590  0.00  0.00    +0.144 HD
ENDBRANCH  11  14
ENDBRANCH   6  11
ENDBRANCH   3   5
BRANCH   2  17
ATOM     17  C   UNL     1      30.865 -11.144 -22.265  0.00  0.00    +0.119 C 
BRANCH  17  20
ATOM     18  F   UNL     1      30.978 -10.907 -19.452  0.00  0.00    -0.204 F 
ATOM     19  F   UNL     1      33.396  -6.990 -22.405  0.00  0.00    -0.204 F 
ATOM     20  C   UNL     1      31.552 -10.004 -21.571  0.00  0.00    +0.027 C 
ATOM     21  C   UNL     1      31.569  -9.951 -20.181  0.00  0.00    +0.138 C 
ATOM     22  C   UNL     1      32.165  -9.011 -22.326  0.00  0.00    +0.029 C 
ATOM     23  C   UNL     1      32.803  -7.950 -21.684  0.00  0.00    +0.140 C 
ATOM     24  C   UNL     1      32.208  -8.889 -19.540  0.00  0.00    +0.032 C 
ATOM     25  C   UNL     1      32.824  -7.890 -20.291  0.00  0.00    +0.032 C 
ENDBRANCH  17  20
ENDBRANCH   2  17
TORSDOF 5
ENDMDL
MODEL 8
REMARK VINA RESULT:      -9.5      3.956      6.069
REMARK  Name = 446239
REMARK  5 active torsions:
REMARK  status: ('A' for Active; 'I' for Inactive)
REMARK    1  A    between atoms: N_2  and  C_17
REMARK    2  A    between atoms: C_3  and  C_5
REMARK    3  A    between atoms: C_6  and  S_11
REMARK    4  A    between atoms: S_11  and  N_14
REMARK    5  A    between atoms: C_17  and  C_20
REMARK                            x       y       z     vdW  Elec       q    Type
REMARK                         _______ _______ _______ _____ _____    ______ ____
ROOT
ATOM      1  O   UNL     1      31.973 -12.639 -20.268  0.00  0.00    -0.270 OA
ATOM      2  N   UNL     1      32.400 -12.232 -22.510  0.00  0.00    -0.297 N 
ATOM      3  C   UNL     1      32.441 -13.022 -21.355  0.00  0.00    +0.246 C 
ATOM      4  H   UNL     1      32.790 -12.598 -23.338  0.00  0.00    +0.150 HD
ENDROOT
BRANCH   3   5
ATOM      5  C   UNL     1      33.085 -14.321 -21.466  0.00  0.00    +0.053 C 
ATOM      6  C   UNL     1      34.322 -16.814 -21.678  0.00  0.00    +0.122 C 
ATOM      7  C   UNL     1      32.645 -15.387 -20.681  0.00  0.00    +0.006 C 
ATOM      8  C   UNL     1      34.143 -14.501 -22.357  0.00  0.00    +0.006 C 
ATOM      9  C   UNL     1      33.264 -16.633 -20.787  0.00  0.00    +0.020 C 
ATOM     10  C   UNL     1      34.762 -15.747 -22.463  0.00  0.00    +0.020 C 
BRANCH   6  11
ATOM     11  S   UNL     1      35.094 -18.373 -21.811  0.00  0.00    +0.057 S 
ATOM     12  O   UNL     1      35.910 -18.584 -20.624  0.00  0.00    -0.153 OA
ATOM     13  O   UNL     1      34.086 -19.359 -22.180  0.00  0.00    -0.153 OA
BRANCH  11  14
ATOM     14  N   UNL     1      36.123 -18.115 -23.149  0.00  0.00    -0.203 NA
ATOM     15  H   UNL     1      37.048 -17.838 -22.820  0.00  0.00    +0.144 HD
ATOM     16  H   UNL     1      35.737 -17.377 -23.738  0.00  0.00    +0.144 HD
ENDBRANCH  11  14
ENDBRANCH   6  11
ENDBRANCH   3   5
BRANCH   2  17
ATOM     17  C   UNL     1      31.817 -10.911 -22.555  0.00  0.00    +0.119 C 
BRANCH  17  20
ATOM     18  F   UNL     1      31.785  -8.265 -21.564  0.00  0.00    -0.204 F 
ATOM     19  F   UNL     1      35.690  -9.552 -25.171  0.00  0.00    -0.204 F 
ATOM     20  C   UNL     1      32.815  -9.871 -22.977  0.00  0.00    +0.027 C 
ATOM     21  C   UNL     1      32.739  -8.588 -22.448  0.00  0.00    +0.138 C 
ATOM     22  C   UNL     1      33.805 -10.204 -23.894  0.00  0.00    +0.029 C 
ATOM     23  C   UNL     1      34.732  -9.240 -24.288  0.00  0.00    +0.140 C 
ATOM     24  C   UNL     1      33.667  -7.624 -22.842  0.00  0.00    +0.032 C 
ATOM     25  C   UNL     1      34.663  -7.950 -23.762  0.00  0.00    +0.032 C 
ENDBRANCH  17  20
ENDBRANCH   2  17
TORSDOF 5
ENDMDL
MODEL 9
REMARK VINA RESULT:      -9.5      5.581      9.561
REMARK  Name = 446239
REMARK  5 active torsions:
REMARK  status: ('A' for Active; 'I' for Inactive)
REMARK    1  A    between atoms: N_2  and  C_17
REMARK    2  A    between atoms: C_3  and  C_5
REMARK    3  A    between atoms: C_6  and  S_11
REMARK    4  A    between atoms: S_11  and  N_14
REMARK    5  A    between atoms: C_17  and  C_20
REMARK                            x       y       z     vdW  Elec       q    Type
REMARK                         _______ _______ _______ _____ _____    ______ ____
ROOT
ATOM      1  O   UNL     1      33.686 -24.085 -18.783  0.00  0.00    -0.270 OA
ATOM      2  N   UNL     1      34.104 -22.766 -16.922  0.00  0.00    -0.297 N 
ATOM      3  C   UNL     1      34.020 -22.987 -18.302  0.00  0.00    +0.246 C 
ATOM      4  H   UNL     1      34.375 -21.872 -16.609  0.00  0.00    +0.150 HD
ENDROOT
BRANCH   3   5
ATOM      5  C   UNL     1      34.369 -21.875 -19.171  0.00  0.00    +0.053 C 
ATOM      6  C   UNL     1      35.038 -19.740 -20.839  0.00  0.00    +0.122 C 
ATOM      7  C   UNL     1      33.363 -21.098 -19.747  0.00  0.00    +0.006 C 
ATOM      8  C   UNL     1      35.709 -21.584 -19.429  0.00  0.00    +0.006 C 
ATOM      9  C   UNL     1      33.698 -20.031 -20.581  0.00  0.00    +0.020 C 
ATOM     10  C   UNL     1      36.043 -20.518 -20.263  0.00  0.00    +0.020 C 
BRANCH   6  11
ATOM     11  S   UNL     1      35.455 -18.405 -21.882  0.00  0.00    +0.057 S 
ATOM     12  O   UNL     1      36.890 -18.445 -22.129  0.00  0.00    -0.153 OA
ATOM     13  O   UNL     1      34.529 -18.388 -23.007  0.00  0.00    -0.153 OA
BRANCH  11  14
ATOM     14  N   UNL     1      35.107 -17.076 -20.867  0.00  0.00    -0.203 NA
ATOM     15  H   UNL     1      34.852 -16.270 -21.436  0.00  0.00    +0.144 HD
ATOM     16  H   UNL     1      35.930 -16.851 -20.307  0.00  0.00    +0.144 HD
ENDBRANCH  11  14
ENDBRANCH   6  11
ENDBRANCH   3   5
BRANCH   2  17
ATOM     17  C   UNL     1      33.814 -23.777 -15.931  0.00  0.00    +0.119 C 
BRANCH  17  20
ATOM     18  F   UNL     1      33.531 -24.461 -13.205  0.00  0.00    -0.204 F 
ATOM     19  F   UNL     1      38.614 -24.081 -15.188  0.00  0.00    -0.204 F 
ATOM     20  C   UNL     1      34.987 -24.034 -15.030  0.00  0.00    +0.027 C 
ATOM     21  C   UNL     1      34.774 -24.366 -13.697  0.00  0.00    +0.138 C 
ATOM     22  C   UNL     1      36.277 -23.936 -15.540  0.00  0.00    +0.029 C 
ATOM     23  C   UNL     1      37.368 -24.173 -14.705  0.00  0.00    +0.140 C 
ATOM     24  C   UNL     1      35.866 -24.604 -12.863  0.00  0.00    +0.032 C 
ATOM     25  C   UNL     1      37.163 -24.507 -13.367  0.00  0.00    +0.032 C 
ENDBRANCH  17  20
ENDBRANCH   2  17
TORSDOF 5
ENDMDL
