MODEL 1
REMARK VINA RESULT:      -8.3      0.000      0.000
REMARK  Name = 7019
REMARK  1 active torsions:
REMARK  status: ('A' for Active; 'I' for Inactive)
REMARK    1  A    between atoms: C_4  and  N_15
REMARK                            x       y       z     vdW  Elec       q    Type
REMARK                         _______ _______ _______ _____ _____    ______ ____
ROOT
ATOM      1  N   UNL     1      34.529 -15.332 -22.344  0.00  0.00    -0.410 NA
ATOM      2  C   UNL     1      33.935 -15.535 -24.667  0.00  0.00    +0.022 C 
ATOM      3  C   UNL     1      34.610 -17.494 -23.396  0.00  0.00    +0.022 C 
ATOM      4  C   UNL     1      34.187 -16.909 -24.595  0.00  0.00    +0.101 C 
ATOM      5  C   UNL     1      34.122 -14.774 -23.501  0.00  0.00    +0.110 C 
ATOM      6  C   UNL     1      34.770 -16.655 -22.281  0.00  0.00    +0.110 C 
ATOM      7  C   UNL     1      33.509 -14.922 -25.858  0.00  0.00    -0.001 C 
ATOM      8  C   UNL     1      34.870 -18.872 -23.296  0.00  0.00    -0.001 C 
ATOM      9  C   UNL     1      33.873 -13.406 -23.566  0.00  0.00    +0.085 C 
ATOM     10  C   UNL     1      35.191 -17.231 -21.085  0.00  0.00    +0.085 C 
ATOM     11  C   UNL     1      33.267 -13.552 -25.896  0.00  0.00    -0.004 C 
ATOM     12  C   UNL     1      35.290 -19.423 -22.089  0.00  0.00    -0.004 C 
ATOM     13  C   UNL     1      33.449 -12.793 -24.748  0.00  0.00    -0.019 C 
ATOM     14  C   UNL     1      35.451 -18.600 -20.980  0.00  0.00    -0.019 C 
ENDROOT
BRANCH   4  15
ATOM     15  N   UNL     1      34.011 -17.720 -25.750  0.00  0.00    -0.315 NA
ATOM     16  H   UNL     1      34.638 -18.455 -25.935  0.00  0.00    +0.119 HD
ATOM     17  H   UNL     1      33.262 -17.544 -26.365  0.00  0.00    +0.119 HD
ENDBRANCH   4  15
TORSDOF 1
ENDMDL
MODEL 2
REMARK VINA RESULT:      -8.3      0.001      4.660
REMARK  Name = 7019
REMARK  1 active torsions:
REMARK  status: ('A' for Active; 'I' for Inactive)
REMARK    1  A    between atoms: C_4  and  N_15
REMARK                            x       y       z     vdW  Elec       q    Type
REMARK                         _______ _______ _______ _____ _____    ______ ____
ROOT
ATOM      1  N   UNL     1      34.529 -15.332 -22.345  0.00  0.00    -0.410 NA
ATOM      2  C   UNL     1      34.611 -17.495 -23.396  0.00  0.00    +0.022 C 
ATOM      3  C   UNL     1      33.935 -15.537 -24.667  0.00  0.00    +0.022 C 
ATOM      4  C   UNL     1      34.187 -16.911 -24.595  0.00  0.00    +0.101 C 
ATOM      5  C   UNL     1      34.771 -16.656 -22.281  0.00  0.00    +0.110 C 
ATOM      6  C   UNL     1      34.122 -14.775 -23.502  0.00  0.00    +0.110 C 
ATOM      7  C   UNL     1      34.871 -18.872 -23.295  0.00  0.00    -0.001 C 
ATOM      8  C   UNL     1      33.509 -14.924 -25.859  0.00  0.00    -0.001 C 
ATOM      9  C   UNL     1      35.192 -17.231 -21.085  0.00  0.00    +0.085 C 
ATOM     10  C   UNL     1      33.873 -13.407 -23.567  0.00  0.00    +0.085 C 
ATOM     11  C   UNL     1      35.291 -19.423 -22.088  0.00  0.00    -0.004 C 
ATOM     12  C   UNL     1      33.267 -13.554 -25.898  0.00  0.00    -0.004 C 
ATOM     13  C   UNL     1      35.451 -18.600 -20.981  0.00  0.00    -0.019 C 
ATOM     14  C   UNL     1      33.449 -12.794 -24.749  0.00  0.00    -0.019 C 
ENDROOT
BRANCH   4  15
ATOM     15  N   UNL     1      34.012 -17.721 -25.750  0.00  0.00    -0.315 NA
ATOM     16  H   UNL     1      34.146 -17.337 -26.646  0.00  0.00    +0.119 HD
ATOM     17  H   UNL     1      33.756 -18.667 -25.653  0.00  0.00    +0.119 HD
ENDBRANCH   4  15
TORSDOF 1
ENDMDL
MODEL 3
REMARK VINA RESULT:      -8.3      4.486      7.953
REMARK  Name = 7019
REMARK  1 active torsions:
REMARK  status: ('A' for Active; 'I' for Inactive)
REMARK    1  A    between atoms: C_4  and  N_15
REMARK                            x       y       z     vdW  Elec       q    Type
REMARK                         _______ _______ _______ _____ _____    ______ ____
ROOT
ATOM      1  N   UNL     1      36.781 -20.568 -19.133  0.00  0.00    -0.410 NA
ATOM      2  C   UNL     1      34.810 -21.830 -18.575  0.00  0.00    +0.022 C 
ATOM      3  C   UNL     1      34.820 -20.363 -20.512  0.00  0.00    +0.022 C 
ATOM      4  C   UNL     1      34.159 -21.273 -19.681  0.00  0.00    +0.101 C 
ATOM      5  C   UNL     1      36.139 -21.444 -18.336  0.00  0.00    +0.110 C 
ATOM      6  C   UNL     1      36.149 -20.035 -20.196  0.00  0.00    +0.110 C 
ATOM      7  C   UNL     1      34.169 -22.747 -17.724  0.00  0.00    -0.001 C 
ATOM      8  C   UNL     1      34.190 -19.787 -21.629  0.00  0.00    -0.001 C 
ATOM      9  C   UNL     1      36.793 -21.996 -17.237  0.00  0.00    +0.085 C 
ATOM     10  C   UNL     1      36.813 -19.130 -21.020  0.00  0.00    +0.085 C 
ATOM     11  C   UNL     1      34.845 -23.284 -16.631  0.00  0.00    -0.004 C 
ATOM     12  C   UNL     1      34.876 -18.885 -22.437  0.00  0.00    -0.004 C 
ATOM     13  C   UNL     1      36.159 -22.907 -16.388  0.00  0.00    -0.019 C 
ATOM     14  C   UNL     1      36.191 -18.555 -22.131  0.00  0.00    -0.019 C 
ENDROOT
BRANCH   4  15
ATOM     15  N   UNL     1      32.812 -21.634 -19.962  0.00  0.00    -0.315 NA
ATOM     16  H   UNL     1      32.166 -21.733 -19.227  0.00  0.00    +0.119 HD
ATOM     17  H   UNL     1      32.528 -21.786 -20.892  0.00  0.00    +0.119 HD
ENDBRANCH   4  15
TORSDOF 1
ENDMDL
MODEL 4
REMARK VINA RESULT:      -8.2      6.637      8.761
REMARK  Name = 7019
REMARK  1 active torsions:
REMARK  status: ('A' for Active; 'I' for Inactive)
REMARK    1  A    between atoms: C_4  and  N_15
REMARK                            x       y       z     vdW  Elec       q    Type
REMARK                         _______ _______ _______ _____ _____    ______ ____
ROOT
ATOM      1  N   UNL     1      31.192  -9.269 -22.987  0.00  0.00    -0.410 NA
ATOM      2  C   UNL     1      31.840  -7.186 -21.973  0.00  0.00    +0.022 C 
ATOM      3  C   UNL     1      31.859  -9.241 -20.676  0.00  0.00    +0.022 C 
ATOM      4  C   UNL     1      32.069  -7.861 -20.769  0.00  0.00    +0.101 C 
ATOM      5  C   UNL     1      31.396  -7.940 -23.072  0.00  0.00    +0.110 C 
ATOM      6  C   UNL     1      31.414  -9.914 -21.826  0.00  0.00    +0.110 C 
ATOM      7  C   UNL     1      32.044  -5.800 -22.095  0.00  0.00    -0.001 C 
ATOM      8  C   UNL     1      32.081  -9.944 -19.479  0.00  0.00    -0.001 C 
ATOM      9  C   UNL     1      31.166  -7.274 -24.273  0.00  0.00    +0.085 C 
ATOM     10  C   UNL     1      31.202 -11.287 -21.739  0.00  0.00    +0.085 C 
ATOM     11  C   UNL     1      31.807  -5.158 -23.307  0.00  0.00    -0.004 C 
ATOM     12  C   UNL     1      31.862 -11.317 -19.419  0.00  0.00    -0.004 C 
ATOM     13  C   UNL     1      31.367  -5.897 -24.397  0.00  0.00    -0.019 C 
ATOM     14  C   UNL     1      31.421 -11.990 -20.552  0.00  0.00    -0.019 C 
ENDROOT
BRANCH   4  15
ATOM     15  N   UNL     1      32.520  -7.138 -19.631  0.00  0.00    -0.315 NA
ATOM     16  H   UNL     1      32.891  -6.233 -19.738  0.00  0.00    +0.119 HD
ATOM     17  H   UNL     1      32.460  -7.543 -18.735  0.00  0.00    +0.119 HD
ENDBRANCH   4  15
TORSDOF 1
ENDMDL
MODEL 5
REMARK VINA RESULT:      -8.2      6.621      9.877
REMARK  Name = 7019
REMARK  1 active torsions:
REMARK  status: ('A' for Active; 'I' for Inactive)
REMARK    1  A    between atoms: C_4  and  N_15
REMARK                            x       y       z     vdW  Elec       q    Type
REMARK                         _______ _______ _______ _____ _____    ______ ____
ROOT
ATOM      1  N   UNL     1      31.191  -9.267 -23.004  0.00  0.00    -0.410 NA
ATOM      2  C   UNL     1      31.854  -9.253 -20.690  0.00  0.00    +0.022 C 
ATOM      3  C   UNL     1      31.837  -7.190 -21.974  0.00  0.00    +0.022 C 
ATOM      4  C   UNL     1      32.064  -7.873 -20.775  0.00  0.00    +0.101 C 
ATOM      5  C   UNL     1      31.411  -9.919 -21.845  0.00  0.00    +0.110 C 
ATOM      6  C   UNL     1      31.395  -7.937 -23.079  0.00  0.00    +0.110 C 
ATOM      7  C   UNL     1      32.074  -9.964 -19.498  0.00  0.00    -0.001 C 
ATOM      8  C   UNL     1      32.040  -5.804 -22.087  0.00  0.00    -0.001 C 
ATOM      9  C   UNL     1      31.201 -11.293 -21.768  0.00  0.00    +0.085 C 
ATOM     10  C   UNL     1      31.168  -7.264 -24.276  0.00  0.00    +0.085 C 
ATOM     11  C   UNL     1      31.856 -11.338 -19.447  0.00  0.00    -0.004 C 
ATOM     12  C   UNL     1      31.805  -5.154 -23.295  0.00  0.00    -0.004 C 
ATOM     13  C   UNL     1      31.418 -12.003 -20.584  0.00  0.00    -0.019 C 
ATOM     14  C   UNL     1      31.368  -5.886 -24.392  0.00  0.00    -0.019 C 
ENDROOT
BRANCH   4  15
ATOM     15  N   UNL     1      32.512  -7.157 -19.631  0.00  0.00    -0.315 NA
ATOM     16  H   UNL     1      32.881  -7.643 -18.859  0.00  0.00    +0.119 HD
ATOM     17  H   UNL     1      32.452  -6.174 -19.611  0.00  0.00    +0.119 HD
ENDBRANCH   4  15
TORSDOF 1
ENDMDL
MODEL 6
REMARK VINA RESULT:      -8.2      0.885      2.629
REMARK  Name = 7019
REMARK  1 active torsions:
REMARK  status: ('A' for Active; 'I' for Inactive)
REMARK    1  A    between atoms: C_4  and  N_15
REMARK                            x       y       z     vdW  Elec       q    Type
REMARK                         _______ _______ _______ _____ _____    ______ ____
ROOT
ATOM      1  N   UNL     1      33.922 -16.496 -25.695  0.00  0.00    -0.410 NA
ATOM      2  C   UNL     1      33.967 -14.499 -24.352  0.00  0.00    +0.022 C 
ATOM      3  C   UNL     1      34.547 -16.647 -23.376  0.00  0.00    +0.022 C 
ATOM      4  C   UNL     1      34.369 -15.265 -23.254  0.00  0.00    +0.101 C 
ATOM      5  C   UNL     1      33.751 -15.165 -25.570  0.00  0.00    +0.110 C 
ATOM      6  C   UNL     1      34.309 -17.228 -24.633  0.00  0.00    +0.110 C 
ATOM      7  C   UNL     1      33.780 -13.109 -24.257  0.00  0.00    -0.001 C 
ATOM      8  C   UNL     1      34.951 -17.441 -22.289  0.00  0.00    -0.001 C 
ATOM      9  C   UNL     1      33.351 -14.408 -26.668  0.00  0.00    +0.085 C 
ATOM     10  C   UNL     1      34.485 -18.604 -24.762  0.00  0.00    +0.085 C 
ATOM     11  C   UNL     1      33.379 -12.375 -25.370  0.00  0.00    -0.004 C 
ATOM     12  C   UNL     1      35.120 -18.814 -22.444  0.00  0.00    -0.004 C 
ATOM     13  C   UNL     1      33.164 -13.026 -26.577  0.00  0.00    -0.019 C 
ATOM     14  C   UNL     1      34.886 -19.396 -23.683  0.00  0.00    -0.019 C 
ENDROOT
BRANCH   4  15
ATOM     15  N   UNL     1      34.599 -14.634 -22.000  0.00  0.00    -0.315 NA
ATOM     16  H   UNL     1      34.256 -15.042 -21.173  0.00  0.00    +0.119 HD
ATOM     17  H   UNL     1      35.101 -13.788 -21.961  0.00  0.00    +0.119 HD
ENDBRANCH   4  15
TORSDOF 1
ENDMDL
MODEL 7
REMARK VINA RESULT:      -8.2      0.884      5.328
REMARK  Name = 7019
REMARK  1 active torsions:
REMARK  status: ('A' for Active; 'I' for Inactive)
REMARK    1  A    between atoms: C_4  and  N_15
REMARK                            x       y       z     vdW  Elec       q    Type
REMARK                         _______ _______ _______ _____ _____    ______ ____
ROOT
ATOM      1  N   UNL     1      33.921 -16.496 -25.695  0.00  0.00    -0.410 NA
ATOM      2  C   UNL     1      34.545 -16.647 -23.376  0.00  0.00    +0.022 C 
ATOM      3  C   UNL     1      33.964 -14.499 -24.353  0.00  0.00    +0.022 C 
ATOM      4  C   UNL     1      34.366 -15.265 -23.254  0.00  0.00    +0.101 C 
ATOM      5  C   UNL     1      34.309 -17.228 -24.633  0.00  0.00    +0.110 C 
ATOM      6  C   UNL     1      33.750 -15.166 -25.571  0.00  0.00    +0.110 C 
ATOM      7  C   UNL     1      34.949 -17.440 -22.288  0.00  0.00    -0.001 C 
ATOM      8  C   UNL     1      33.776 -13.110 -24.258  0.00  0.00    -0.001 C 
ATOM      9  C   UNL     1      34.486 -18.603 -24.761  0.00  0.00    +0.085 C 
ATOM     10  C   UNL     1      33.349 -14.409 -26.669  0.00  0.00    +0.085 C 
ATOM     11  C   UNL     1      35.119 -18.813 -22.443  0.00  0.00    -0.004 C 
ATOM     12  C   UNL     1      33.375 -12.376 -25.371  0.00  0.00    -0.004 C 
ATOM     13  C   UNL     1      34.887 -19.395 -23.682  0.00  0.00    -0.019 C 
ATOM     14  C   UNL     1      33.161 -13.027 -26.579  0.00  0.00    -0.019 C 
ENDROOT
BRANCH   4  15
ATOM     15  N   UNL     1      34.594 -14.633 -22.000  0.00  0.00    -0.315 NA
ATOM     16  H   UNL     1      34.344 -15.090 -21.166  0.00  0.00    +0.119 HD
ATOM     17  H   UNL     1      35.003 -13.738 -21.968  0.00  0.00    +0.119 HD
ENDBRANCH   4  15
TORSDOF 1
ENDMDL
MODEL 8
REMARK VINA RESULT:      -8.2      4.682      6.863
REMARK  Name = 7019
REMARK  1 active torsions:
REMARK  status: ('A' for Active; 'I' for Inactive)
REMARK    1  A    between atoms: C_4  and  N_15
REMARK                            x       y       z     vdW  Elec       q    Type
REMARK                         _______ _______ _______ _____ _____    ______ ____
ROOT
ATOM      1  N   UNL     1      36.788 -20.740 -18.889  0.00  0.00    -0.410 NA
ATOM      2  C   UNL     1      34.864 -20.531 -20.318  0.00  0.00    +0.022 C 
ATOM      3  C   UNL     1      34.798 -21.991 -18.377  0.00  0.00    +0.022 C 
ATOM      4  C   UNL     1      34.178 -21.435 -19.500  0.00  0.00    +0.101 C 
ATOM      5  C   UNL     1      36.186 -20.207 -19.970  0.00  0.00    +0.110 C 
ATOM      6  C   UNL     1      36.123 -21.609 -18.105  0.00  0.00    +0.110 C 
ATOM      7  C   UNL     1      34.265 -19.957 -21.453  0.00  0.00    -0.001 C 
ATOM      8  C   UNL     1      34.132 -22.901 -17.538  0.00  0.00    -0.001 C 
ATOM      9  C   UNL     1      36.874 -19.308 -20.780  0.00  0.00    +0.085 C 
ATOM     10  C   UNL     1      36.746 -22.159 -16.988  0.00  0.00    +0.085 C 
ATOM     11  C   UNL     1      34.974 -19.061 -22.247  0.00  0.00    -0.004 C 
ATOM     12  C   UNL     1      34.778 -23.436 -16.427  0.00  0.00    -0.004 C 
ATOM     13  C   UNL     1      36.282 -18.736 -21.910  0.00  0.00    -0.019 C 
ATOM     14  C   UNL     1      36.088 -23.064 -16.152  0.00  0.00    -0.019 C 
ENDROOT
BRANCH   4  15
ATOM     15  N   UNL     1      32.837 -21.791 -19.814  0.00  0.00    -0.315 NA
ATOM     16  H   UNL     1      32.089 -21.287 -19.421  0.00  0.00    +0.119 HD
ATOM     17  H   UNL     1      32.658 -22.543 -20.424  0.00  0.00    +0.119 HD
ENDBRANCH   4  15
TORSDOF 1
ENDMDL
MODEL 9
REMARK VINA RESULT:      -8.1      6.786     10.154
REMARK  Name = 7019
REMARK  1 active torsions:
REMARK  status: ('A' for Active; 'I' for Inactive)
REMARK    1  A    between atoms: C_4  and  N_15
REMARK                            x       y       z     vdW  Elec       q    Type
REMARK                         _______ _______ _______ _____ _____    ______ ____
ROOT
ATOM      1  N   UNL     1      32.410 -22.423 -18.053  0.00  0.00    -0.410 NA
ATOM      2  C   UNL     1      33.660 -23.336 -16.210  0.00  0.00    +0.022 C 
ATOM      3  C   UNL     1      34.810 -22.242 -18.050  0.00  0.00    +0.022 C 
ATOM      4  C   UNL     1      34.844 -22.911 -16.822  0.00  0.00    +0.101 C 
ATOM      5  C   UNL     1      32.449 -23.066 -16.870  0.00  0.00    +0.110 C 
ATOM      6  C   UNL     1      33.554 -22.016 -18.638  0.00  0.00    +0.110 C 
ATOM      7  C   UNL     1      33.665 -24.010 -14.977  0.00  0.00    -0.001 C 
ATOM      8  C   UNL     1      35.984 -21.805 -18.688  0.00  0.00    -0.001 C 
ATOM      9  C   UNL     1      31.267 -23.486 -16.266  0.00  0.00    +0.085 C 
ATOM     10  C   UNL     1      33.513 -21.351 -19.860  0.00  0.00    +0.085 C 
ATOM     11  C   UNL     1      32.469 -24.419 -14.394  0.00  0.00    -0.004 C 
ATOM     12  C   UNL     1      35.916 -21.141 -19.910  0.00  0.00    -0.004 C 
ATOM     13  C   UNL     1      31.268 -24.157 -15.040  0.00  0.00    -0.019 C 
ATOM     14  C   UNL     1      34.678 -20.914 -20.497  0.00  0.00    -0.019 C 
ENDROOT
BRANCH   4  15
ATOM     15  N   UNL     1      36.093 -23.162 -16.191  0.00  0.00    -0.315 NA
ATOM     16  H   UNL     1      36.722 -23.807 -16.585  0.00  0.00    +0.119 HD
ATOM     17  H   UNL     1      36.327 -22.690 -15.359  0.00  0.00    +0.119 HD
ENDBRANCH   4  15
TORSDOF 1
ENDMDL
