MODEL 1
REMARK VINA RESULT:      -9.7      0.000      0.000
REMARK  Name = 91801202
REMARK  4 active torsions:
REMARK  status: ('A' for Active; 'I' for Inactive)
REMARK    1  A    between atoms: C_3  and  C_12
REMARK    2  A    between atoms: C_8  and  C_22
REMARK    3  A    between atoms: C_23  and  N_28
REMARK    4  A    between atoms: C_26  and  O_33
REMARK                            x       y       z     vdW  Elec       q    Type
REMARK                         _______ _______ _______ _____ _____    ______ ____
ROOT
ATOM      1  O   UNL     1      31.305 -10.416 -23.136  0.00  0.00    -0.270 OA
ATOM      2  N   UNL     1      33.448  -9.853 -23.874  0.00  0.00    -0.276 N 
ATOM      3  C   UNL     1      33.742 -11.106 -24.622  0.00  0.00    +0.094 C 
ATOM      4  C   UNL     1      35.220 -10.911 -25.060  0.00  0.00    +0.023 C 
ATOM      5  C   UNL     1      35.379  -9.399 -25.158  0.00  0.00    +0.023 C 
ATOM      6  C   UNL     1      34.550  -8.896 -23.990  0.00  0.00    +0.094 C 
ATOM      7  C   UNL     1      32.844 -11.148 -25.879  0.00  0.00    +0.023 C 
ATOM      8  C   UNL     1      32.232  -9.615 -23.235  0.00  0.00    +0.250 C 
ENDROOT
BRANCH   3  12
ATOM      9 CL   UNL     1      34.009 -17.826 -20.957  0.00  0.00    -0.083 Cl
ATOM     10  N   UNL     1      32.851 -12.366 -22.617  0.00  0.00    -0.317 N 
ATOM     11  N   UNL     1      34.260 -13.498 -23.910  0.00  0.00    -0.317 N 
ATOM     12  C   UNL     1      33.641 -12.352 -23.732  0.00  0.00    +0.161 C 
ATOM     13  C   UNL     1      32.968 -13.603 -22.037  0.00  0.00    +0.059 C 
ATOM     14  C   UNL     1      33.852 -14.291 -22.863  0.00  0.00    +0.056 C 
ATOM     15  C   UNL     1      34.196 -15.616 -22.546  0.00  0.00    +0.003 C 
ATOM     16  C   UNL     1      32.393 -14.164 -20.895  0.00  0.00    +0.016 C 
ATOM     17  C   UNL     1      33.630 -16.199 -21.405  0.00  0.00    +0.055 C 
ATOM     18  C   UNL     1      32.745 -15.483 -20.595  0.00  0.00    +0.012 C 
ATOM     19  C   UNL     1      35.143 -16.389 -23.408  0.00  0.00    +0.033 C 
ATOM     20  H   UNL     1      32.297 -11.622 -22.288  0.00  0.00    +0.148 HD
ATOM     21  H   UNL     1      34.882 -13.736 -24.636  0.00  0.00    +0.148 HD
ENDBRANCH   3  12
BRANCH   8  22
ATOM     22  C   UNL     1      32.037  -8.296 -22.613  0.00  0.00    +0.074 C 
ATOM     23  C   UNL     1      31.827  -8.158 -21.241  0.00  0.00    +0.098 C 
ATOM     24  C   UNL     1      32.064  -7.166 -23.431  0.00  0.00    +0.043 C 
ATOM     25  C   UNL     1      31.644  -6.891 -20.686  0.00  0.00    +0.022 C 
ATOM     26  C   UNL     1      31.882  -5.899 -22.877  0.00  0.00    +0.139 C 
ATOM     27  C   UNL     1      31.672  -5.762 -21.504  0.00  0.00    +0.038 C 
BRANCH  23  28
ATOM     28  N   UNL     1      31.796  -9.265 -20.408  0.00  0.00    -0.109 N 
ATOM     29  N   UNL     1      32.547  -9.306 -19.295  0.00  0.00    -0.154 NA
ATOM     30  N   UNL     1      31.016 -10.318 -20.694  0.00  0.00    -0.154 NA
ATOM     31  C   UNL     1      32.220 -10.509 -18.814  0.00  0.00    +0.142 C 
ATOM     32  C   UNL     1      31.289 -11.123 -19.664  0.00  0.00    +0.142 C 
ENDBRANCH  23  28
BRANCH  26  33
ATOM     33  O   UNL     1      31.910  -4.796 -23.674  0.00  0.00    -0.471 OA
ATOM     34  C   UNL     1      31.066  -4.805 -24.825  0.00  0.00    +0.252 C 
ENDBRANCH  26  33
ENDBRANCH   8  22
TORSDOF 4
ENDMDL
MODEL 2
REMARK VINA RESULT:      -8.3      3.722      8.190
REMARK  Name = 91801202
REMARK  4 active torsions:
REMARK  status: ('A' for Active; 'I' for Inactive)
REMARK    1  A    between atoms: C_3  and  C_12
REMARK    2  A    between atoms: C_8  and  C_22
REMARK    3  A    between atoms: C_23  and  N_28
REMARK    4  A    between atoms: C_26  and  O_33
REMARK                            x       y       z     vdW  Elec       q    Type
REMARK                         _______ _______ _______ _____ _____    ______ ____
ROOT
ATOM      1  O   UNL     1      31.859  -9.482 -24.613  0.00  0.00    -0.270 OA
ATOM      2  N   UNL     1      32.404  -8.658 -22.497  0.00  0.00    -0.276 N 
ATOM      3  C   UNL     1      31.939  -7.257 -22.698  0.00  0.00    +0.094 C 
ATOM      4  C   UNL     1      32.375  -6.555 -21.382  0.00  0.00    +0.023 C 
ATOM      5  C   UNL     1      32.375  -7.674 -20.349  0.00  0.00    +0.023 C 
ATOM      6  C   UNL     1      32.903  -8.860 -21.136  0.00  0.00    +0.094 C 
ATOM      7  C   UNL     1      30.396  -7.261 -22.781  0.00  0.00    +0.023 C 
ATOM      8  C   UNL     1      32.279  -9.648 -23.470  0.00  0.00    +0.250 C 
ENDROOT
BRANCH   3  12
ATOM      9 CL   UNL     1      34.397  -3.226 -28.729  0.00  0.00    -0.083 Cl
ATOM     10  N   UNL     1      33.900  -6.930 -24.262  0.00  0.00    -0.317 N 
ATOM     11  N   UNL     1      32.140  -5.630 -24.649  0.00  0.00    -0.317 N 
ATOM     12  C   UNL     1      32.635  -6.578 -23.885  0.00  0.00    +0.161 C 
ATOM     13  C   UNL     1      34.245  -6.157 -25.342  0.00  0.00    +0.059 C 
ATOM     14  C   UNL     1      33.130  -5.354 -25.564  0.00  0.00    +0.056 C 
ATOM     15  C   UNL     1      33.152  -4.427 -26.619  0.00  0.00    +0.003 C 
ATOM     16  C   UNL     1      35.402  -6.093 -26.120  0.00  0.00    +0.016 C 
ATOM     17  C   UNL     1      34.303  -4.346 -27.413  0.00  0.00    +0.055 C 
ATOM     18  C   UNL     1      35.407  -5.165 -27.166  0.00  0.00    +0.012 C 
ATOM     19  C   UNL     1      31.973  -3.546 -26.889  0.00  0.00    +0.033 C 
ATOM     20  H   UNL     1      34.465  -7.614 -23.836  0.00  0.00    +0.148 HD
ATOM     21  H   UNL     1      31.252  -5.208 -24.581  0.00  0.00    +0.148 HD
ENDBRANCH   3  12
BRANCH   8  22
ATOM     22  C   UNL     1      32.690 -11.014 -23.108  0.00  0.00    +0.074 C 
ATOM     23  C   UNL     1      33.758 -11.648 -23.743  0.00  0.00    +0.098 C 
ATOM     24  C   UNL     1      31.984 -11.676 -22.103  0.00  0.00    +0.043 C 
ATOM     25  C   UNL     1      34.119 -12.944 -23.375  0.00  0.00    +0.022 C 
ATOM     26  C   UNL     1      32.346 -12.971 -21.734  0.00  0.00    +0.139 C 
ATOM     27  C   UNL     1      33.414 -13.605 -22.369  0.00  0.00    +0.038 C 
BRANCH  23  28
ATOM     28  N   UNL     1      34.475 -11.011 -24.743  0.00  0.00    -0.109 N 
ATOM     29  N   UNL     1      34.438 -11.464 -26.007  0.00  0.00    -0.154 NA
ATOM     30  N   UNL     1      35.220  -9.929 -24.472  0.00  0.00    -0.154 NA
ATOM     31  C   UNL     1      35.243 -10.586 -26.614  0.00  0.00    +0.142 C 
ATOM     32  C   UNL     1      35.717  -9.653 -25.680  0.00  0.00    +0.142 C 
ENDBRANCH  23  28
BRANCH  26  33
ATOM     33  O   UNL     1      31.659 -13.617 -20.752  0.00  0.00    -0.471 OA
ATOM     34  C   UNL     1      32.257 -14.792 -20.206  0.00  0.00    +0.252 C 
ENDBRANCH  26  33
ENDBRANCH   8  22
TORSDOF 4
ENDMDL
MODEL 3
REMARK VINA RESULT:      -8.3      3.321      8.143
REMARK  Name = 91801202
REMARK  4 active torsions:
REMARK  status: ('A' for Active; 'I' for Inactive)
REMARK    1  A    between atoms: C_3  and  C_12
REMARK    2  A    between atoms: C_8  and  C_22
REMARK    3  A    between atoms: C_23  and  N_28
REMARK    4  A    between atoms: C_26  and  O_33
REMARK                            x       y       z     vdW  Elec       q    Type
REMARK                         _______ _______ _______ _____ _____    ______ ____
ROOT
ATOM      1  O   UNL     1      31.926 -12.452 -24.093  0.00  0.00    -0.270 OA
ATOM      2  N   UNL     1      32.250 -12.346 -21.783  0.00  0.00    -0.276 N 
ATOM      3  C   UNL     1      31.481 -11.096 -21.527  0.00  0.00    +0.094 C 
ATOM      4  C   UNL     1      31.734 -10.836 -20.016  0.00  0.00    +0.023 C 
ATOM      5  C   UNL     1      31.978 -12.224 -19.439  0.00  0.00    +0.023 C 
ATOM      6  C   UNL     1      32.769 -12.912 -20.537  0.00  0.00    +0.094 C 
ATOM      7  C   UNL     1      29.980 -11.391 -21.745  0.00  0.00    +0.023 C 
ATOM      8  C   UNL     1      32.362 -12.925 -23.045  0.00  0.00    +0.250 C 
ENDROOT
BRANCH   3  12
ATOM      9 CL   UNL     1      33.014  -4.771 -25.565  0.00  0.00    -0.083 Cl
ATOM     10  N   UNL     1      33.338  -9.816 -22.675  0.00  0.00    -0.317 N 
ATOM     11  N   UNL     1      31.322  -8.887 -22.788  0.00  0.00    -0.317 N 
ATOM     12  C   UNL     1      32.017  -9.908 -22.338  0.00  0.00    +0.161 C 
ATOM     13  C   UNL     1      33.507  -8.658 -23.391  0.00  0.00    +0.059 C 
ATOM     14  C   UNL     1      32.235  -8.097 -23.448  0.00  0.00    +0.056 C 
ATOM     15  C   UNL     1      32.053  -6.878 -24.123  0.00  0.00    +0.003 C 
ATOM     16  C   UNL     1      34.630  -8.071 -23.976  0.00  0.00    +0.016 C 
ATOM     17  C   UNL     1      33.167  -6.272 -24.718  0.00  0.00    +0.055 C 
ATOM     18  C   UNL     1      34.432  -6.860 -24.644  0.00  0.00    +0.012 C 
ATOM     19  C   UNL     1      30.702  -6.242 -24.206  0.00  0.00    +0.033 C 
ATOM     20  H   UNL     1      34.042 -10.464 -22.446  0.00  0.00    +0.148 HD
ATOM     21  H   UNL     1      30.357  -8.723 -22.677  0.00  0.00    +0.148 HD
ENDBRANCH   3  12
BRANCH   8  22
ATOM     22  C   UNL     1      33.068 -14.212 -23.143  0.00  0.00    +0.074 C 
ATOM     23  C   UNL     1      33.578 -14.675 -24.356  0.00  0.00    +0.098 C 
ATOM     24  C   UNL     1      33.223 -14.975 -21.986  0.00  0.00    +0.043 C 
ATOM     25  C   UNL     1      34.242 -15.901 -24.412  0.00  0.00    +0.022 C 
ATOM     26  C   UNL     1      33.887 -16.200 -22.041  0.00  0.00    +0.139 C 
ATOM     27  C   UNL     1      34.397 -16.663 -23.254  0.00  0.00    +0.038 C 
BRANCH  23  28
ATOM     28  N   UNL     1      33.438 -13.936 -25.520  0.00  0.00    -0.109 N 
ATOM     29  N   UNL     1      34.121 -12.793 -25.692  0.00  0.00    -0.154 NA
ATOM     30  N   UNL     1      32.618 -14.346 -26.500  0.00  0.00    -0.154 NA
ATOM     31  C   UNL     1      33.699 -12.426 -26.906  0.00  0.00    +0.142 C 
ATOM     32  C   UNL     1      32.786 -13.371 -27.396  0.00  0.00    +0.142 C 
ENDBRANCH  23  28
BRANCH  26  33
ATOM     33  O   UNL     1      34.040 -16.944 -20.911  0.00  0.00    -0.471 OA
ATOM     34  C   UNL     1      34.754 -18.173 -21.034  0.00  0.00    +0.252 C 
ENDBRANCH  26  33
ENDBRANCH   8  22
TORSDOF 4
ENDMDL
MODEL 4
REMARK VINA RESULT:      -7.9      3.042      7.956
REMARK  Name = 91801202
REMARK  4 active torsions:
REMARK  status: ('A' for Active; 'I' for Inactive)
REMARK    1  A    between atoms: C_3  and  C_12
REMARK    2  A    between atoms: C_8  and  C_22
REMARK    3  A    between atoms: C_23  and  N_28
REMARK    4  A    between atoms: C_26  and  O_33
REMARK                            x       y       z     vdW  Elec       q    Type
REMARK                         _______ _______ _______ _____ _____    ______ ____
ROOT
ATOM      1  O   UNL     1      31.787 -12.507 -23.823  0.00  0.00    -0.270 OA
ATOM      2  N   UNL     1      32.206 -12.412 -21.528  0.00  0.00    -0.276 N 
ATOM      3  C   UNL     1      31.437 -11.171 -21.231  0.00  0.00    +0.094 C 
ATOM      4  C   UNL     1      31.751 -10.919 -19.731  0.00  0.00    +0.023 C 
ATOM      5  C   UNL     1      32.033 -12.308 -19.174  0.00  0.00    +0.023 C 
ATOM      6  C   UNL     1      32.784 -12.981 -20.309  0.00  0.00    +0.094 C 
ATOM      7  C   UNL     1      29.931 -11.481 -21.388  0.00  0.00    +0.023 C 
ATOM      8  C   UNL     1      32.271 -12.982 -22.798  0.00  0.00    +0.250 C 
ENDROOT
BRANCH   3  12
ATOM      9 CL   UNL     1      34.763  -5.920 -25.706  0.00  0.00    -0.083 Cl
ATOM     10  N   UNL     1      31.257  -8.781 -22.041  0.00  0.00    -0.317 N 
ATOM     11  N   UNL     1      32.981  -9.934 -22.837  0.00  0.00    -0.317 N 
ATOM     12  C   UNL     1      31.925  -9.973 -22.056  0.00  0.00    +0.161 C 
ATOM     13  C   UNL     1      31.927  -7.915 -22.867  0.00  0.00    +0.059 C 
ATOM     14  C   UNL     1      33.000  -8.658 -23.351  0.00  0.00    +0.056 C 
ATOM     15  C   UNL     1      33.903  -8.056 -24.243  0.00  0.00    +0.003 C 
ATOM     16  C   UNL     1      31.695  -6.585 -23.221  0.00  0.00    +0.016 C 
ATOM     17  C   UNL     1      33.689  -6.722 -24.612  0.00  0.00    +0.055 C 
ATOM     18  C   UNL     1      32.603  -6.002 -24.108  0.00  0.00    +0.012 C 
ATOM     19  C   UNL     1      35.068  -8.822 -24.786  0.00  0.00    +0.033 C 
ATOM     20  H   UNL     1      30.440  -8.579 -21.529  0.00  0.00    +0.148 HD
ATOM     21  H   UNL     1      33.621 -10.661 -23.016  0.00  0.00    +0.148 HD
ENDBRANCH   3  12
BRANCH   8  22
ATOM     22  C   UNL     1      32.986 -14.260 -22.935  0.00  0.00    +0.074 C 
ATOM     23  C   UNL     1      33.617 -14.621 -24.126  0.00  0.00    +0.098 C 
ATOM     24  C   UNL     1      33.024 -15.121 -21.838  0.00  0.00    +0.043 C 
ATOM     25  C   UNL     1      34.285 -15.842 -24.219  0.00  0.00    +0.022 C 
ATOM     26  C   UNL     1      33.693 -16.341 -21.930  0.00  0.00    +0.139 C 
ATOM     27  C   UNL     1      34.323 -16.702 -23.121  0.00  0.00    +0.038 C 
BRANCH  23  28
ATOM     28  N   UNL     1      33.594 -13.784 -25.229  0.00  0.00    -0.109 N 
ATOM     29  N   UNL     1      32.975 -14.158 -26.361  0.00  0.00    -0.154 NA
ATOM     30  N   UNL     1      34.188 -12.581 -25.191  0.00  0.00    -0.154 NA
ATOM     31  C   UNL     1      33.193 -13.090 -27.133  0.00  0.00    +0.142 C 
ATOM     32  C   UNL     1      33.929 -12.132 -26.422  0.00  0.00    +0.142 C 
ENDBRANCH  23  28
BRANCH  26  33
ATOM     33  O   UNL     1      33.731 -17.180 -20.859  0.00  0.00    -0.471 OA
ATOM     34  C   UNL     1      34.108 -18.534 -21.108  0.00  0.00    +0.252 C 
ENDBRANCH  26  33
ENDBRANCH   8  22
TORSDOF 4
ENDMDL
MODEL 5
REMARK VINA RESULT:      -7.6     10.982     15.208
REMARK  Name = 91801202
REMARK  4 active torsions:
REMARK  status: ('A' for Active; 'I' for Inactive)
REMARK    1  A    between atoms: C_3  and  C_12
REMARK    2  A    between atoms: C_8  and  C_22
REMARK    3  A    between atoms: C_23  and  N_28
REMARK    4  A    between atoms: C_26  and  O_33
REMARK                            x       y       z     vdW  Elec       q    Type
REMARK                         _______ _______ _______ _____ _____    ______ ____
ROOT
ATOM      1  O   UNL     1      35.095 -24.262 -16.403  0.00  0.00    -0.270 OA
ATOM      2  N   UNL     1      33.230 -23.407 -15.288  0.00  0.00    -0.276 N 
ATOM      3  C   UNL     1      32.291 -23.390 -16.444  0.00  0.00    +0.094 C 
ATOM      4  C   UNL     1      31.028 -22.704 -15.855  0.00  0.00    +0.023 C 
ATOM      5  C   UNL     1      31.084 -23.039 -14.370  0.00  0.00    +0.023 C 
ATOM      6  C   UNL     1      32.568 -22.957 -14.062  0.00  0.00    +0.094 C 
ATOM      7  C   UNL     1      31.947 -24.851 -16.815  0.00  0.00    +0.023 C 
ATOM      8  C   UNL     1      34.537 -23.883 -15.375  0.00  0.00    +0.250 C 
ENDROOT
BRANCH   3  12
ATOM      9 CL   UNL     1      36.017 -19.661 -21.999  0.00  0.00    -0.083 Cl
ATOM     10  N   UNL     1      31.991 -21.755 -18.351  0.00  0.00    -0.317 N 
ATOM     11  N   UNL     1      34.066 -22.484 -18.032  0.00  0.00    -0.317 N 
ATOM     12  C   UNL     1      32.822 -22.549 -17.612  0.00  0.00    +0.161 C 
ATOM     13  C   UNL     1      32.749 -21.135 -19.312  0.00  0.00    +0.059 C 
ATOM     14  C   UNL     1      34.040 -21.607 -19.091  0.00  0.00    +0.056 C 
ATOM     15  C   UNL     1      35.083 -21.161 -19.920  0.00  0.00    +0.003 C 
ATOM     16  C   UNL     1      32.426 -20.230 -20.324  0.00  0.00    +0.016 C 
ATOM     17  C   UNL     1      34.781 -20.251 -20.943  0.00  0.00    +0.055 C 
ATOM     18  C   UNL     1      33.475 -19.796 -21.139  0.00  0.00    +0.012 C 
ATOM     19  C   UNL     1      36.484 -21.644 -19.717  0.00  0.00    +0.033 C 
ATOM     20  H   UNL     1      31.022 -21.646 -18.218  0.00  0.00    +0.148 HD
ATOM     21  H   UNL     1      34.847 -22.961 -17.668  0.00  0.00    +0.148 HD
ENDBRANCH   3  12
BRANCH   8  22
ATOM     22  C   UNL     1      35.328 -23.933 -14.135  0.00  0.00    +0.074 C 
ATOM     23  C   UNL     1      36.604 -23.376 -14.061  0.00  0.00    +0.098 C 
ATOM     24  C   UNL     1      34.772 -24.556 -13.018  0.00  0.00    +0.043 C 
ATOM     25  C   UNL     1      37.326 -23.443 -12.868  0.00  0.00    +0.022 C 
ATOM     26  C   UNL     1      35.493 -24.622 -11.826  0.00  0.00    +0.139 C 
ATOM     27  C   UNL     1      36.770 -24.065 -11.751  0.00  0.00    +0.038 C 
BRANCH  23  28
ATOM     28  N   UNL     1      37.177 -22.751 -15.156  0.00  0.00    -0.109 N 
ATOM     29  N   UNL     1      36.644 -21.626 -15.660  0.00  0.00    -0.154 NA
ATOM     30  N   UNL     1      38.277 -23.255 -15.737  0.00  0.00    -0.154 NA
ATOM     31  C   UNL     1      37.484 -21.379 -16.670  0.00  0.00    +0.142 C 
ATOM     32  C   UNL     1      38.477 -22.369 -16.715  0.00  0.00    +0.142 C 
ENDBRANCH  23  28
BRANCH  26  33
ATOM     33  O   UNL     1      34.951 -25.229 -10.734  0.00  0.00    -0.471 OA
ATOM     34  C   UNL     1      35.325 -24.719  -9.455  0.00  0.00    +0.252 C 
ENDBRANCH  26  33
ENDBRANCH   8  22
TORSDOF 4
ENDMDL
MODEL 6
REMARK VINA RESULT:      -7.3      3.403      7.761
REMARK  Name = 91801202
REMARK  4 active torsions:
REMARK  status: ('A' for Active; 'I' for Inactive)
REMARK    1  A    between atoms: C_3  and  C_12
REMARK    2  A    between atoms: C_8  and  C_22
REMARK    3  A    between atoms: C_23  and  N_28
REMARK    4  A    between atoms: C_26  and  O_33
REMARK                            x       y       z     vdW  Elec       q    Type
REMARK                         _______ _______ _______ _____ _____    ______ ____
ROOT
ATOM      1  O   UNL     1      35.069 -13.903 -23.302  0.00  0.00    -0.270 OA
ATOM      2  N   UNL     1      33.528 -14.095 -25.046  0.00  0.00    -0.276 N 
ATOM      3  C   UNL     1      33.498 -12.661 -25.450  0.00  0.00    +0.094 C 
ATOM      4  C   UNL     1      32.388 -12.630 -26.537  0.00  0.00    +0.023 C 
ATOM      5  C   UNL     1      32.410 -14.035 -27.127  0.00  0.00    +0.023 C 
ATOM      6  C   UNL     1      32.672 -14.907 -25.912  0.00  0.00    +0.094 C 
ATOM      7  C   UNL     1      34.854 -12.308 -26.102  0.00  0.00    +0.023 C 
ATOM      8  C   UNL     1      34.348 -14.582 -24.030  0.00  0.00    +0.250 C 
ENDROOT
BRANCH   3  12
ATOM      9 CL   UNL     1      32.045  -7.193 -20.288  0.00  0.00    -0.083 Cl
ATOM     10  N   UNL     1      32.384 -12.211 -23.224  0.00  0.00    -0.317 N 
ATOM     11  N   UNL     1      33.359 -10.457 -24.179  0.00  0.00    -0.317 N 
ATOM     12  C   UNL     1      33.094 -11.740 -24.292  0.00  0.00    +0.161 C 
ATOM     13  C   UNL     1      32.177 -11.163 -22.363  0.00  0.00    +0.059 C 
ATOM     14  C   UNL     1      32.795 -10.080 -22.982  0.00  0.00    +0.056 C 
ATOM     15  C   UNL     1      32.768  -8.824 -22.352  0.00  0.00    +0.003 C 
ATOM     16  C   UNL     1      31.522 -11.072 -21.134  0.00  0.00    +0.016 C 
ATOM     17  C   UNL     1      32.116  -8.710 -21.117  0.00  0.00    +0.055 C 
ATOM     18  C   UNL     1      31.505  -9.815 -20.522  0.00  0.00    +0.012 C 
ATOM     19  C   UNL     1      33.421  -7.636 -22.984  0.00  0.00    +0.033 C 
ATOM     20  H   UNL     1      32.075 -13.136 -23.094  0.00  0.00    +0.148 HD
ATOM     21  H   UNL     1      33.854  -9.890 -24.813  0.00  0.00    +0.148 HD
ENDBRANCH   3  12
BRANCH   8  22
ATOM     22  C   UNL     1      34.352 -16.035 -23.797  0.00  0.00    +0.074 C 
ATOM     23  C   UNL     1      34.077 -16.574 -22.540  0.00  0.00    +0.098 C 
ATOM     24  C   UNL     1      34.641 -16.879 -24.869  0.00  0.00    +0.043 C 
ATOM     25  C   UNL     1      34.091 -17.957 -22.355  0.00  0.00    +0.022 C 
ATOM     26  C   UNL     1      34.654 -18.262 -24.685  0.00  0.00    +0.139 C 
ATOM     27  C   UNL     1      34.379 -18.800 -23.428  0.00  0.00    +0.038 C 
BRANCH  23  28
ATOM     28  N   UNL     1      33.787 -15.757 -21.460  0.00  0.00    -0.109 N 
ATOM     29  N   UNL     1      32.579 -15.184 -21.339  0.00  0.00    -0.154 NA
ATOM     30  N   UNL     1      34.706 -15.521 -20.511  0.00  0.00    -0.154 NA
ATOM     31  C   UNL     1      32.732 -14.508 -20.196  0.00  0.00    +0.142 C 
ATOM     32  C   UNL     1      34.026 -14.713 -19.694  0.00  0.00    +0.142 C 
ENDBRANCH  23  28
BRANCH  26  33
ATOM     33  O   UNL     1      34.934 -19.086 -25.732  0.00  0.00    -0.471 OA
ATOM     34  C   UNL     1      34.985 -20.486 -25.460  0.00  0.00    +0.252 C 
ENDBRANCH  26  33
ENDBRANCH   8  22
TORSDOF 4
ENDMDL
MODEL 7
REMARK VINA RESULT:      -7.1      2.047      3.719
REMARK  Name = 91801202
REMARK  4 active torsions:
REMARK  status: ('A' for Active; 'I' for Inactive)
REMARK    1  A    between atoms: C_3  and  C_12
REMARK    2  A    between atoms: C_8  and  C_22
REMARK    3  A    between atoms: C_23  and  N_28
REMARK    4  A    between atoms: C_26  and  O_33
REMARK                            x       y       z     vdW  Elec       q    Type
REMARK                         _______ _______ _______ _____ _____    ______ ____
ROOT
ATOM      1  O   UNL     1      31.499 -11.466 -22.938  0.00  0.00    -0.270 OA
ATOM      2  N   UNL     1      33.455 -10.343 -23.541  0.00  0.00    -0.276 N 
ATOM      3  C   UNL     1      33.731 -11.079 -24.806  0.00  0.00    +0.094 C 
ATOM      4  C   UNL     1      35.106 -10.507 -25.248  0.00  0.00    +0.023 C 
ATOM      5  C   UNL     1      35.130  -9.103 -24.657  0.00  0.00    +0.023 C 
ATOM      6  C   UNL     1      34.449  -9.292 -23.313  0.00  0.00    +0.094 C 
ATOM      7  C   UNL     1      32.660 -10.681 -25.847  0.00  0.00    +0.023 C 
ATOM      8  C   UNL     1      32.335 -10.585 -22.748  0.00  0.00    +0.250 C 
ENDROOT
BRANCH   3  12
ATOM      9 CL   UNL     1      34.645 -18.339 -22.544  0.00  0.00    -0.083 Cl
ATOM     10  N   UNL     1      33.673 -13.480 -25.603  0.00  0.00    -0.317 N 
ATOM     11  N   UNL     1      34.159 -13.195 -23.453  0.00  0.00    -0.317 N 
ATOM     12  C   UNL     1      33.864 -12.591 -24.582  0.00  0.00    +0.161 C 
ATOM     13  C   UNL     1      33.858 -14.742 -25.098  0.00  0.00    +0.059 C 
ATOM     14  C   UNL     1      34.161 -14.538 -23.755  0.00  0.00    +0.056 C 
ATOM     15  C   UNL     1      34.411 -15.648 -22.933  0.00  0.00    +0.003 C 
ATOM     16  C   UNL     1      33.789 -16.007 -25.684  0.00  0.00    +0.016 C 
ATOM     17  C   UNL     1      34.348 -16.928 -23.500  0.00  0.00    +0.055 C 
ATOM     18  C   UNL     1      34.041 -17.101 -24.851  0.00  0.00    +0.012 C 
ATOM     19  C   UNL     1      34.740 -15.470 -21.484  0.00  0.00    +0.033 C 
ATOM     20  H   UNL     1      33.443 -13.256 -26.533  0.00  0.00    +0.148 HD
ATOM     21  H   UNL     1      34.340 -12.778 -22.580  0.00  0.00    +0.148 HD
ENDBRANCH   3  12
BRANCH   8  22
ATOM     22  C   UNL     1      32.132  -9.721 -21.575  0.00  0.00    +0.074 C 
ATOM     23  C   UNL     1      31.868  -8.358 -21.709  0.00  0.00    +0.098 C 
ATOM     24  C   UNL     1      32.210 -10.295 -20.306  0.00  0.00    +0.043 C 
ATOM     25  C   UNL     1      31.682  -7.568 -20.574  0.00  0.00    +0.022 C 
ATOM     26  C   UNL     1      32.022  -9.506 -19.171  0.00  0.00    +0.139 C 
ATOM     27  C   UNL     1      31.759  -8.143 -19.305  0.00  0.00    +0.038 C 
BRANCH  23  28
ATOM     28  N   UNL     1      31.786  -7.764 -22.958  0.00  0.00    -0.109 N 
ATOM     29  N   UNL     1      32.685  -6.842 -23.339  0.00  0.00    -0.154 NA
ATOM     30  N   UNL     1      30.808  -8.099 -23.814  0.00  0.00    -0.154 NA
ATOM     31  C   UNL     1      32.242  -6.549 -24.566  0.00  0.00    +0.142 C 
ATOM     32  C   UNL     1      31.101  -7.314 -24.853  0.00  0.00    +0.142 C 
ENDBRANCH  23  28
BRANCH  26  33
ATOM     33  O   UNL     1      32.096 -10.066 -17.932  0.00  0.00    -0.471 OA
ATOM     34  C   UNL     1      31.303 -11.229 -17.697  0.00  0.00    +0.252 C 
ENDBRANCH  26  33
ENDBRANCH   8  22
TORSDOF 4
ENDMDL
MODEL 8
REMARK VINA RESULT:      -7.1      3.815      7.979
REMARK  Name = 91801202
REMARK  4 active torsions:
REMARK  status: ('A' for Active; 'I' for Inactive)
REMARK    1  A    between atoms: C_3  and  C_12
REMARK    2  A    between atoms: C_8  and  C_22
REMARK    3  A    between atoms: C_23  and  N_28
REMARK    4  A    between atoms: C_26  and  O_33
REMARK                            x       y       z     vdW  Elec       q    Type
REMARK                         _______ _______ _______ _____ _____    ______ ____
ROOT
ATOM      1  O   UNL     1      30.998  -8.367 -24.194  0.00  0.00    -0.270 OA
ATOM      2  N   UNL     1      32.451  -7.762 -22.470  0.00  0.00    -0.276 N 
ATOM      3  C   UNL     1      31.793  -6.481 -22.089  0.00  0.00    +0.094 C 
ATOM      4  C   UNL     1      32.758  -5.900 -21.019  0.00  0.00    +0.023 C 
ATOM      5  C   UNL     1      33.414  -7.131 -20.407  0.00  0.00    +0.023 C 
ATOM      6  C   UNL     1      33.596  -8.047 -21.603  0.00  0.00    +0.094 C 
ATOM      7  C   UNL     1      30.437  -6.806 -21.424  0.00  0.00    +0.023 C 
ATOM      8  C   UNL     1      31.959  -8.604 -23.466  0.00  0.00    +0.250 C 
ENDROOT
BRANCH   3  12
ATOM      9 CL   UNL     1      32.150  -2.308 -28.502  0.00  0.00    -0.083 Cl
ATOM     10  N   UNL     1      30.871  -4.418 -23.227  0.00  0.00    -0.317 N 
ATOM     11  N   UNL     1      32.365  -5.572 -24.400  0.00  0.00    -0.317 N 
ATOM     12  C   UNL     1      31.701  -5.502 -23.268  0.00  0.00    +0.161 C 
ATOM     13  C   UNL     1      31.008  -3.741 -24.412  0.00  0.00    +0.059 C 
ATOM     14  C   UNL     1      31.946  -4.481 -25.127  0.00  0.00    +0.056 C 
ATOM     15  C   UNL     1      32.321  -4.053 -26.412  0.00  0.00    +0.003 C 
ATOM     16  C   UNL     1      30.410  -2.580 -24.906  0.00  0.00    +0.016 C 
ATOM     17  C   UNL     1      31.734  -2.890 -26.927  0.00  0.00    +0.055 C 
ATOM     18  C   UNL     1      30.795  -2.169 -26.185  0.00  0.00    +0.012 C 
ATOM     19  C   UNL     1      33.325  -4.821 -27.212  0.00  0.00    +0.033 C 
ATOM     20  H   UNL     1      30.280  -4.166 -22.481  0.00  0.00    +0.148 HD
ATOM     21  H   UNL     1      33.019  -6.256 -24.670  0.00  0.00    +0.148 HD
ENDBRANCH   3  12
BRANCH   8  22
ATOM     22  C   UNL     1      32.649  -9.886 -23.676  0.00  0.00    +0.074 C 
ATOM     23  C   UNL     1      32.509 -10.946 -22.780  0.00  0.00    +0.098 C 
ATOM     24  C   UNL     1      33.461 -10.027 -24.802  0.00  0.00    +0.043 C 
ATOM     25  C   UNL     1      33.180 -12.148 -23.011  0.00  0.00    +0.022 C 
ATOM     26  C   UNL     1      34.131 -11.228 -25.033  0.00  0.00    +0.139 C 
ATOM     27  C   UNL     1      33.990 -12.288 -24.138  0.00  0.00    +0.038 C 
BRANCH  23  28
ATOM     28  N   UNL     1      31.709 -10.831 -21.656  0.00  0.00    -0.109 N 
ATOM     29  N   UNL     1      32.211 -10.360 -20.503  0.00  0.00    -0.154 NA
ATOM     30  N   UNL     1      30.416 -11.188 -21.693  0.00  0.00    -0.154 NA
ATOM     31  C   UNL     1      31.133 -10.418 -19.715  0.00  0.00    +0.142 C 
ATOM     32  C   UNL     1      30.042 -10.922 -20.439  0.00  0.00    +0.142 C 
ENDBRANCH  23  28
BRANCH  26  33
ATOM     33  O   UNL     1      34.921 -11.366 -26.133  0.00  0.00    -0.471 OA
ATOM     34  C   UNL     1      35.812 -10.292 -26.431  0.00  0.00    +0.252 C 
ENDBRANCH  26  33
ENDBRANCH   8  22
TORSDOF 4
ENDMDL
MODEL 9
REMARK VINA RESULT:      -6.8      3.226      7.356
REMARK  Name = 91801202
REMARK  4 active torsions:
REMARK  status: ('A' for Active; 'I' for Inactive)
REMARK    1  A    between atoms: C_3  and  C_12
REMARK    2  A    between atoms: C_8  and  C_22
REMARK    3  A    between atoms: C_23  and  N_28
REMARK    4  A    between atoms: C_26  and  O_33
REMARK                            x       y       z     vdW  Elec       q    Type
REMARK                         _______ _______ _______ _____ _____    ______ ____
ROOT
ATOM      1  O   UNL     1      35.042 -12.496 -22.924  0.00  0.00    -0.270 OA
ATOM      2  N   UNL     1      33.615 -13.111 -24.667  0.00  0.00    -0.276 N 
ATOM      3  C   UNL     1      33.849 -11.933 -25.548  0.00  0.00    +0.094 C 
ATOM      4  C   UNL     1      32.838 -12.158 -26.706  0.00  0.00    +0.023 C 
ATOM      5  C   UNL     1      32.669 -13.671 -26.759  0.00  0.00    +0.023 C 
ATOM      6  C   UNL     1      32.698 -14.066 -25.293  0.00  0.00    +0.094 C 
ATOM      7  C   UNL     1      35.287 -12.020 -26.109  0.00  0.00    +0.023 C 
ATOM      8  C   UNL     1      34.271 -13.296 -23.452  0.00  0.00    +0.250 C 
ENDROOT
BRANCH   3  12
ATOM      9 CL   UNL     1      31.077  -5.693 -22.080  0.00  0.00    -0.083 Cl
ATOM     10  N   UNL     1      34.506  -9.713 -24.527  0.00  0.00    -0.317 N 
ATOM     11  N   UNL     1      32.335 -10.184 -24.480  0.00  0.00    -0.317 N 
ATOM     12  C   UNL     1      33.524 -10.608 -24.846  0.00  0.00    +0.161 C 
ATOM     13  C   UNL     1      33.911  -8.639 -23.915  0.00  0.00    +0.059 C 
ATOM     14  C   UNL     1      32.556  -8.957 -23.898  0.00  0.00    +0.056 C 
ATOM     15  C   UNL     1      31.647  -8.051 -23.328  0.00  0.00    +0.003 C 
ATOM     16  C   UNL     1      34.426  -7.453 -23.391  0.00  0.00    +0.016 C 
ATOM     17  C   UNL     1      32.142  -6.853 -22.796  0.00  0.00    +0.055 C 
ATOM     18  C   UNL     1      33.507  -6.562 -22.828  0.00  0.00    +0.012 C 
ATOM     19  C   UNL     1      30.182  -8.356 -23.290  0.00  0.00    +0.033 C 
ATOM     20  H   UNL     1      35.468  -9.819 -24.704  0.00  0.00    +0.148 HD
ATOM     21  H   UNL     1      31.472 -10.645 -24.597  0.00  0.00    +0.148 HD
ENDBRANCH   3  12
BRANCH   8  22
ATOM     22  C   UNL     1      34.020 -14.551 -22.726  0.00  0.00    +0.074 C 
ATOM     23  C   UNL     1      33.120 -14.611 -21.662  0.00  0.00    +0.098 C 
ATOM     24  C   UNL     1      34.706 -15.697 -23.124  0.00  0.00    +0.043 C 
ATOM     25  C   UNL     1      32.907 -15.818 -20.995  0.00  0.00    +0.022 C 
ATOM     26  C   UNL     1      34.492 -16.905 -22.460  0.00  0.00    +0.139 C 
ATOM     27  C   UNL     1      33.593 -16.965 -21.395  0.00  0.00    +0.038 C 
BRANCH  23  28
ATOM     28  N   UNL     1      32.426 -13.486 -21.247  0.00  0.00    -0.109 N 
ATOM     29  N   UNL     1      32.410 -13.129 -19.953  0.00  0.00    -0.154 NA
ATOM     30  N   UNL     1      31.756 -12.729 -22.129  0.00  0.00    -0.154 NA
ATOM     31  C   UNL     1      31.651 -12.030 -20.003  0.00  0.00    +0.142 C 
ATOM     32  C   UNL     1      31.254 -11.787 -21.326  0.00  0.00    +0.142 C 
ENDBRANCH  23  28
BRANCH  26  33
ATOM     33  O   UNL     1      35.161 -18.025 -22.849  0.00  0.00    -0.471 OA
ATOM     34  C   UNL     1      34.744 -19.263 -22.274  0.00  0.00    +0.252 C 
ENDBRANCH  26  33
ENDBRANCH   8  22
TORSDOF 4
ENDMDL
