MODEL 1
REMARK VINA RESULT:     -11.2      0.000      0.000
REMARK  Name = 445770
REMARK  5 active torsions:
REMARK  status: ('A' for Active; 'I' for Inactive)
REMARK    1  A    between atoms: N_2  and  C_17
REMARK    2  A    between atoms: C_3  and  C_5
REMARK    3  A    between atoms: C_6  and  S_11
REMARK    4  A    between atoms: S_11  and  N_14
REMARK    5  A    between atoms: C_17  and  C_23
REMARK                            x       y       z     vdW  Elec       q    Type
REMARK                         _______ _______ _______ _____ _____    ______ ____
ROOT
ATOM      1  O   UNL     1      37.083 -18.653 -21.557  0.00  0.00    -0.270 OA
ATOM      2  N   UNL     1      34.961 -18.125 -22.325  0.00  0.00    -0.297 N 
ATOM      3  C   UNL     1      35.856 -18.857 -21.538  0.00  0.00    +0.246 C 
ATOM      4  H   UNL     1      34.001 -18.338 -22.262  0.00  0.00    +0.150 HD
ENDROOT
BRANCH   3   5
ATOM      5  C   UNL     1      35.295 -19.905 -20.700  0.00  0.00    +0.053 C 
ATOM      6  C   UNL     1      34.216 -21.913 -19.092  0.00  0.00    +0.122 C 
ATOM      7  C   UNL     1      36.139 -20.759 -19.992  0.00  0.00    +0.006 C 
ATOM      8  C   UNL     1      33.911 -20.054 -20.605  0.00  0.00    +0.006 C 
ATOM      9  C   UNL     1      35.600 -21.764 -19.188  0.00  0.00    +0.020 C 
ATOM     10  C   UNL     1      33.372 -21.059 -19.801  0.00  0.00    +0.020 C 
BRANCH   6  11
ATOM     11  S   UNL     1      33.541 -23.170 -18.086  0.00  0.00    +0.057 S 
ATOM     12  O   UNL     1      33.629 -24.434 -18.802  0.00  0.00    -0.153 OA
ATOM     13  O   UNL     1      32.254 -22.713 -17.581  0.00  0.00    -0.153 OA
BRANCH  11  14
ATOM     14  N   UNL     1      34.662 -23.190 -16.796  0.00  0.00    -0.203 NA
ATOM     15  H   UNL     1      35.073 -22.263 -16.688  0.00  0.00    +0.144 HD
ATOM     16  H   UNL     1      35.398 -23.868 -16.996  0.00  0.00    +0.144 HD
ENDBRANCH  11  14
ENDBRANCH   6  11
ENDBRANCH   3   5
BRANCH   2  17
ATOM     17  C   UNL     1      35.367 -17.069 -23.226  0.00  0.00    +0.121 C 
BRANCH  17  23
ATOM     18  F   UNL     1      34.702 -15.770 -20.808  0.00  0.00    -0.202 F 
ATOM     19  F   UNL     1      34.138 -15.974 -25.518  0.00  0.00    -0.202 F 
ATOM     20  F   UNL     1      32.446 -13.839 -25.401  0.00  0.00    -0.199 F 
ATOM     21  F   UNL     1      33.013 -13.633 -20.704  0.00  0.00    -0.199 F 
ATOM     22  F   UNL     1      31.882 -12.665 -22.998  0.00  0.00    -0.199 F 
ATOM     23  C   UNL     1      34.434 -15.889 -23.164  0.00  0.00    +0.057 A 
ATOM     24  C   UNL     1      34.154 -15.302 -21.937  0.00  0.00    +0.170 A 
ATOM     25  C   UNL     1      33.867 -15.406 -24.334  0.00  0.00    +0.170 A 
ATOM     26  C   UNL     1      33.002 -14.313 -24.278  0.00  0.00    +0.197 A 
ATOM     27  C   UNL     1      33.289 -14.210 -21.881  0.00  0.00    +0.197 A 
ATOM     28  C   UNL     1      32.712 -13.714 -23.051  0.00  0.00    +0.199 A 
ENDBRANCH  17  23
ENDBRANCH   2  17
TORSDOF 5
ENDMDL
MODEL 2
REMARK VINA RESULT:     -11.2      0.051      2.129
REMARK  Name = 445770
REMARK  5 active torsions:
REMARK  status: ('A' for Active; 'I' for Inactive)
REMARK    1  A    between atoms: N_2  and  C_17
REMARK    2  A    between atoms: C_3  and  C_5
REMARK    3  A    between atoms: C_6  and  S_11
REMARK    4  A    between atoms: S_11  and  N_14
REMARK    5  A    between atoms: C_17  and  C_23
REMARK                            x       y       z     vdW  Elec       q    Type
REMARK                         _______ _______ _______ _____ _____    ______ ____
ROOT
ATOM      1  O   UNL     1      37.077 -18.653 -21.584  0.00  0.00    -0.270 OA
ATOM      2  N   UNL     1      34.948 -18.091 -22.305  0.00  0.00    -0.297 N 
ATOM      3  C   UNL     1      35.849 -18.842 -21.543  0.00  0.00    +0.246 C 
ATOM      4  H   UNL     1      33.987 -18.294 -22.226  0.00  0.00    +0.150 HD
ENDROOT
BRANCH   3   5
ATOM      5  C   UNL     1      35.290 -19.892 -20.705  0.00  0.00    +0.053 C 
ATOM      6  C   UNL     1      34.218 -21.904 -19.098  0.00  0.00    +0.122 C 
ATOM      7  C   UNL     1      36.138 -20.755 -20.012  0.00  0.00    +0.006 C 
ATOM      8  C   UNL     1      33.907 -20.034 -20.596  0.00  0.00    +0.006 C 
ATOM      9  C   UNL     1      35.601 -21.761 -19.208  0.00  0.00    +0.020 C 
ATOM     10  C   UNL     1      33.371 -21.040 -19.791  0.00  0.00    +0.020 C 
BRANCH   6  11
ATOM     11  S   UNL     1      33.547 -23.162 -18.091  0.00  0.00    +0.057 S 
ATOM     12  O   UNL     1      33.631 -24.425 -18.810  0.00  0.00    -0.153 OA
ATOM     13  O   UNL     1      32.263 -22.706 -17.579  0.00  0.00    -0.153 OA
BRANCH  11  14
ATOM     14  N   UNL     1      34.674 -23.186 -16.806  0.00  0.00    -0.203 NA
ATOM     15  H   UNL     1      35.246 -24.028 -16.871  0.00  0.00    +0.144 HD
ATOM     16  H   UNL     1      34.175 -23.182 -15.916  0.00  0.00    +0.144 HD
ENDBRANCH  11  14
ENDBRANCH   6  11
ENDBRANCH   3   5
BRANCH   2  17
ATOM     17  C   UNL     1      35.349 -17.031 -23.203  0.00  0.00    +0.121 C 
BRANCH  17  23
ATOM     18  F   UNL     1      34.108 -15.913 -25.481  0.00  0.00    -0.202 F 
ATOM     19  F   UNL     1      34.702 -15.752 -20.773  0.00  0.00    -0.202 F 
ATOM     20  F   UNL     1      33.018 -13.612 -20.640  0.00  0.00    -0.199 F 
ATOM     21  F   UNL     1      32.422 -13.776 -25.335  0.00  0.00    -0.199 F 
ATOM     22  F   UNL     1      31.875 -12.621 -22.917  0.00  0.00    -0.199 F 
ATOM     23  C   UNL     1      34.419 -15.850 -23.128  0.00  0.00    +0.057 A 
ATOM     24  C   UNL     1      33.844 -15.355 -24.291  0.00  0.00    +0.170 A 
ATOM     25  C   UNL     1      34.147 -15.273 -21.895  0.00  0.00    +0.170 A 
ATOM     26  C   UNL     1      33.285 -14.179 -21.824  0.00  0.00    +0.197 A 
ATOM     27  C   UNL     1      32.983 -14.261 -24.220  0.00  0.00    +0.197 A 
ATOM     28  C   UNL     1      32.703 -13.672 -22.986  0.00  0.00    +0.199 A 
ENDBRANCH  17  23
ENDBRANCH   2  17
TORSDOF 5
ENDMDL
MODEL 3
REMARK VINA RESULT:     -10.9      1.149      1.593
REMARK  Name = 445770
REMARK  5 active torsions:
REMARK  status: ('A' for Active; 'I' for Inactive)
REMARK    1  A    between atoms: N_2  and  C_17
REMARK    2  A    between atoms: C_3  and  C_5
REMARK    3  A    between atoms: C_6  and  S_11
REMARK    4  A    between atoms: S_11  and  N_14
REMARK    5  A    between atoms: C_17  and  C_23
REMARK                            x       y       z     vdW  Elec       q    Type
REMARK                         _______ _______ _______ _____ _____    ______ ____
ROOT
ATOM      1  O   UNL     1      34.585 -19.210 -23.211  0.00  0.00    -0.270 OA
ATOM      2  N   UNL     1      35.287 -17.732 -21.569  0.00  0.00    -0.297 N 
ATOM      3  C   UNL     1      34.794 -18.965 -22.009  0.00  0.00    +0.246 C 
ATOM      4  H   UNL     1      35.429 -17.605 -20.602  0.00  0.00    +0.150 HD
ENDROOT
BRANCH   3   5
ATOM      5  C   UNL     1      34.503 -19.962 -20.991  0.00  0.00    +0.053 C 
ATOM      6  C   UNL     1      33.945 -21.874 -19.038  0.00  0.00    +0.122 C 
ATOM      7  C   UNL     1      33.184 -20.193 -20.598  0.00  0.00    +0.006 C 
ATOM      8  C   UNL     1      35.543 -20.686 -20.407  0.00  0.00    +0.006 C 
ATOM      9  C   UNL     1      32.906 -21.149 -19.622  0.00  0.00    +0.020 C 
ATOM     10  C   UNL     1      35.263 -21.643 -19.431  0.00  0.00    +0.020 C 
BRANCH   6  11
ATOM     11  S   UNL     1      33.596 -23.071 -17.817  0.00  0.00    +0.057 S 
ATOM     12  O   UNL     1      34.459 -22.828 -16.669  0.00  0.00    -0.153 OA
ATOM     13  O   UNL     1      33.586 -24.383 -18.448  0.00  0.00    -0.153 OA
BRANCH  11  14
ATOM     14  N   UNL     1      31.994 -22.651 -17.397  0.00  0.00    -0.203 NA
ATOM     15  H   UNL     1      31.961 -22.372 -16.417  0.00  0.00    +0.144 HD
ATOM     16  H   UNL     1      31.382 -23.454 -17.543  0.00  0.00    +0.144 HD
ENDBRANCH  11  14
ENDBRANCH   6  11
ENDBRANCH   3   5
BRANCH   2  17
ATOM     17  C   UNL     1      35.601 -16.633 -22.455  0.00  0.00    +0.121 C 
BRANCH  17  23
ATOM     18  F   UNL     1      34.603 -15.420 -20.109  0.00  0.00    -0.202 F 
ATOM     19  F   UNL     1      34.382 -15.747 -24.840  0.00  0.00    -0.202 F 
ATOM     20  F   UNL     1      32.401 -13.873 -24.870  0.00  0.00    -0.199 F 
ATOM     21  F   UNL     1      32.624 -13.545 -20.151  0.00  0.00    -0.199 F 
ATOM     22  F   UNL     1      31.520 -12.769 -22.530  0.00  0.00    -0.199 F 
ATOM     23  C   UNL     1      34.508 -15.598 -22.474  0.00  0.00    +0.057 A 
ATOM     24  C   UNL     1      34.068 -15.045 -21.279  0.00  0.00    +0.170 A 
ATOM     25  C   UNL     1      33.956 -15.212 -23.687  0.00  0.00    +0.170 A 
ATOM     26  C   UNL     1      32.943 -14.253 -23.706  0.00  0.00    +0.197 A 
ATOM     27  C   UNL     1      33.056 -14.087 -21.298  0.00  0.00    +0.197 A 
ATOM     28  C   UNL     1      32.492 -13.690 -22.511  0.00  0.00    +0.199 A 
ENDBRANCH  17  23
ENDBRANCH   2  17
TORSDOF 5
ENDMDL
MODEL 4
REMARK VINA RESULT:     -10.8      4.515      6.808
REMARK  Name = 445770
REMARK  5 active torsions:
REMARK  status: ('A' for Active; 'I' for Inactive)
REMARK    1  A    between atoms: N_2  and  C_17
REMARK    2  A    between atoms: C_3  and  C_5
REMARK    3  A    between atoms: C_6  and  S_11
REMARK    4  A    between atoms: S_11  and  N_14
REMARK    5  A    between atoms: C_17  and  C_23
REMARK                            x       y       z     vdW  Elec       q    Type
REMARK                         _______ _______ _______ _____ _____    ______ ____
ROOT
ATOM      1  O   UNL     1      32.537 -23.444 -16.896  0.00  0.00    -0.270 OA
ATOM      2  N   UNL     1      34.481 -22.669 -17.894  0.00  0.00    -0.297 N 
ATOM      3  C   UNL     1      33.752 -23.188 -16.818  0.00  0.00    +0.246 C 
ATOM      4  H   UNL     1      35.440 -22.488 -17.763  0.00  0.00    +0.150 HD
ENDROOT
BRANCH   3   5
ATOM      5  C   UNL     1      34.472 -23.396 -15.571  0.00  0.00    +0.053 C 
ATOM      6  C   UNL     1      35.853 -23.795 -13.181  0.00  0.00    +0.122 C 
ATOM      7  C   UNL     1      33.825 -23.978 -14.481  0.00  0.00    +0.006 C 
ATOM      8  C   UNL     1      35.809 -23.012 -15.467  0.00  0.00    +0.006 C 
ATOM      9  C   UNL     1      34.516 -24.177 -13.286  0.00  0.00    +0.020 C 
ATOM     10  C   UNL     1      36.500 -23.213 -14.271  0.00  0.00    +0.020 C 
BRANCH   6  11
ATOM     11  S   UNL     1      36.718 -24.046 -11.686  0.00  0.00    +0.057 S 
ATOM     12  O   UNL     1      37.135 -22.750 -11.169  0.00  0.00    -0.153 OA
ATOM     13  O   UNL     1      37.709 -25.092 -11.897  0.00  0.00    -0.153 OA
BRANCH  11  14
ATOM     14  N   UNL     1      35.474 -24.659 -10.688  0.00  0.00    -0.203 NA
ATOM     15  H   UNL     1      35.438 -25.675 -10.775  0.00  0.00    +0.144 HD
ATOM     16  H   UNL     1      34.580 -24.262 -10.978  0.00  0.00    +0.144 HD
ENDBRANCH  11  14
ENDBRANCH   6  11
ENDBRANCH   3   5
BRANCH   2  17
ATOM     17  C   UNL     1      33.903 -22.385 -19.188  0.00  0.00    +0.121 C 
BRANCH  17  23
ATOM     18  F   UNL     1      36.696 -21.992 -19.324  0.00  0.00    -0.202 F 
ATOM     19  F   UNL     1      32.374 -20.315 -20.346  0.00  0.00    -0.202 F 
ATOM     20  F   UNL     1      33.506 -18.119 -21.498  0.00  0.00    -0.199 F 
ATOM     21  F   UNL     1      37.817 -19.793 -20.482  0.00  0.00    -0.199 F 
ATOM     22  F   UNL     1      36.225 -17.854 -21.570  0.00  0.00    -0.199 F 
ATOM     23  C   UNL     1      34.526 -21.172 -19.826  0.00  0.00    +0.057 A 
ATOM     24  C   UNL     1      35.909 -21.048 -19.856  0.00  0.00    +0.170 A 
ATOM     25  C   UNL     1      33.708 -20.194 -20.376  0.00  0.00    +0.170 A 
ATOM     26  C   UNL     1      34.284 -19.070 -20.967  0.00  0.00    +0.197 A 
ATOM     27  C   UNL     1      36.484 -19.923 -20.446  0.00  0.00    +0.197 A 
ATOM     28  C   UNL     1      35.673 -18.934 -21.002  0.00  0.00    +0.199 A 
ENDBRANCH  17  23
ENDBRANCH   2  17
TORSDOF 5
ENDMDL
MODEL 5
REMARK VINA RESULT:     -10.8      4.513      6.870
REMARK  Name = 445770
REMARK  5 active torsions:
REMARK  status: ('A' for Active; 'I' for Inactive)
REMARK    1  A    between atoms: N_2  and  C_17
REMARK    2  A    between atoms: C_3  and  C_5
REMARK    3  A    between atoms: C_6  and  S_11
REMARK    4  A    between atoms: S_11  and  N_14
REMARK    5  A    between atoms: C_17  and  C_23
REMARK                            x       y       z     vdW  Elec       q    Type
REMARK                         _______ _______ _______ _____ _____    ______ ____
ROOT
ATOM      1  O   UNL     1      32.540 -23.442 -16.895  0.00  0.00    -0.270 OA
ATOM      2  N   UNL     1      34.483 -22.672 -17.895  0.00  0.00    -0.297 N 
ATOM      3  C   UNL     1      33.755 -23.188 -16.818  0.00  0.00    +0.246 C 
ATOM      4  H   UNL     1      35.444 -22.493 -17.766  0.00  0.00    +0.150 HD
ENDROOT
BRANCH   3   5
ATOM      5  C   UNL     1      34.476 -23.397 -15.572  0.00  0.00    +0.053 C 
ATOM      6  C   UNL     1      35.858 -23.797 -13.183  0.00  0.00    +0.122 C 
ATOM      7  C   UNL     1      35.818 -23.031 -15.474  0.00  0.00    +0.006 C 
ATOM      8  C   UNL     1      33.824 -23.964 -14.477  0.00  0.00    +0.006 C 
ATOM      9  C   UNL     1      36.509 -23.231 -14.279  0.00  0.00    +0.020 C 
ATOM     10  C   UNL     1      34.516 -24.163 -13.281  0.00  0.00    +0.020 C 
BRANCH   6  11
ATOM     11  S   UNL     1      36.723 -24.047 -11.687  0.00  0.00    +0.057 S 
ATOM     12  O   UNL     1      37.134 -22.750 -11.168  0.00  0.00    -0.153 OA
ATOM     13  O   UNL     1      37.718 -25.089 -11.899  0.00  0.00    -0.153 OA
BRANCH  11  14
ATOM     14  N   UNL     1      35.480 -24.667 -10.692  0.00  0.00    -0.203 NA
ATOM     15  H   UNL     1      34.574 -24.370 -11.055  0.00  0.00    +0.144 HD
ATOM     16  H   UNL     1      35.598 -24.314  -9.742  0.00  0.00    +0.144 HD
ENDBRANCH  11  14
ENDBRANCH   6  11
ENDBRANCH   3   5
BRANCH   2  17
ATOM     17  C   UNL     1      33.904 -22.388 -19.190  0.00  0.00    +0.121 C 
BRANCH  17  23
ATOM     18  F   UNL     1      32.367 -20.317 -20.341  0.00  0.00    -0.202 F 
ATOM     19  F   UNL     1      36.694 -21.988 -19.326  0.00  0.00    -0.202 F 
ATOM     20  F   UNL     1      37.809 -19.782 -20.479  0.00  0.00    -0.199 F 
ATOM     21  F   UNL     1      33.493 -18.114 -21.487  0.00  0.00    -0.199 F 
ATOM     22  F   UNL     1      36.213 -17.843 -21.559  0.00  0.00    -0.199 F 
ATOM     23  C   UNL     1      34.522 -21.170 -19.824  0.00  0.00    +0.057 A 
ATOM     24  C   UNL     1      33.701 -20.192 -20.370  0.00  0.00    +0.170 A 
ATOM     25  C   UNL     1      35.903 -21.043 -19.854  0.00  0.00    +0.170 A 
ATOM     26  C   UNL     1      36.477 -19.915 -20.442  0.00  0.00    +0.197 A 
ATOM     27  C   UNL     1      34.275 -19.065 -20.958  0.00  0.00    +0.197 A 
ATOM     28  C   UNL     1      35.662 -18.926 -20.994  0.00  0.00    +0.199 A 
ENDBRANCH  17  23
ENDBRANCH   2  17
TORSDOF 5
ENDMDL
MODEL 6
REMARK VINA RESULT:     -10.2      4.299      6.349
REMARK  Name = 445770
REMARK  5 active torsions:
REMARK  status: ('A' for Active; 'I' for Inactive)
REMARK    1  A    between atoms: N_2  and  C_17
REMARK    2  A    between atoms: C_3  and  C_5
REMARK    3  A    between atoms: C_6  and  S_11
REMARK    4  A    between atoms: S_11  and  N_14
REMARK    5  A    between atoms: C_17  and  C_23
REMARK                            x       y       z     vdW  Elec       q    Type
REMARK                         _______ _______ _______ _____ _____    ______ ____
ROOT
ATOM      1  O   UNL     1      31.984 -12.726 -20.242  0.00  0.00    -0.270 OA
ATOM      2  N   UNL     1      32.200 -12.418 -22.529  0.00  0.00    -0.297 N 
ATOM      3  C   UNL     1      32.370 -13.146 -21.346  0.00  0.00    +0.246 C 
ATOM      4  H   UNL     1      32.531 -12.810 -23.370  0.00  0.00    +0.150 HD
ENDROOT
BRANCH   3   5
ATOM      5  C   UNL     1      33.052 -14.427 -21.452  0.00  0.00    +0.053 C 
ATOM      6  C   UNL     1      34.360 -16.882 -21.654  0.00  0.00    +0.122 C 
ATOM      7  C   UNL     1      34.148 -14.565 -22.304  0.00  0.00    +0.006 C 
ATOM      8  C   UNL     1      32.610 -15.516 -20.701  0.00  0.00    +0.006 C 
ATOM      9  C   UNL     1      34.801 -15.793 -22.405  0.00  0.00    +0.020 C 
ATOM     10  C   UNL     1      33.265 -16.744 -20.802  0.00  0.00    +0.020 C 
BRANCH   6  11
ATOM     11  S   UNL     1      35.180 -18.419 -21.779  0.00  0.00    +0.057 S 
ATOM     12  O   UNL     1      34.205 -19.434 -22.154  0.00  0.00    -0.153 OA
ATOM     13  O   UNL     1      35.995 -18.604 -20.587  0.00  0.00    -0.153 OA
BRANCH  11  14
ATOM     14  N   UNL     1      36.211 -18.130 -23.111  0.00  0.00    -0.203 NA
ATOM     15  H   UNL     1      37.177 -18.084 -22.790  0.00  0.00    +0.144 HD
ATOM     16  H   UNL     1      35.956 -17.246 -23.553  0.00  0.00    +0.144 HD
ENDBRANCH  11  14
ENDBRANCH   6  11
ENDBRANCH   3   5
BRANCH   2  17
ATOM     17  C   UNL     1      31.563 -11.120 -22.584  0.00  0.00    +0.121 C 
BRANCH  17  23
ATOM     18  F   UNL     1      31.469  -8.584 -21.346  0.00  0.00    -0.202 F 
ATOM     19  F   UNL     1      33.659 -11.435 -24.446  0.00  0.00    -0.202 F 
ATOM     20  F   UNL     1      35.442  -9.449 -25.003  0.00  0.00    -0.199 F 
ATOM     21  F   UNL     1      33.259  -6.606 -21.908  0.00  0.00    -0.199 F 
ATOM     22  F   UNL     1      35.247  -7.035 -23.736  0.00  0.00    -0.199 F 
ATOM     23  C   UNL     1      32.550 -10.025 -22.892  0.00  0.00    +0.057 A 
ATOM     24  C   UNL     1      32.440  -8.803 -22.242  0.00  0.00    +0.170 A 
ATOM     25  C   UNL     1      33.555 -10.254 -23.820  0.00  0.00    +0.170 A 
ATOM     26  C   UNL     1      34.470  -9.241 -24.107  0.00  0.00    +0.197 A 
ATOM     27  C   UNL     1      33.354  -7.790 -22.529  0.00  0.00    +0.197 A 
ATOM     28  C   UNL     1      34.369  -8.008 -23.461  0.00  0.00    +0.199 A 
ENDBRANCH  17  23
ENDBRANCH   2  17
TORSDOF 5
ENDMDL
MODEL 7
REMARK VINA RESULT:     -10.2      4.301      6.594
REMARK  Name = 445770
REMARK  5 active torsions:
REMARK  status: ('A' for Active; 'I' for Inactive)
REMARK    1  A    between atoms: N_2  and  C_17
REMARK    2  A    between atoms: C_3  and  C_5
REMARK    3  A    between atoms: C_6  and  S_11
REMARK    4  A    between atoms: S_11  and  N_14
REMARK    5  A    between atoms: C_17  and  C_23
REMARK                            x       y       z     vdW  Elec       q    Type
REMARK                         _______ _______ _______ _____ _____    ______ ____
ROOT
ATOM      1  O   UNL     1      31.995 -12.710 -20.258  0.00  0.00    -0.270 OA
ATOM      2  N   UNL     1      32.202 -12.415 -22.547  0.00  0.00    -0.297 N 
ATOM      3  C   UNL     1      32.377 -13.137 -21.361  0.00  0.00    +0.246 C 
ATOM      4  H   UNL     1      32.530 -12.812 -23.387  0.00  0.00    +0.150 HD
ENDROOT
BRANCH   3   5
ATOM      5  C   UNL     1      33.058 -14.418 -21.462  0.00  0.00    +0.053 C 
ATOM      6  C   UNL     1      34.366 -16.874 -21.657  0.00  0.00    +0.122 C 
ATOM      7  C   UNL     1      32.626 -15.500 -20.696  0.00  0.00    +0.006 C 
ATOM      8  C   UNL     1      34.145 -14.563 -22.326  0.00  0.00    +0.006 C 
ATOM      9  C   UNL     1      33.280 -16.728 -20.793  0.00  0.00    +0.020 C 
ATOM     10  C   UNL     1      34.798 -15.792 -22.423  0.00  0.00    +0.020 C 
BRANCH   6  11
ATOM     11  S   UNL     1      35.183 -18.412 -21.779  0.00  0.00    +0.057 S 
ATOM     12  O   UNL     1      34.211 -19.424 -22.169  0.00  0.00    -0.153 OA
ATOM     13  O   UNL     1      35.984 -18.604 -20.578  0.00  0.00    -0.153 OA
BRANCH  11  14
ATOM     14  N   UNL     1      36.230 -18.120 -23.098  0.00  0.00    -0.203 NA
ATOM     15  H   UNL     1      36.771 -18.961 -23.296  0.00  0.00    +0.144 HD
ATOM     16  H   UNL     1      36.864 -17.355 -22.866  0.00  0.00    +0.144 HD
ENDBRANCH  11  14
ENDBRANCH   6  11
ENDBRANCH   3   5
BRANCH   2  17
ATOM     17  C   UNL     1      31.566 -11.118 -22.607  0.00  0.00    +0.121 C 
BRANCH  17  23
ATOM     18  F   UNL     1      33.628 -11.412 -24.514  0.00  0.00    -0.202 F 
ATOM     19  F   UNL     1      31.506  -8.603 -21.328  0.00  0.00    -0.202 F 
ATOM     20  F   UNL     1      33.296  -6.625 -21.890  0.00  0.00    -0.199 F 
ATOM     21  F   UNL     1      35.410  -9.425 -25.070  0.00  0.00    -0.199 F 
ATOM     22  F   UNL     1      35.248  -7.030 -23.760  0.00  0.00    -0.199 F 
ATOM     23  C   UNL     1      32.553 -10.024 -22.917  0.00  0.00    +0.057 A 
ATOM     24  C   UNL     1      33.540 -10.241 -23.868  0.00  0.00    +0.170 A 
ATOM     25  C   UNL     1      32.460  -8.812 -22.246  0.00  0.00    +0.170 A 
ATOM     26  C   UNL     1      33.374  -7.797 -22.532  0.00  0.00    +0.197 A 
ATOM     27  C   UNL     1      34.454  -9.227 -24.153  0.00  0.00    +0.197 A 
ATOM     28  C   UNL     1      34.371  -8.005 -23.486  0.00  0.00    +0.199 A 
ENDBRANCH  17  23
ENDBRANCH   2  17
TORSDOF 5
ENDMDL
MODEL 8
REMARK VINA RESULT:     -10.1      5.904      9.945
REMARK  Name = 445770
REMARK  5 active torsions:
REMARK  status: ('A' for Active; 'I' for Inactive)
REMARK    1  A    between atoms: N_2  and  C_17
REMARK    2  A    between atoms: C_3  and  C_5
REMARK    3  A    between atoms: C_6  and  S_11
REMARK    4  A    between atoms: S_11  and  N_14
REMARK    5  A    between atoms: C_17  and  C_23
REMARK                            x       y       z     vdW  Elec       q    Type
REMARK                         _______ _______ _______ _____ _____    ______ ____
ROOT
ATOM      1  O   UNL     1      33.854 -23.868 -19.439  0.00  0.00    -0.270 OA
ATOM      2  N   UNL     1      33.765 -22.607 -17.497  0.00  0.00    -0.297 N 
ATOM      3  C   UNL     1      33.930 -22.761 -18.878  0.00  0.00    +0.246 C 
ATOM      4  H   UNL     1      33.838 -21.701 -17.117  0.00  0.00    +0.150 HD
ENDROOT
BRANCH   3   5
ATOM      5  C   UNL     1      34.226 -21.562 -19.646  0.00  0.00    +0.053 C 
ATOM      6  C   UNL     1      34.794 -19.262 -21.118  0.00  0.00    +0.122 C 
ATOM      7  C   UNL     1      33.185 -20.766 -20.124  0.00  0.00    +0.006 C 
ATOM      8  C   UNL     1      35.551 -21.209 -19.904  0.00  0.00    +0.006 C 
ATOM      9  C   UNL     1      33.470 -19.616 -20.861  0.00  0.00    +0.020 C 
ATOM     10  C   UNL     1      35.835 -20.058 -20.640  0.00  0.00    +0.020 C 
BRANCH   6  11
ATOM     11  S   UNL     1      35.150 -17.822 -22.039  0.00  0.00    +0.057 S 
ATOM     12  O   UNL     1      35.091 -16.674 -21.145  0.00  0.00    -0.153 OA
ATOM     13  O   UNL     1      34.340 -17.838 -23.249  0.00  0.00    -0.153 OA
BRANCH  11  14
ATOM     14  N   UNL     1      36.781 -18.103 -22.464  0.00  0.00    -0.203 NA
ATOM     15  H   UNL     1      36.820 -18.604 -23.351  0.00  0.00    +0.144 HD
ATOM     16  H   UNL     1      37.231 -18.661 -21.738  0.00  0.00    +0.144 HD
ENDBRANCH  11  14
ENDBRANCH   6  11
ENDBRANCH   3   5
BRANCH   2  17
ATOM     17  C   UNL     1      33.490 -23.705 -16.596  0.00  0.00    +0.121 C 
BRANCH  17  23
ATOM     18  F   UNL     1      36.137 -22.735 -16.779  0.00  0.00    -0.202 F 
ATOM     19  F   UNL     1      32.793 -24.730 -14.062  0.00  0.00    -0.202 F 
ATOM     20  F   UNL     1      34.536 -24.780 -11.966  0.00  0.00    -0.199 F 
ATOM     21  F   UNL     1      37.869 -22.787 -14.675  0.00  0.00    -0.199 F 
ATOM     22  F   UNL     1      37.073 -23.809 -12.267  0.00  0.00    -0.199 F 
ATOM     23  C   UNL     1      34.451 -23.732 -15.438  0.00  0.00    +0.057 A 
ATOM     24  C   UNL     1      35.737 -23.237 -15.602  0.00  0.00    +0.170 A 
ATOM     25  C   UNL     1      34.036 -24.252 -14.220  0.00  0.00    +0.170 A 
ATOM     26  C   UNL     1      34.924 -24.278 -13.145  0.00  0.00    +0.197 A 
ATOM     27  C   UNL     1      36.626 -23.263 -14.528  0.00  0.00    +0.197 A 
ATOM     28  C   UNL     1      36.220 -23.784 -13.299  0.00  0.00    +0.199 A 
ENDBRANCH  17  23
ENDBRANCH   2  17
TORSDOF 5
ENDMDL
MODEL 9
REMARK VINA RESULT:     -10.1      5.911      9.848
REMARK  Name = 445770
REMARK  5 active torsions:
REMARK  status: ('A' for Active; 'I' for Inactive)
REMARK    1  A    between atoms: N_2  and  C_17
REMARK    2  A    between atoms: C_3  and  C_5
REMARK    3  A    between atoms: C_6  and  S_11
REMARK    4  A    between atoms: S_11  and  N_14
REMARK    5  A    between atoms: C_17  and  C_23
REMARK                            x       y       z     vdW  Elec       q    Type
REMARK                         _______ _______ _______ _____ _____    ______ ____
ROOT
ATOM      1  O   UNL     1      33.846 -23.875 -19.371  0.00  0.00    -0.270 OA
ATOM      2  N   UNL     1      33.745 -22.591 -17.444  0.00  0.00    -0.297 N 
ATOM      3  C   UNL     1      33.917 -22.762 -18.822  0.00  0.00    +0.246 C 
ATOM      4  H   UNL     1      33.815 -21.680 -17.074  0.00  0.00    +0.150 HD
ENDROOT
BRANCH   3   5
ATOM      5  C   UNL     1      34.214 -21.571 -19.603  0.00  0.00    +0.053 C 
ATOM      6  C   UNL     1      34.786 -19.288 -21.100  0.00  0.00    +0.122 C 
ATOM      7  C   UNL     1      33.175 -20.768 -20.073  0.00  0.00    +0.006 C 
ATOM      8  C   UNL     1      35.539 -21.234 -19.881  0.00  0.00    +0.006 C 
ATOM      9  C   UNL     1      33.461 -19.627 -20.822  0.00  0.00    +0.020 C 
ATOM     10  C   UNL     1      35.824 -20.091 -20.630  0.00  0.00    +0.020 C 
BRANCH   6  11
ATOM     11  S   UNL     1      35.143 -17.858 -22.036  0.00  0.00    +0.057 S 
ATOM     12  O   UNL     1      35.092 -16.702 -21.153  0.00  0.00    -0.153 OA
ATOM     13  O   UNL     1      34.329 -17.883 -23.243  0.00  0.00    -0.153 OA
BRANCH  11  14
ATOM     14  N   UNL     1      36.772 -18.149 -22.465  0.00  0.00    -0.203 NA
ATOM     15  H   UNL     1      37.312 -17.292 -22.351  0.00  0.00    +0.144 HD
ATOM     16  H   UNL     1      36.818 -18.454 -23.437  0.00  0.00    +0.144 HD
ENDBRANCH  11  14
ENDBRANCH   6  11
ENDBRANCH   3   5
BRANCH   2  17
ATOM     17  C   UNL     1      33.468 -23.678 -16.532  0.00  0.00    +0.121 C 
BRANCH  17  23
ATOM     18  F   UNL     1      32.814 -24.686 -13.976  0.00  0.00    -0.202 F 
ATOM     19  F   UNL     1      36.123 -22.757 -16.781  0.00  0.00    -0.202 F 
ATOM     20  F   UNL     1      37.905 -22.832 -14.719  0.00  0.00    -0.199 F 
ATOM     21  F   UNL     1      34.606 -24.760 -11.923  0.00  0.00    -0.199 F 
ATOM     22  F   UNL     1      37.152 -23.834 -12.290  0.00  0.00    -0.199 F 
ATOM     23  C   UNL     1      34.454 -23.721 -15.395  0.00  0.00    +0.057 A 
ATOM     24  C   UNL     1      34.060 -24.231 -14.165  0.00  0.00    +0.170 A 
ATOM     25  C   UNL     1      35.744 -23.249 -15.593  0.00  0.00    +0.170 A 
ATOM     26  C   UNL     1      36.659 -23.287 -14.541  0.00  0.00    +0.197 A 
ATOM     27  C   UNL     1      34.974 -24.268 -13.113  0.00  0.00    +0.197 A 
ATOM     28  C   UNL     1      36.274 -23.797 -13.300  0.00  0.00    +0.199 A 
ENDBRANCH  17  23
ENDBRANCH   2  17
TORSDOF 5
ENDMDL
