MODEL 1
REMARK VINA RESULT:     -10.0      0.000      0.000
REMARK  Name = 5205
REMARK  0 active torsions:
REMARK  status: ('A' for Active; 'I' for Inactive)
REMARK                            x       y       z     vdW  Elec       q    Type
REMARK                         _______ _______ _______ _____ _____    ______ ____
ROOT
ATOM      1  N   UNL     1      31.410 -12.159 -21.543  0.00  0.00    +0.388 N 
ATOM      2  C   UNL     1      33.141 -14.054 -22.785  0.00  0.00    -0.031 C 
ATOM      3  C   UNL     1      33.112 -12.791 -23.279  0.00  0.00    -0.048 C 
ATOM      4  C   UNL     1      32.473 -14.366 -21.453  0.00  0.00    +0.003 C 
ATOM      5  C   UNL     1      32.398 -11.678 -22.522  0.00  0.00    -0.050 C 
ATOM      6  C   UNL     1      32.037 -13.134 -20.653  0.00  0.00    -0.072 C 
ATOM      7  C   UNL     1      33.774 -15.216 -23.477  0.00  0.00    -0.008 C 
ATOM      8  C   UNL     1      33.713 -12.373 -24.578  0.00  0.00    -0.010 C 
ATOM      9  C   UNL     1      33.581 -15.447 -24.857  0.00  0.00    -0.018 C 
ATOM     10  C   UNL     1      33.539 -13.139 -25.752  0.00  0.00    -0.018 C 
ATOM     11  C   UNL     1      32.814 -14.462 -25.707  0.00  0.00    +0.053 C 
ATOM     12  C   UNL     1      30.851 -11.042 -20.783  0.00  0.00    -0.100 C 
ATOM     13  C   UNL     1      34.560 -16.132 -22.756  0.00  0.00    -0.001 C 
ATOM     14  C   UNL     1      34.432 -11.168 -24.665  0.00  0.00    -0.001 C 
ATOM     15  C   UNL     1      34.151 -16.577 -25.469  0.00  0.00    -0.004 C 
ATOM     16  C   UNL     1      34.082 -12.690 -26.967  0.00  0.00    -0.004 C 
ATOM     17  C   UNL     1      35.123 -17.250 -23.375  0.00  0.00    -0.000 C 
ATOM     18  C   UNL     1      34.967 -10.734 -25.879  0.00  0.00    -0.000 C 
ATOM     19  C   UNL     1      34.914 -17.475 -24.729  0.00  0.00    -0.000 C 
ATOM     20  C   UNL     1      34.790 -11.492 -27.030  0.00  0.00    -0.000 C 
ATOM     21  H   UNL     1      30.643 -12.613 -22.039  0.00  0.00    -0.079 HD
ENDROOT
TORSDOF 0
ENDMDL
MODEL 2
REMARK VINA RESULT:     -10.0     10.204     13.417
REMARK  Name = 5205
REMARK  0 active torsions:
REMARK  status: ('A' for Active; 'I' for Inactive)
REMARK                            x       y       z     vdW  Elec       q    Type
REMARK                         _______ _______ _______ _____ _____    ______ ____
ROOT
ATOM      1  N   UNL     1      31.922 -23.848 -14.362  0.00  0.00    +0.388 N 
ATOM      2  C   UNL     1      33.748 -23.284 -16.478  0.00  0.00    -0.031 C 
ATOM      3  C   UNL     1      34.151 -24.119 -15.488  0.00  0.00    -0.048 C 
ATOM      4  C   UNL     1      32.284 -22.881 -16.585  0.00  0.00    +0.003 C 
ATOM      5  C   UNL     1      33.154 -24.647 -14.465  0.00  0.00    -0.050 C 
ATOM      6  C   UNL     1      31.333 -23.683 -15.690  0.00  0.00    -0.072 C 
ATOM      7  C   UNL     1      34.659 -22.679 -17.495  0.00  0.00    -0.008 C 
ATOM      8  C   UNL     1      35.557 -24.564 -15.274  0.00  0.00    -0.010 C 
ATOM      9  C   UNL     1      35.904 -22.120 -17.131  0.00  0.00    -0.018 C 
ATOM     10  C   UNL     1      36.637 -23.655 -15.332  0.00  0.00    -0.018 C 
ATOM     11  C   UNL     1      36.408 -22.212 -15.711  0.00  0.00    +0.053 C 
ATOM     12  C   UNL     1      30.974 -24.478 -13.445  0.00  0.00    -0.100 C 
ATOM     13  C   UNL     1      34.280 -22.626 -18.848  0.00  0.00    -0.001 C 
ATOM     14  C   UNL     1      35.829 -25.907 -14.958  0.00  0.00    -0.001 C 
ATOM     15  C   UNL     1      36.717 -21.516 -18.105  0.00  0.00    -0.004 C 
ATOM     16  C   UNL     1      37.944 -24.103 -15.080  0.00  0.00    -0.004 C 
ATOM     17  C   UNL     1      35.097 -22.024 -19.808  0.00  0.00    -0.000 C 
ATOM     18  C   UNL     1      37.133 -26.339 -14.710  0.00  0.00    -0.000 C 
ATOM     19  C   UNL     1      36.312 -21.465 -19.436  0.00  0.00    -0.000 C 
ATOM     20  C   UNL     1      38.190 -25.438 -14.768  0.00  0.00    -0.000 C 
ATOM     21  H   UNL     1      32.153 -22.928 -13.988  0.00  0.00    -0.079 HD
ENDROOT
TORSDOF 0
ENDMDL
MODEL 3
REMARK VINA RESULT:      -9.9      1.687      4.648
REMARK  Name = 5205
REMARK  0 active torsions:
REMARK  status: ('A' for Active; 'I' for Inactive)
REMARK                            x       y       z     vdW  Elec       q    Type
REMARK                         _______ _______ _______ _____ _____    ______ ____
ROOT
ATOM      1  N   UNL     1      34.574 -15.927 -21.629  0.00  0.00    +0.388 N 
ATOM      2  C   UNL     1      32.982 -13.626 -22.177  0.00  0.00    -0.031 C 
ATOM      3  C   UNL     1      33.423 -14.367 -23.225  0.00  0.00    -0.048 C 
ATOM      4  C   UNL     1      33.114 -14.162 -20.759  0.00  0.00    +0.003 C 
ATOM      5  C   UNL     1      34.068 -15.727 -22.997  0.00  0.00    -0.050 C 
ATOM      6  C   UNL     1      33.512 -15.639 -20.667  0.00  0.00    -0.072 C 
ATOM      7  C   UNL     1      32.381 -12.265 -22.300  0.00  0.00    -0.008 C 
ATOM      8  C   UNL     1      33.364 -13.937 -24.652  0.00  0.00    -0.010 C 
ATOM      9  C   UNL     1      32.952 -11.278 -23.134  0.00  0.00    -0.018 C 
ATOM     10  C   UNL     1      33.744 -12.636 -25.047  0.00  0.00    -0.018 C 
ATOM     11  C   UNL     1      34.133 -11.601 -24.019  0.00  0.00    +0.053 C 
ATOM     12  C   UNL     1      35.076 -17.290 -21.460  0.00  0.00    -0.100 C 
ATOM     13  C   UNL     1      31.238 -11.922 -21.556  0.00  0.00    -0.001 C 
ATOM     14  C   UNL     1      32.970 -14.851 -25.646  0.00  0.00    -0.001 C 
ATOM     15  C   UNL     1      32.390  -9.991 -23.190  0.00  0.00    -0.004 C 
ATOM     16  C   UNL     1      33.719 -12.281 -26.406  0.00  0.00    -0.004 C 
ATOM     17  C   UNL     1      30.687 -10.640 -21.621  0.00  0.00    -0.000 C 
ATOM     18  C   UNL     1      32.950 -14.485 -26.993  0.00  0.00    -0.000 C 
ATOM     19  C   UNL     1      31.267  -9.674 -22.433  0.00  0.00    -0.000 C 
ATOM     20  C   UNL     1      33.326 -13.203 -27.374  0.00  0.00    -0.000 C 
ATOM     21  H   UNL     1      35.350 -15.287 -21.465  0.00  0.00    -0.079 HD
ENDROOT
TORSDOF 0
ENDMDL
MODEL 4
REMARK VINA RESULT:      -9.8      3.806      6.249
REMARK  Name = 5205
REMARK  0 active torsions:
REMARK  status: ('A' for Active; 'I' for Inactive)
REMARK                            x       y       z     vdW  Elec       q    Type
REMARK                         _______ _______ _______ _____ _____    ______ ____
ROOT
ATOM      1  N   UNL     1      31.662  -5.479 -23.541  0.00  0.00    +0.388 N 
ATOM      2  C   UNL     1      32.047  -7.765 -21.881  0.00  0.00    -0.031 C 
ATOM      3  C   UNL     1      32.712  -7.710 -23.062  0.00  0.00    -0.048 C 
ATOM      4  C   UNL     1      31.334  -6.529 -21.351  0.00  0.00    +0.003 C 
ATOM      5  C   UNL     1      32.739  -6.424 -23.878  0.00  0.00    -0.050 C 
ATOM      6  C   UNL     1      31.659  -5.233 -22.100  0.00  0.00    -0.072 C 
ATOM      7  C   UNL     1      31.926  -8.991 -21.038  0.00  0.00    -0.008 C 
ATOM      8  C   UNL     1      33.428  -8.858 -23.687  0.00  0.00    -0.010 C 
ATOM      9  C   UNL     1      31.621 -10.249 -21.603  0.00  0.00    -0.018 C 
ATOM     10  C   UNL     1      32.846 -10.144 -23.752  0.00  0.00    -0.018 C 
ATOM     11  C   UNL     1      31.513 -10.419 -23.100  0.00  0.00    +0.053 C 
ATOM     12  C   UNL     1      31.820  -4.231 -24.284  0.00  0.00    -0.100 C 
ATOM     13  C   UNL     1      32.086  -8.914 -19.642  0.00  0.00    -0.001 C 
ATOM     14  C   UNL     1      34.691  -8.665 -24.275  0.00  0.00    -0.001 C 
ATOM     15  C   UNL     1      31.466 -11.375 -20.776  0.00  0.00    -0.004 C 
ATOM     16  C   UNL     1      33.531 -11.191 -24.389  0.00  0.00    -0.004 C 
ATOM     17  C   UNL     1      31.932 -10.041 -18.831  0.00  0.00    -0.000 C 
ATOM     18  C   UNL     1      35.361  -9.715 -24.905  0.00  0.00    -0.000 C 
ATOM     19  C   UNL     1      31.617 -11.269 -19.397  0.00  0.00    -0.000 C 
ATOM     20  C   UNL     1      34.781 -10.976 -24.965  0.00  0.00    -0.000 C 
ATOM     21  H   UNL     1      30.766  -5.888 -23.806  0.00  0.00    -0.079 HD
ENDROOT
TORSDOF 0
ENDMDL
MODEL 5
REMARK VINA RESULT:      -9.6      2.538      5.680
REMARK  Name = 5205
REMARK  0 active torsions:
REMARK  status: ('A' for Active; 'I' for Inactive)
REMARK                            x       y       z     vdW  Elec       q    Type
REMARK                         _______ _______ _______ _____ _____    ______ ____
ROOT
ATOM      1  N   UNL     1      32.504 -12.658 -21.625  0.00  0.00    +0.388 N 
ATOM      2  C   UNL     1      32.445 -10.187 -23.045  0.00  0.00    -0.031 C 
ATOM      3  C   UNL     1      33.020 -11.259 -23.646  0.00  0.00    -0.048 C 
ATOM      4  C   UNL     1      31.630 -10.374 -21.773  0.00  0.00    +0.003 C 
ATOM      5  C   UNL     1      32.874 -12.653 -23.049  0.00  0.00    -0.050 C 
ATOM      6  C   UNL     1      31.316 -11.833 -21.424  0.00  0.00    -0.072 C 
ATOM      7  C   UNL     1      32.573  -8.780 -23.528  0.00  0.00    -0.008 C 
ATOM      8  C   UNL     1      33.854 -11.194 -24.880  0.00  0.00    -0.010 C 
ATOM      9  C   UNL     1      33.816  -8.251 -23.940  0.00  0.00    -0.018 C 
ATOM     10  C   UNL     1      34.854 -10.209 -25.044  0.00  0.00    -0.018 C 
ATOM     11  C   UNL     1      35.045  -9.126 -24.010  0.00  0.00    +0.053 C 
ATOM     12  C   UNL     1      32.277 -14.024 -21.157  0.00  0.00    -0.100 C 
ATOM     13  C   UNL     1      31.451  -7.932 -23.556  0.00  0.00    -0.001 C 
ATOM     14  C   UNL     1      33.689 -12.155 -25.892  0.00  0.00    -0.001 C 
ATOM     15  C   UNL     1      33.912  -6.908 -24.344  0.00  0.00    -0.004 C 
ATOM     16  C   UNL     1      35.651 -10.207 -26.200  0.00  0.00    -0.004 C 
ATOM     17  C   UNL     1      31.558  -6.600 -23.961  0.00  0.00    -0.000 C 
ATOM     18  C   UNL     1      34.488 -12.142 -27.036  0.00  0.00    -0.000 C 
ATOM     19  C   UNL     1      32.789  -6.087 -24.349  0.00  0.00    -0.000 C 
ATOM     20  C   UNL     1      35.470 -11.170 -27.190  0.00  0.00    -0.000 C 
ATOM     21  H   UNL     1      33.273 -12.267 -21.081  0.00  0.00    -0.079 HD
ENDROOT
TORSDOF 0
ENDMDL
MODEL 6
REMARK VINA RESULT:      -9.4      2.120      6.176
REMARK  Name = 5205
REMARK  0 active torsions:
REMARK  status: ('A' for Active; 'I' for Inactive)
REMARK                            x       y       z     vdW  Elec       q    Type
REMARK                         _______ _______ _______ _____ _____    ______ ____
ROOT
ATOM      1  N   UNL     1      32.788 -13.933 -26.130  0.00  0.00    +0.388 N 
ATOM      2  C   UNL     1      33.529 -11.625 -24.630  0.00  0.00    -0.031 C 
ATOM      3  C   UNL     1      33.095 -12.717 -23.953  0.00  0.00    -0.048 C 
ATOM      4  C   UNL     1      33.857 -11.728 -26.113  0.00  0.00    +0.003 C 
ATOM      5  C   UNL     1      32.913 -14.050 -24.669  0.00  0.00    -0.050 C 
ATOM      6  C   UNL     1      33.910 -13.159 -26.657  0.00  0.00    -0.072 C 
ATOM      7  C   UNL     1      33.691 -10.269 -24.026  0.00  0.00    -0.008 C 
ATOM      8  C   UNL     1      32.725 -12.730 -22.509  0.00  0.00    -0.010 C 
ATOM      9  C   UNL     1      32.705  -9.715 -23.180  0.00  0.00    -0.018 C 
ATOM     10  C   UNL     1      31.926 -11.713 -21.943  0.00  0.00    -0.018 C 
ATOM     11  C   UNL     1      31.498 -10.522 -22.766  0.00  0.00    +0.053 C 
ATOM     12  C   UNL     1      32.729 -15.256 -26.750  0.00  0.00    -0.100 C 
ATOM     13  C   UNL     1      34.827  -9.492 -24.315  0.00  0.00    -0.001 C 
ATOM     14  C   UNL     1      33.132 -13.797 -21.689  0.00  0.00    -0.001 C 
ATOM     15  C   UNL     1      32.865  -8.416 -22.666  0.00  0.00    -0.004 C 
ATOM     16  C   UNL     1      31.560 -11.783 -20.589  0.00  0.00    -0.004 C 
ATOM     17  C   UNL     1      34.976  -8.203 -23.797  0.00  0.00    -0.000 C 
ATOM     18  C   UNL     1      32.762 -13.854 -20.344  0.00  0.00    -0.000 C 
ATOM     19  C   UNL     1      33.993  -7.664 -22.978  0.00  0.00    -0.000 C 
ATOM     20  C   UNL     1      31.974 -12.849 -19.794  0.00  0.00    -0.000 C 
ATOM     21  H   UNL     1      31.920 -13.447 -26.352  0.00  0.00    -0.079 HD
ENDROOT
TORSDOF 0
ENDMDL
MODEL 7
REMARK VINA RESULT:      -9.2      4.072      7.289
REMARK  Name = 5205
REMARK  0 active torsions:
REMARK  status: ('A' for Active; 'I' for Inactive)
REMARK                            x       y       z     vdW  Elec       q    Type
REMARK                         _______ _______ _______ _____ _____    ______ ____
ROOT
ATOM      1  N   UNL     1      32.368  -7.909 -20.155  0.00  0.00    +0.388 N 
ATOM      2  C   UNL     1      32.623  -7.009 -22.848  0.00  0.00    -0.031 C 
ATOM      3  C   UNL     1      32.862  -8.318 -22.584  0.00  0.00    -0.048 C 
ATOM      4  C   UNL     1      31.986  -6.122 -21.788  0.00  0.00    +0.003 C 
ATOM      5  C   UNL     1      32.515  -8.910 -21.224  0.00  0.00    -0.050 C 
ATOM      6  C   UNL     1      31.425  -6.876 -20.577  0.00  0.00    -0.072 C 
ATOM      7  C   UNL     1      32.973  -6.331 -24.132  0.00  0.00    -0.008 C 
ATOM      8  C   UNL     1      33.498  -9.274 -23.535  0.00  0.00    -0.010 C 
ATOM      9  C   UNL     1      34.224  -6.531 -24.755  0.00  0.00    -0.018 C 
ATOM     10  C   UNL     1      34.647  -8.923 -24.277  0.00  0.00    -0.018 C 
ATOM     11  C   UNL     1      35.215  -7.526 -24.201  0.00  0.00    +0.053 C 
ATOM     12  C   UNL     1      31.929  -8.542 -18.913  0.00  0.00    -0.100 C 
ATOM     13  C   UNL     1      32.065  -5.445 -24.739  0.00  0.00    -0.001 C 
ATOM     14  C   UNL     1      32.984 -10.575 -23.673  0.00  0.00    -0.001 C 
ATOM     15  C   UNL     1      34.541  -5.840 -25.938  0.00  0.00    -0.004 C 
ATOM     16  C   UNL     1      35.245  -9.865 -25.129  0.00  0.00    -0.004 C 
ATOM     17  C   UNL     1      32.390  -4.765 -25.915  0.00  0.00    -0.000 C 
ATOM     18  C   UNL     1      33.588 -11.503 -24.524  0.00  0.00    -0.000 C 
ATOM     19  C   UNL     1      33.630  -4.959 -26.511  0.00  0.00    -0.000 C 
ATOM     20  C   UNL     1      34.719 -11.149 -25.250  0.00  0.00    -0.000 C 
ATOM     21  H   UNL     1      33.275  -7.476 -19.980  0.00  0.00    -0.079 HD
ENDROOT
TORSDOF 0
ENDMDL
MODEL 8
REMARK VINA RESULT:      -9.1     10.083     13.172
REMARK  Name = 5205
REMARK  0 active torsions:
REMARK  status: ('A' for Active; 'I' for Inactive)
REMARK                            x       y       z     vdW  Elec       q    Type
REMARK                         _______ _______ _______ _____ _____    ______ ____
ROOT
ATOM      1  N   UNL     1      36.592 -25.092 -13.832  0.00  0.00    +0.388 N 
ATOM      2  C   UNL     1      36.001 -23.230 -15.908  0.00  0.00    -0.031 C 
ATOM      3  C   UNL     1      35.007 -23.571 -15.051  0.00  0.00    -0.048 C 
ATOM      4  C   UNL     1      37.439 -23.626 -15.604  0.00  0.00    +0.003 C 
ATOM      5  C   UNL     1      35.312 -24.367 -13.788  0.00  0.00    -0.050 C 
ATOM      6  C   UNL     1      37.666 -24.168 -14.189  0.00  0.00    -0.072 C 
ATOM      7  C   UNL     1      35.792 -22.494 -17.191  0.00  0.00    -0.008 C 
ATOM      8  C   UNL     1      33.564 -23.256 -15.254  0.00  0.00    -0.010 C 
ATOM      9  C   UNL     1      34.747 -22.837 -18.077  0.00  0.00    -0.018 C 
ATOM     10  C   UNL     1      32.936 -23.449 -16.504  0.00  0.00    -0.018 C 
ATOM     11  C   UNL     1      33.733 -23.893 -17.706  0.00  0.00    +0.053 C 
ATOM     12  C   UNL     1      36.862 -25.739 -12.549  0.00  0.00    -0.100 C 
ATOM     13  C   UNL     1      36.660 -21.452 -17.563  0.00  0.00    -0.001 C 
ATOM     14  C   UNL     1      32.785 -22.800 -14.176  0.00  0.00    -0.001 C 
ATOM     15  C   UNL     1      34.607 -22.157 -19.299  0.00  0.00    -0.004 C 
ATOM     16  C   UNL     1      31.564 -23.183 -16.646  0.00  0.00    -0.004 C 
ATOM     17  C   UNL     1      36.510 -20.781 -18.779  0.00  0.00    -0.000 C 
ATOM     18  C   UNL     1      31.422 -22.540 -14.331  0.00  0.00    -0.000 C 
ATOM     19  C   UNL     1      35.487 -21.138 -19.649  0.00  0.00    -0.000 C 
ATOM     20  C   UNL     1      30.811 -22.734 -15.564  0.00  0.00    -0.000 C 
ATOM     21  H   UNL     1      36.536 -25.822 -14.542  0.00  0.00    -0.079 HD
ENDROOT
TORSDOF 0
ENDMDL
MODEL 9
REMARK VINA RESULT:      -8.6      3.506      6.706
REMARK  Name = 5205
REMARK  0 active torsions:
REMARK  status: ('A' for Active; 'I' for Inactive)
REMARK                            x       y       z     vdW  Elec       q    Type
REMARK                         _______ _______ _______ _____ _____    ______ ____
ROOT
ATOM      1  N   UNL     1      34.978 -10.168 -24.962  0.00  0.00    +0.388 N 
ATOM      2  C   UNL     1      32.942 -10.147 -22.967  0.00  0.00    -0.031 C 
ATOM      3  C   UNL     1      33.162  -9.009 -23.671  0.00  0.00    -0.048 C 
ATOM      4  C   UNL     1      33.580 -11.454 -23.415  0.00  0.00    +0.003 C 
ATOM      5  C   UNL     1      34.060  -9.020 -24.901  0.00  0.00    -0.050 C 
ATOM      6  C   UNL     1      34.222 -11.409 -24.805  0.00  0.00    -0.072 C 
ATOM      7  C   UNL     1      32.118 -10.224 -21.723  0.00  0.00    -0.008 C 
ATOM      8  C   UNL     1      32.608  -7.671 -23.316  0.00  0.00    -0.010 C 
ATOM      9  C   UNL     1      32.243  -9.264 -20.695  0.00  0.00    -0.018 C 
ATOM     10  C   UNL     1      32.634  -7.190 -21.988  0.00  0.00    -0.018 C 
ATOM     11  C   UNL     1      33.139  -8.061 -20.863  0.00  0.00    +0.053 C 
ATOM     12  C   UNL     1      35.724 -10.165 -26.219  0.00  0.00    -0.100 C 
ATOM     13  C   UNL     1      31.212 -11.283 -21.535  0.00  0.00    -0.001 C 
ATOM     14  C   UNL     1      32.089  -6.836 -24.321  0.00  0.00    -0.001 C 
ATOM     15  C   UNL     1      31.488  -9.392 -19.516  0.00  0.00    -0.004 C 
ATOM     16  C   UNL     1      32.144  -5.906 -21.699  0.00  0.00    -0.004 C 
ATOM     17  C   UNL     1      30.465 -11.398 -20.360  0.00  0.00    -0.000 C 
ATOM     18  C   UNL     1      31.605  -5.561 -24.020  0.00  0.00    -0.000 C 
ATOM     19  C   UNL     1      30.608 -10.456 -19.349  0.00  0.00    -0.000 C 
ATOM     20  C   UNL     1      31.635  -5.095 -22.711  0.00  0.00    -0.000 C 
ATOM     21  H   UNL     1      35.653 -10.094 -24.201  0.00  0.00    -0.079 HD
ENDROOT
TORSDOF 0
ENDMDL
