MODEL 1
REMARK VINA RESULT:      -9.6      0.000      0.000
REMARK  Name = 4979271
REMARK  2 active torsions:
REMARK  status: ('A' for Active; 'I' for Inactive)
REMARK    1  A    between atoms: C_5  and  N_17
REMARK    2  A    between atoms: C_15  and  C_26
REMARK                            x       y       z     vdW  Elec       q    Type
REMARK                         _______ _______ _______ _____ _____    ______ ____
ROOT
ATOM      1  S   UNL     1      34.563 -16.230 -20.591  0.00  0.00    -0.109 S 
ATOM      2  F   UNL     1      34.919 -19.621 -24.368  0.00  0.00    -0.203 F 
ATOM      3  O   UNL     1      33.687 -15.491 -26.925  0.00  0.00    -0.286 OA
ATOM      4  N   UNL     1      33.979 -14.273 -23.043  0.00  0.00    -0.284 N 
ATOM      5  C   UNL     1      34.753 -17.940 -22.699  0.00  0.00    +0.082 C 
ATOM      6  C   UNL     1      34.504 -16.603 -22.341  0.00  0.00    +0.055 C 
ATOM      7  C   UNL     1      34.208 -15.640 -23.329  0.00  0.00    +0.062 C 
ATOM      8  C   UNL     1      34.686 -18.345 -24.029  0.00  0.00    +0.154 C 
ATOM      9  C   UNL     1      34.125 -16.088 -24.671  0.00  0.00    +0.056 C 
ATOM     10  C   UNL     1      34.255 -13.771 -21.692  0.00  0.00    +0.108 C 
ATOM     11  C   UNL     1      33.666 -14.664 -20.618  0.00  0.00    +0.084 C 
ATOM     12  C   UNL     1      34.366 -17.424 -25.017  0.00  0.00    +0.035 C 
ATOM     13  C   UNL     1      33.665 -13.405 -24.076  0.00  0.00    +0.075 C 
ATOM     14  C   UNL     1      33.777 -15.133 -25.757  0.00  0.00    +0.204 C 
ATOM     15  C   UNL     1      33.543 -13.726 -25.365  0.00  0.00    +0.133 C 
ENDROOT
BRANCH   5  17
ATOM     16  N   UNL     1      35.784 -21.013 -19.968  0.00  0.00    +0.388 N 
ATOM     17  N   UNL     1      35.066 -18.916 -21.747  0.00  0.00    -0.310 N 
ATOM     18  C   UNL     1      34.350 -20.557 -20.060  0.00  0.00    -0.056 C 
ATOM     19  C   UNL     1      36.731 -19.862 -20.201  0.00  0.00    -0.056 C 
ATOM     20  C   UNL     1      34.094 -19.970 -21.443  0.00  0.00    +0.068 C 
ATOM     21  C   UNL     1      36.481 -19.280 -21.586  0.00  0.00    +0.068 C 
ATOM     22  C   UNL     1      36.066 -21.716 -18.670  0.00  0.00    -0.101 C 
ATOM     23  H   UNL     1      35.939 -21.695 -20.709  0.00  0.00    -0.080 HD
ENDBRANCH   5  17
BRANCH  15  26
ATOM     24  O   UNL     1      33.744 -11.523 -26.153  0.00  0.00    -0.240 OA
ATOM     25  O   UNL     1      32.394 -12.991 -27.276  0.00  0.00    -0.240 OA
ATOM     26  C   UNL     1      33.194 -12.643 -26.360  0.00  0.00    +0.392 C 
ENDBRANCH  15  26
TORSDOF 2
ENDMDL
MODEL 2
REMARK VINA RESULT:      -8.7      4.620      6.863
REMARK  Name = 4979271
REMARK  2 active torsions:
REMARK  status: ('A' for Active; 'I' for Inactive)
REMARK    1  A    between atoms: C_5  and  N_17
REMARK    2  A    between atoms: C_15  and  C_26
REMARK                            x       y       z     vdW  Elec       q    Type
REMARK                         _______ _______ _______ _____ _____    ______ ____
ROOT
ATOM      1  S   UNL     1      31.995 -12.790 -21.867  0.00  0.00    -0.109 S 
ATOM      2  F   UNL     1      34.945 -11.641 -25.850  0.00  0.00    -0.203 F 
ATOM      3  O   UNL     1      33.645  -7.060 -24.291  0.00  0.00    -0.286 OA
ATOM      4  N   UNL     1      31.893  -9.609 -21.631  0.00  0.00    -0.284 N 
ATOM      5  C   UNL     1      33.576 -12.047 -23.953  0.00  0.00    +0.082 C 
ATOM      6  C   UNL     1      32.789 -11.558 -22.894  0.00  0.00    +0.055 C 
ATOM      7  C   UNL     1      32.642 -10.169 -22.694  0.00  0.00    +0.062 C 
ATOM      8  C   UNL     1      34.200 -11.173 -24.839  0.00  0.00    +0.154 C 
ATOM      9  C   UNL     1      33.272  -9.306 -23.626  0.00  0.00    +0.056 C 
ATOM     10  C   UNL     1      31.408 -10.487 -20.561  0.00  0.00    +0.108 C 
ATOM     11  C   UNL     1      30.743 -11.736 -21.102  0.00  0.00    +0.084 C 
ATOM     12  C   UNL     1      34.045  -9.803 -24.683  0.00  0.00    +0.035 C 
ATOM     13  C   UNL     1      31.779  -8.232 -21.531  0.00  0.00    +0.075 C 
ATOM     14  C   UNL     1      33.122  -7.832 -23.497  0.00  0.00    +0.204 C 
ATOM     15  C   UNL     1      32.313  -7.335 -22.362  0.00  0.00    +0.133 C 
ENDROOT
BRANCH   5  17
ATOM     16  N   UNL     1      33.930 -16.228 -24.550  0.00  0.00    +0.388 N 
ATOM     17  N   UNL     1      33.757 -13.417 -24.170  0.00  0.00    -0.310 N 
ATOM     18  C   UNL     1      34.900 -15.528 -23.633  0.00  0.00    -0.056 C 
ATOM     19  C   UNL     1      33.532 -15.333 -25.698  0.00  0.00    -0.056 C 
ATOM     20  C   UNL     1      34.252 -14.264 -23.081  0.00  0.00    +0.068 C 
ATOM     21  C   UNL     1      32.878 -14.073 -25.148  0.00  0.00    +0.068 C 
ATOM     22  C   UNL     1      34.464 -17.548 -25.029  0.00  0.00    -0.101 C 
ATOM     23  H   UNL     1      33.088 -16.432 -24.012  0.00  0.00    -0.080 HD
ENDBRANCH   5  17
BRANCH  15  26
ATOM     24  O   UNL     1      32.189  -5.512 -20.888  0.00  0.00    -0.240 OA
ATOM     25  O   UNL     1      31.816  -5.169 -23.119  0.00  0.00    -0.240 OA
ATOM     26  C   UNL     1      32.084  -5.864 -22.098  0.00  0.00    +0.392 C 
ENDBRANCH  15  26
TORSDOF 2
ENDMDL
MODEL 3
REMARK VINA RESULT:      -8.4     10.316     12.665
REMARK  Name = 4979271
REMARK  2 active torsions:
REMARK  status: ('A' for Active; 'I' for Inactive)
REMARK    1  A    between atoms: C_5  and  N_17
REMARK    2  A    between atoms: C_15  and  C_26
REMARK                            x       y       z     vdW  Elec       q    Type
REMARK                         _______ _______ _______ _____ _____    ______ ____
ROOT
ATOM      1  S   UNL     1      32.755 -22.681 -17.274  0.00  0.00    -0.109 S 
ATOM      2  F   UNL     1      31.091 -24.896 -13.006  0.00  0.00    -0.203 F 
ATOM      3  O   UNL     1      36.043 -25.478 -12.499  0.00  0.00    -0.286 OA
ATOM      4  N   UNL     1      35.582 -23.405 -15.982  0.00  0.00    -0.284 N 
ATOM      5  C   UNL     1      31.993 -23.862 -14.945  0.00  0.00    +0.082 C 
ATOM      6  C   UNL     1      33.108 -23.492 -15.718  0.00  0.00    +0.055 C 
ATOM      7  C   UNL     1      34.416 -23.777 -15.271  0.00  0.00    +0.062 C 
ATOM      8  C   UNL     1      32.155 -24.540 -13.739  0.00  0.00    +0.154 C 
ATOM      9  C   UNL     1      34.547 -24.487 -14.051  0.00  0.00    +0.056 C 
ATOM     10  C   UNL     1      35.458 -22.506 -17.135  0.00  0.00    +0.108 C 
ATOM     11  C   UNL     1      34.352 -22.934 -18.079  0.00  0.00    +0.084 C 
ATOM     12  C   UNL     1      33.430 -24.860 -13.293  0.00  0.00    +0.035 C 
ATOM     13  C   UNL     1      36.825 -23.754 -15.480  0.00  0.00    +0.075 C 
ATOM     14  C   UNL     1      35.896 -24.856 -13.543  0.00  0.00    +0.204 C 
ATOM     15  C   UNL     1      37.058 -24.435 -14.357  0.00  0.00    +0.133 C 
ENDROOT
BRANCH   5  17
ATOM     16  N   UNL     1      27.962 -23.060 -15.979  0.00  0.00    +0.388 N 
ATOM     17  N   UNL     1      30.684 -23.580 -15.349  0.00  0.00    -0.310 N 
ATOM     18  C   UNL     1      28.751 -24.050 -16.797  0.00  0.00    -0.056 C 
ATOM     19  C   UNL     1      28.849 -21.946 -15.480  0.00  0.00    -0.056 C 
ATOM     20  C   UNL     1      29.863 -24.642 -15.939  0.00  0.00    +0.068 C 
ATOM     21  C   UNL     1      29.955 -22.535 -14.616  0.00  0.00    +0.068 C 
ATOM     22  C   UNL     1      26.773 -22.533 -16.732  0.00  0.00    -0.101 C 
ATOM     23  H   UNL     1      27.597 -23.552 -15.165  0.00  0.00    -0.080 HD
ENDBRANCH   5  17
BRANCH  15  26
ATOM     24  O   UNL     1      38.894 -24.124 -12.927  0.00  0.00    -0.240 OA
ATOM     25  O   UNL     1      39.099 -25.540 -14.713  0.00  0.00    -0.240 OA
ATOM     26  C   UNL     1      38.487 -24.728 -13.961  0.00  0.00    +0.392 C 
ENDBRANCH  15  26
TORSDOF 2
ENDMDL
MODEL 4
REMARK VINA RESULT:      -8.0      9.522     11.688
REMARK  Name = 4979271
REMARK  2 active torsions:
REMARK  status: ('A' for Active; 'I' for Inactive)
REMARK    1  A    between atoms: C_5  and  N_17
REMARK    2  A    between atoms: C_15  and  C_26
REMARK                            x       y       z     vdW  Elec       q    Type
REMARK                         _______ _______ _______ _____ _____    ______ ____
ROOT
ATOM      1  S   UNL     1      35.414 -23.394 -16.866  0.00  0.00    -0.109 S 
ATOM      2  F   UNL     1      34.496 -25.024 -12.134  0.00  0.00    -0.203 F 
ATOM      3  O   UNL     1      29.879 -23.737 -13.597  0.00  0.00    -0.286 OA
ATOM      4  N   UNL     1      32.242 -23.038 -16.848  0.00  0.00    -0.284 N 
ATOM      5  C   UNL     1      34.790 -24.267 -14.366  0.00  0.00    +0.082 C 
ATOM      6  C   UNL     1      34.247 -23.752 -15.556  0.00  0.00    +0.055 C 
ATOM      7  C   UNL     1      32.859 -23.524 -15.670  0.00  0.00    +0.062 C 
ATOM      8  C   UNL     1      33.976 -24.537 -13.270  0.00  0.00    +0.154 C 
ATOM      9  C   UNL     1      32.060 -23.788 -14.530  0.00  0.00    +0.056 C 
ATOM     10  C   UNL     1      33.030 -22.952 -18.083  0.00  0.00    +0.108 C 
ATOM     11  C   UNL     1      34.377 -22.296 -17.857  0.00  0.00    +0.084 C 
ATOM     12  C   UNL     1      32.612 -24.292 -13.345  0.00  0.00    +0.035 C 
ATOM     13  C   UNL     1      30.875 -22.817 -16.858  0.00  0.00    +0.075 C 
ATOM     14  C   UNL     1      30.595 -23.530 -14.569  0.00  0.00    +0.204 C 
ATOM     15  C   UNL     1      30.038 -23.012 -15.837  0.00  0.00    +0.133 C 
ENDROOT
BRANCH   5  17
ATOM     16  N   UNL     1      38.890 -25.166 -13.782  0.00  0.00    +0.388 N 
ATOM     17  N   UNL     1      36.159 -24.521 -14.225  0.00  0.00    -0.310 N 
ATOM     18  C   UNL     1      38.433 -23.732 -13.719  0.00  0.00    -0.056 C 
ATOM     19  C   UNL     1      38.084 -25.945 -14.792  0.00  0.00    -0.056 C 
ATOM     20  C   UNL     1      36.961 -23.688 -13.326  0.00  0.00    +0.068 C 
ATOM     21  C   UNL     1      36.615 -25.908 -14.395  0.00  0.00    +0.068 C 
ATOM     22  C   UNL     1      40.367 -25.272 -14.044  0.00  0.00    -0.101 C 
ATOM     23  H   UNL     1      38.726 -25.584 -12.867  0.00  0.00    -0.080 HD
ENDBRANCH   5  17
BRANCH  15  26
ATOM     24  O   UNL     1      28.127 -21.732 -15.368  0.00  0.00    -0.240 OA
ATOM     25  O   UNL     1      27.961 -23.489 -16.824  0.00  0.00    -0.240 OA
ATOM     26  C   UNL     1      28.568 -22.716 -16.028  0.00  0.00    +0.392 C 
ENDBRANCH  15  26
TORSDOF 2
ENDMDL
MODEL 5
REMARK VINA RESULT:      -8.0      4.784      7.012
REMARK  Name = 4979271
REMARK  2 active torsions:
REMARK  status: ('A' for Active; 'I' for Inactive)
REMARK    1  A    between atoms: C_5  and  N_17
REMARK    2  A    between atoms: C_15  and  C_26
REMARK                            x       y       z     vdW  Elec       q    Type
REMARK                         _______ _______ _______ _____ _____    ______ ____
ROOT
ATOM      1  S   UNL     1      34.457 -11.417 -24.980  0.00  0.00    -0.109 S 
ATOM      2  F   UNL     1      31.817 -14.047 -21.516  0.00  0.00    -0.203 F 
ATOM      3  O   UNL     1      31.223  -9.376 -19.802  0.00  0.00    -0.286 OA
ATOM      4  N   UNL     1      33.407  -8.968 -23.223  0.00  0.00    -0.284 N 
ATOM      5  C   UNL     1      32.991 -12.706 -23.085  0.00  0.00    +0.082 C 
ATOM      6  C   UNL     1      33.417 -11.440 -23.523  0.00  0.00    +0.055 C 
ATOM      7  C   UNL     1      33.042 -10.275 -22.819  0.00  0.00    +0.062 C 
ATOM      8  C   UNL     1      32.217 -12.839 -21.935  0.00  0.00    +0.154 C 
ATOM      9  C   UNL     1      32.272 -10.445 -21.642  0.00  0.00    +0.056 C 
ATOM     10  C   UNL     1      34.031  -8.775 -24.537  0.00  0.00    +0.108 C 
ATOM     11  C   UNL     1      35.154  -9.762 -24.788  0.00  0.00    +0.084 C 
ATOM     12  C   UNL     1      31.861 -11.712 -21.207  0.00  0.00    +0.035 C 
ATOM     13  C   UNL     1      33.018  -7.885 -22.452  0.00  0.00    +0.075 C 
ATOM     14  C   UNL     1      31.879  -9.262 -20.830  0.00  0.00    +0.204 C 
ATOM     15  C   UNL     1      32.313  -7.936 -21.321  0.00  0.00    +0.133 C 
ENDROOT
BRANCH   5  17
ATOM     16  N   UNL     1      34.206 -16.182 -25.184  0.00  0.00    +0.388 N 
ATOM     17  N   UNL     1      33.330 -13.879 -23.767  0.00  0.00    -0.310 N 
ATOM     18  C   UNL     1      32.993 -15.421 -25.654  0.00  0.00    -0.056 C 
ATOM     19  C   UNL     1      34.327 -16.128 -23.681  0.00  0.00    -0.056 C 
ATOM     20  C   UNL     1      33.105 -13.967 -25.213  0.00  0.00    +0.068 C 
ATOM     21  C   UNL     1      34.447 -14.676 -23.240  0.00  0.00    +0.068 C 
ATOM     22  C   UNL     1      34.215 -17.595 -25.695  0.00  0.00    -0.101 C 
ATOM     23  H   UNL     1      35.029 -15.725 -25.576  0.00  0.00    -0.080 HD
ENDBRANCH   5  17
BRANCH  15  26
ATOM     24  O   UNL     1      31.139  -5.906 -21.199  0.00  0.00    -0.240 OA
ATOM     25  O   UNL     1      32.577  -6.466 -19.509  0.00  0.00    -0.240 OA
ATOM     26  C   UNL     1      31.977  -6.646 -20.608  0.00  0.00    +0.392 C 
ENDBRANCH  15  26
TORSDOF 2
ENDMDL
MODEL 6
REMARK VINA RESULT:      -7.6      4.028      7.678
REMARK  Name = 4979271
REMARK  2 active torsions:
REMARK  status: ('A' for Active; 'I' for Inactive)
REMARK    1  A    between atoms: C_5  and  N_17
REMARK    2  A    between atoms: C_15  and  C_26
REMARK                            x       y       z     vdW  Elec       q    Type
REMARK                         _______ _______ _______ _____ _____    ______ ____
ROOT
ATOM      1  S   UNL     1      32.950 -13.144 -25.310  0.00  0.00    -0.109 S 
ATOM      2  F   UNL     1      32.623 -12.885 -20.238  0.00  0.00    -0.203 F 
ATOM      3  O   UNL     1      34.202 -17.603 -20.839  0.00  0.00    -0.286 OA
ATOM      4  N   UNL     1      34.019 -16.070 -24.615  0.00  0.00    -0.284 N 
ATOM      5  C   UNL     1      32.847 -13.121 -22.591  0.00  0.00    +0.082 C 
ATOM      6  C   UNL     1      33.177 -13.910 -23.708  0.00  0.00    +0.055 C 
ATOM      7  C   UNL     1      33.639 -15.232 -23.539  0.00  0.00    +0.062 C 
ATOM      8  C   UNL     1      32.943 -13.637 -21.301  0.00  0.00    +0.154 C 
ATOM      9  C   UNL     1      33.705 -15.735 -22.215  0.00  0.00    +0.056 C 
ATOM     10  C   UNL     1      34.139 -15.494 -25.959  0.00  0.00    +0.108 C 
ATOM     11  C   UNL     1      32.943 -14.638 -26.324  0.00  0.00    +0.084 C 
ATOM     12  C   UNL     1      33.365 -14.945 -21.110  0.00  0.00    +0.035 C 
ATOM     13  C   UNL     1      34.433 -17.366 -24.355  0.00  0.00    +0.075 C 
ATOM     14  C   UNL     1      34.145 -17.135 -21.969  0.00  0.00    +0.204 C 
ATOM     15  C   UNL     1      34.513 -17.941 -23.154  0.00  0.00    +0.133 C 
ENDROOT
BRANCH   5  17
ATOM     16  N   UNL     1      31.635  -9.068 -22.838  0.00  0.00    +0.388 N 
ATOM     17  N   UNL     1      32.402 -11.801 -22.721  0.00  0.00    -0.310 N 
ATOM     18  C   UNL     1      30.605 -10.130 -22.550  0.00  0.00    -0.056 C 
ATOM     19  C   UNL     1      32.706  -9.592 -23.761  0.00  0.00    -0.056 C 
ATOM     20  C   UNL     1      31.284 -11.329 -21.899  0.00  0.00    +0.068 C 
ATOM     21  C   UNL     1      33.391 -10.785 -23.109  0.00  0.00    +0.068 C 
ATOM     22  C   UNL     1      31.008  -7.809 -23.367  0.00  0.00    -0.101 C 
ATOM     23  H   UNL     1      32.082  -8.822 -21.955  0.00  0.00    -0.080 HD
ENDBRANCH   5  17
BRANCH  15  26
ATOM     24  O   UNL     1      35.222 -19.785 -21.885  0.00  0.00    -0.240 OA
ATOM     25  O   UNL     1      35.094 -19.981 -24.162  0.00  0.00    -0.240 OA
ATOM     26  C   UNL     1      34.988 -19.373 -23.058  0.00  0.00    +0.392 C 
ENDBRANCH  15  26
TORSDOF 2
ENDMDL
MODEL 7
REMARK VINA RESULT:      -7.3      5.163      9.169
REMARK  Name = 4979271
REMARK  2 active torsions:
REMARK  status: ('A' for Active; 'I' for Inactive)
REMARK    1  A    between atoms: C_5  and  N_17
REMARK    2  A    between atoms: C_15  and  C_26
REMARK                            x       y       z     vdW  Elec       q    Type
REMARK                         _______ _______ _______ _____ _____    ______ ____
ROOT
ATOM      1  S   UNL     1      31.777  -9.198 -21.179  0.00  0.00    -0.109 S 
ATOM      2  F   UNL     1      33.845 -10.359 -25.681  0.00  0.00    -0.203 F 
ATOM      3  O   UNL     1      33.803 -14.859 -23.476  0.00  0.00    -0.286 OA
ATOM      4  N   UNL     1      32.067 -12.350 -20.770  0.00  0.00    -0.284 N 
ATOM      5  C   UNL     1      32.861  -9.951 -23.558  0.00  0.00    +0.082 C 
ATOM      6  C   UNL     1      32.422 -10.426 -22.310  0.00  0.00    +0.055 C 
ATOM      7  C   UNL     1      32.518 -11.798 -21.993  0.00  0.00    +0.062 C 
ATOM      8  C   UNL     1      33.423 -10.816 -24.494  0.00  0.00    +0.154 C 
ATOM      9  C   UNL     1      33.114 -12.650 -22.957  0.00  0.00    +0.056 C 
ATOM     10  C   UNL     1      31.277 -11.513 -19.859  0.00  0.00    +0.108 C 
ATOM     11  C   UNL     1      31.901 -10.149 -19.649  0.00  0.00    +0.084 C 
ATOM     12  C   UNL     1      33.557 -12.165 -24.194  0.00  0.00    +0.035 C 
ATOM     13  C   UNL     1      32.229 -13.705 -20.534  0.00  0.00    +0.075 C 
ATOM     14  C   UNL     1      33.283 -14.100 -22.669  0.00  0.00    +0.204 C 
ATOM     15  C   UNL     1      32.792 -14.587 -21.362  0.00  0.00    +0.133 C 
ENDROOT
BRANCH   5  17
ATOM     16  N   UNL     1      32.622  -5.811 -24.435  0.00  0.00    +0.388 N 
ATOM     17  N   UNL     1      32.766  -8.600 -23.912  0.00  0.00    -0.310 N 
ATOM     18  C   UNL     1      31.430  -6.693 -24.706  0.00  0.00    -0.056 C 
ATOM     19  C   UNL     1      33.911  -6.558 -24.671  0.00  0.00    -0.056 C 
ATOM     20  C   UNL     1      31.481  -7.907 -23.787  0.00  0.00    +0.068 C 
ATOM     21  C   UNL     1      33.966  -7.767 -23.747  0.00  0.00    +0.068 C 
ATOM     22  C   UNL     1      32.564  -4.533 -25.224  0.00  0.00    -0.101 C 
ATOM     23  H   UNL     1      32.594  -5.547 -23.451  0.00  0.00    -0.080 HD
ENDBRANCH   5  17
BRANCH  15  26
ATOM     24  O   UNL     1      31.779 -16.595 -20.687  0.00  0.00    -0.240 OA
ATOM     25  O   UNL     1      34.057 -16.506 -20.883  0.00  0.00    -0.240 OA
ATOM     26  C   UNL     1      32.885 -16.035 -20.937  0.00  0.00    +0.392 C 
ENDBRANCH  15  26
TORSDOF 2
ENDMDL
MODEL 8
REMARK VINA RESULT:      -7.2      5.122      8.997
REMARK  Name = 4979271
REMARK  2 active torsions:
REMARK  status: ('A' for Active; 'I' for Inactive)
REMARK    1  A    between atoms: C_5  and  N_17
REMARK    2  A    between atoms: C_15  and  C_26
REMARK                            x       y       z     vdW  Elec       q    Type
REMARK                         _______ _______ _______ _____ _____    ______ ____
ROOT
ATOM      1  S   UNL     1      33.253 -11.065 -24.490  0.00  0.00    -0.109 S 
ATOM      2  F   UNL     1      31.090 -10.218 -19.963  0.00  0.00    -0.203 F 
ATOM      3  O   UNL     1      32.262 -15.073 -19.551  0.00  0.00    -0.286 OA
ATOM      4  N   UNL     1      33.664 -13.963 -23.217  0.00  0.00    -0.284 N 
ATOM      5  C   UNL     1      32.147 -10.731 -22.027  0.00  0.00    +0.082 C 
ATOM      6  C   UNL     1      32.782 -11.660 -22.869  0.00  0.00    +0.055 C 
ATOM      7  C   UNL     1      33.003 -12.985 -22.435  0.00  0.00    +0.062 C 
ATOM      8  C   UNL     1      31.700 -11.104 -20.762  0.00  0.00    +0.154 C 
ATOM      9  C   UNL     1      32.517 -13.340 -21.152  0.00  0.00    +0.056 C 
ATOM     10  C   UNL     1      34.338 -13.550 -24.454  0.00  0.00    +0.108 C 
ATOM     11  C   UNL     1      33.463 -12.659 -25.313  0.00  0.00    +0.084 C 
ATOM     12  C   UNL     1      31.877 -12.410 -20.324  0.00  0.00    +0.035 C 
ATOM     13  C   UNL     1      33.810 -15.247 -22.720  0.00  0.00    +0.075 C 
ATOM     14  C   UNL     1      32.680 -14.731 -20.650  0.00  0.00    +0.204 C 
ATOM     15  C   UNL     1      33.374 -15.689 -21.539  0.00  0.00    +0.133 C 
ENDROOT
BRANCH   5  17
ATOM     16  N   UNL     1      31.417  -6.676 -23.018  0.00  0.00    +0.388 N 
ATOM     17  N   UNL     1      31.928  -9.406 -22.418  0.00  0.00    -0.310 N 
ATOM     18  C   UNL     1      30.752  -7.764 -23.823  0.00  0.00    -0.056 C 
ATOM     19  C   UNL     1      32.788  -7.105 -22.561  0.00  0.00    -0.056 C 
ATOM     20  C   UNL     1      30.625  -9.018 -22.967  0.00  0.00    +0.068 C 
ATOM     21  C   UNL     1      32.662  -8.354 -21.700  0.00  0.00    +0.068 C 
ATOM     22  C   UNL     1      31.458  -5.373 -23.766  0.00  0.00    -0.101 C 
ATOM     23  H   UNL     1      30.850  -6.516 -22.186  0.00  0.00    -0.080 HD
ENDBRANCH   5  17
BRANCH  15  26
ATOM     24  O   UNL     1      32.582 -17.820 -20.953  0.00  0.00    -0.240 OA
ATOM     25  O   UNL     1      34.839 -17.469 -21.095  0.00  0.00    -0.240 OA
ATOM     26  C   UNL     1      33.622 -17.131 -21.160  0.00  0.00    +0.392 C 
ENDBRANCH  15  26
TORSDOF 2
ENDMDL
MODEL 9
REMARK VINA RESULT:      -7.2      1.849      2.894
REMARK  Name = 4979271
REMARK  2 active torsions:
REMARK  status: ('A' for Active; 'I' for Inactive)
REMARK    1  A    between atoms: C_5  and  N_17
REMARK    2  A    between atoms: C_15  and  C_26
REMARK                            x       y       z     vdW  Elec       q    Type
REMARK                         _______ _______ _______ _____ _____    ______ ____
ROOT
ATOM      1  S   UNL     1      34.497 -18.768 -23.999  0.00  0.00    -0.109 S 
ATOM      2  F   UNL     1      34.948 -16.161 -19.653  0.00  0.00    -0.203 F 
ATOM      3  O   UNL     1      34.013 -12.447 -22.884  0.00  0.00    -0.286 OA
ATOM      4  N   UNL     1      33.862 -15.850 -25.127  0.00  0.00    -0.284 N 
ATOM      5  C   UNL     1      34.683 -17.266 -21.738  0.00  0.00    +0.082 C 
ATOM      6  C   UNL     1      34.429 -17.210 -23.120  0.00  0.00    +0.055 C 
ATOM      7  C   UNL     1      34.158 -15.976 -23.749  0.00  0.00    +0.062 C 
ATOM      8  C   UNL     1      34.700 -16.106 -20.969  0.00  0.00    +0.154 C 
ATOM      9  C   UNL     1      34.204 -14.811 -22.943  0.00  0.00    +0.056 C 
ATOM     10  C   UNL     1      33.621 -17.063 -25.918  0.00  0.00    +0.108 C 
ATOM     11  C   UNL     1      34.676 -18.123 -25.677  0.00  0.00    +0.084 C 
ATOM     12  C   UNL     1      34.468 -14.876 -21.569  0.00  0.00    +0.035 C 
ATOM     13  C   UNL     1      33.638 -14.593 -25.663  0.00  0.00    +0.075 C 
ATOM     14  C   UNL     1      33.969 -13.473 -23.551  0.00  0.00    +0.204 C 
ATOM     15  C   UNL     1      33.677 -13.436 -25.001  0.00  0.00    +0.133 C 
ENDROOT
BRANCH   5  17
ATOM     16  N   UNL     1      35.529 -21.001 -19.923  0.00  0.00    +0.388 N 
ATOM     17  N   UNL     1      34.938 -18.474 -21.080  0.00  0.00    -0.310 N 
ATOM     18  C   UNL     1      34.128 -20.449 -19.858  0.00  0.00    -0.056 C 
ATOM     19  C   UNL     1      36.549 -19.891 -19.874  0.00  0.00    -0.056 C 
ATOM     20  C   UNL     1      33.901 -19.508 -21.035  0.00  0.00    +0.068 C 
ATOM     21  C   UNL     1      36.327 -18.954 -21.053  0.00  0.00    +0.068 C 
ATOM     22  C   UNL     1      35.775 -22.033 -18.859  0.00  0.00    -0.101 C 
ATOM     23  H   UNL     1      35.633 -21.476 -20.819  0.00  0.00    -0.080 HD
ENDBRANCH   5  17
BRANCH  15  26
ATOM     24  O   UNL     1      33.563 -11.092 -25.080  0.00  0.00    -0.240 OA
ATOM     25  O   UNL     1      33.055 -12.297 -26.957  0.00  0.00    -0.240 OA
ATOM     26  C   UNL     1      33.406 -12.152 -25.751  0.00  0.00    +0.392 C 
ENDBRANCH  15  26
TORSDOF 2
ENDMDL
