MODEL 1
REMARK VINA RESULT:     -11.7      0.000      0.000
REMARK  Name = 9823820
REMARK  6 active torsions:
REMARK  status: ('A' for Active; 'I' for Inactive)
REMARK    1  A    between atoms: O_1  and  C_4
REMARK    2  A    between atoms: O_1  and  C_23
REMARK    3  A    between atoms: C_7  and  C_14
REMARK    4  A    between atoms: C_8  and  O_17
REMARK    5  A    between atoms: C_20  and  N_28
REMARK    6  A    between atoms: N_27  and  C_32
REMARK                            x       y       z     vdW  Elec       q    Type
REMARK                         _______ _______ _______ _____ _____    ______ ____
ROOT
ATOM      1  O   UNL     1      34.167 -23.468 -18.311  0.00  0.00    -0.454 OA
ENDROOT
BRANCH   1   4
ATOM      2  N   UNL     1      32.388 -23.283 -14.570  0.00  0.00    -0.248 NA
ATOM      3  C   UNL     1      34.361 -23.629 -15.909  0.00  0.00    +0.031 C 
ATOM      4  C   UNL     1      33.604 -23.412 -17.069  0.00  0.00    +0.144 C 
ATOM      5  C   UNL     1      33.703 -23.554 -14.664  0.00  0.00    +0.066 C 
ATOM      6  C   UNL     1      35.735 -23.915 -15.970  0.00  0.00    +0.064 C 
ATOM      7  C   UNL     1      36.463 -24.126 -14.803  0.00  0.00    +0.065 C 
ATOM      8  C   UNL     1      35.822 -24.053 -13.572  0.00  0.00    +0.123 C 
ATOM      9  C   UNL     1      34.456 -23.770 -13.512  0.00  0.00    +0.109 C 
ATOM     10  C   UNL     1      32.249 -23.132 -16.975  0.00  0.00    +0.058 C 
ATOM     11  C   UNL     1      31.694 -23.079 -15.713  0.00  0.00    +0.102 C 
BRANCH   7  14
ATOM     12  O   UNL     1      38.686 -23.603 -15.380  0.00  0.00    -0.271 OA
ATOM     13  N   UNL     1      38.327 -25.641 -14.393  0.00  0.00    -0.325 N 
ATOM     14  C   UNL     1      37.886 -24.420 -14.892  0.00  0.00    +0.242 C 
ATOM     15  H   UNL     1      39.283 -25.874 -14.435  0.00  0.00    +0.145 HD
ATOM     16  H   UNL     1      37.683 -26.272 -13.997  0.00  0.00    +0.145 HD
ENDBRANCH   7  14
BRANCH   8  17
ATOM     17  O   UNL     1      36.508 -24.255 -12.412  0.00  0.00    -0.475 OA
ATOM     18  C   UNL     1      36.849 -23.096 -11.652  0.00  0.00    +0.252 C 
ENDBRANCH   8  17
ENDBRANCH   1   4
BRANCH   1  23
ATOM     19 CL   UNL     1      37.134 -19.900 -20.362  0.00  0.00    -0.081 Cl
ATOM     20  C   UNL     1      34.407 -19.930 -20.469  0.00  0.00    +0.062 C 
ATOM     21  C   UNL     1      35.572 -20.559 -20.029  0.00  0.00    +0.074 C 
ATOM     22  C   UNL     1      33.162 -20.491 -20.184  0.00  0.00    +0.019 C 
ATOM     23  C   UNL     1      34.248 -22.290 -19.031  0.00  0.00    +0.146 C 
ATOM     24  C   UNL     1      35.491 -21.748 -19.304  0.00  0.00    +0.050 C 
ATOM     25  C   UNL     1      33.081 -21.680 -19.459  0.00  0.00    +0.039 C 
BRANCH  20  28
ATOM     26  O   UNL     1      34.973 -19.448 -23.379  0.00  0.00    -0.252 OA
ATOM     27  N   UNL     1      34.674 -17.206 -22.913  0.00  0.00    -0.290 N 
ATOM     28  N   UNL     1      34.452 -18.738 -21.198  0.00  0.00    -0.268 N 
ATOM     29  C   UNL     1      34.724 -18.560 -22.566  0.00  0.00    +0.304 C 
ATOM     30  H   UNL     1      34.467 -16.547 -22.212  0.00  0.00    +0.151 HD
ATOM     31  H   UNL     1      34.271 -17.916 -20.687  0.00  0.00    +0.156 HD
BRANCH  27  32
ATOM     32  C   UNL     1      34.912 -16.737 -24.248  0.00  0.00    +0.073 C 
ATOM     33  C   UNL     1      33.936 -15.832 -24.928  0.00  0.00    +0.021 C 
ATOM     34  C   UNL     1      34.101 -17.249 -25.394  0.00  0.00    +0.021 C 
ENDBRANCH  27  32
ENDBRANCH  20  28
ENDBRANCH   1  23
TORSDOF 6
ENDMDL
MODEL 2
REMARK VINA RESULT:     -11.3      2.164      3.912
REMARK  Name = 9823820
REMARK  6 active torsions:
REMARK  status: ('A' for Active; 'I' for Inactive)
REMARK    1  A    between atoms: O_1  and  C_4
REMARK    2  A    between atoms: O_1  and  C_23
REMARK    3  A    between atoms: C_7  and  C_14
REMARK    4  A    between atoms: C_8  and  O_17
REMARK    5  A    between atoms: C_20  and  N_28
REMARK    6  A    between atoms: N_27  and  C_32
REMARK                            x       y       z     vdW  Elec       q    Type
REMARK                         _______ _______ _______ _____ _____    ______ ____
ROOT
ATOM      1  O   UNL     1      34.365 -23.040 -18.750  0.00  0.00    -0.454 OA
ENDROOT
BRANCH   1   4
ATOM      2  N   UNL     1      35.037 -22.935 -14.660  0.00  0.00    -0.248 NA
ATOM      3  C   UNL     1      33.489 -23.088 -16.500  0.00  0.00    +0.031 C 
ATOM      4  C   UNL     1      34.561 -23.008 -17.400  0.00  0.00    +0.144 C 
ATOM      5  C   UNL     1      33.777 -23.047 -15.120  0.00  0.00    +0.066 C 
ATOM      6  C   UNL     1      32.162 -23.206 -16.945  0.00  0.00    +0.064 C 
ATOM      7  C   UNL     1      31.116 -23.284 -16.030  0.00  0.00    +0.065 C 
ATOM      8  C   UNL     1      31.392 -23.245 -14.669  0.00  0.00    +0.123 C 
ATOM      9  C   UNL     1      32.712 -23.128 -14.227  0.00  0.00    +0.109 C 
ATOM     10  C   UNL     1      35.860 -22.892 -16.929  0.00  0.00    +0.058 C 
ATOM     11  C   UNL     1      36.043 -22.861 -15.562  0.00  0.00    +0.102 C 
BRANCH   7  14
ATOM     12  O   UNL     1      29.204 -22.488 -17.152  0.00  0.00    -0.271 OA
ATOM     13  N   UNL     1      29.077 -24.596 -16.261  0.00  0.00    -0.325 N 
ATOM     14  C   UNL     1      29.749 -23.407 -16.516  0.00  0.00    +0.242 C 
ATOM     15  H   UNL     1      28.151 -24.717 -16.574  0.00  0.00    +0.145 HD
ATOM     16  H   UNL     1      29.527 -25.320 -15.767  0.00  0.00    +0.145 HD
ENDBRANCH   7  14
BRANCH   8  17
ATOM     17  O   UNL     1      30.390 -23.321 -13.748  0.00  0.00    -0.475 OA
ATOM     18  C   UNL     1      30.403 -24.442 -12.867  0.00  0.00    +0.252 C 
ENDBRANCH   8  17
ENDBRANCH   1   4
BRANCH   1  23
ATOM     19 CL   UNL     1      37.109 -19.332 -20.858  0.00  0.00    -0.081 Cl
ATOM     20  C   UNL     1      34.383 -19.420 -20.781  0.00  0.00    +0.062 C 
ATOM     21  C   UNL     1      35.588 -20.038 -20.446  0.00  0.00    +0.074 C 
ATOM     22  C   UNL     1      33.172 -20.020 -20.435  0.00  0.00    +0.019 C 
ATOM     23  C   UNL     1      34.371 -21.835 -19.428  0.00  0.00    +0.146 C 
ATOM     24  C   UNL     1      35.582 -21.255 -19.764  0.00  0.00    +0.050 C 
ATOM     25  C   UNL     1      33.166 -21.237 -19.753  0.00  0.00    +0.039 C 
BRANCH  20  28
ATOM     26  O   UNL     1      34.850 -18.805 -23.684  0.00  0.00    -0.252 OA
ATOM     27  N   UNL     1      34.458 -16.598 -23.125  0.00  0.00    -0.290 N 
ATOM     28  N   UNL     1      34.353 -18.202 -21.465  0.00  0.00    -0.268 N 
ATOM     29  C   UNL     1      34.580 -17.960 -22.832  0.00  0.00    +0.304 C 
ATOM     30  H   UNL     1      34.239 -15.976 -22.394  0.00  0.00    +0.151 HD
ATOM     31  H   UNL     1      34.147 -17.409 -20.918  0.00  0.00    +0.156 HD
BRANCH  27  32
ATOM     32  C   UNL     1      34.640 -16.069 -24.447  0.00  0.00    +0.073 C 
ATOM     33  C   UNL     1      33.690 -15.059 -25.004  0.00  0.00    +0.021 C 
ATOM     34  C   UNL     1      33.717 -16.453 -25.557  0.00  0.00    +0.021 C 
ENDBRANCH  27  32
ENDBRANCH  20  28
ENDBRANCH   1  23
TORSDOF 6
ENDMDL
MODEL 3
REMARK VINA RESULT:     -11.3      1.377      1.455
REMARK  Name = 9823820
REMARK  6 active torsions:
REMARK  status: ('A' for Active; 'I' for Inactive)
REMARK    1  A    between atoms: O_1  and  C_4
REMARK    2  A    between atoms: O_1  and  C_23
REMARK    3  A    between atoms: C_7  and  C_14
REMARK    4  A    between atoms: C_8  and  O_17
REMARK    5  A    between atoms: C_20  and  N_28
REMARK    6  A    between atoms: N_27  and  C_32
REMARK                            x       y       z     vdW  Elec       q    Type
REMARK                         _______ _______ _______ _____ _____    ______ ____
ROOT
ATOM      1  O   UNL     1      34.578 -23.088 -18.489  0.00  0.00    -0.454 OA
ENDROOT
BRANCH   1   4
ATOM      2  N   UNL     1      32.104 -23.193 -15.164  0.00  0.00    -0.248 NA
ATOM      3  C   UNL     1      34.287 -23.514 -16.130  0.00  0.00    +0.031 C 
ATOM      4  C   UNL     1      33.783 -23.130 -17.380  0.00  0.00    +0.144 C 
ATOM      5  C   UNL     1      33.400 -23.531 -15.034  0.00  0.00    +0.066 C 
ATOM      6  C   UNL     1      35.634 -23.873 -15.958  0.00  0.00    +0.064 C 
ATOM      7  C   UNL     1      36.109 -24.250 -14.705  0.00  0.00    +0.065 C 
ATOM      8  C   UNL     1      35.241 -24.269 -13.621  0.00  0.00    +0.123 C 
ATOM      9  C   UNL     1      33.901 -23.912 -13.792  0.00  0.00    +0.109 C 
ATOM     10  C   UNL     1      32.448 -22.781 -17.517  0.00  0.00    +0.058 C 
ATOM     11  C   UNL     1      31.657 -22.828 -16.388  0.00  0.00    +0.102 C 
BRANCH   7  14
ATOM     12  O   UNL     1      38.420 -23.805 -14.786  0.00  0.00    -0.271 OA
ATOM     13  N   UNL     1      37.796 -25.906 -14.116  0.00  0.00    -0.325 N 
ATOM     14  C   UNL     1      37.509 -24.618 -14.552  0.00  0.00    +0.242 C 
ATOM     15  H   UNL     1      38.731 -26.191 -14.000  0.00  0.00    +0.145 HD
ATOM     16  H   UNL     1      37.063 -26.534 -13.921  0.00  0.00    +0.145 HD
ENDBRANCH   7  14
BRANCH   8  17
ATOM     17  O   UNL     1      35.676 -24.633 -12.381  0.00  0.00    -0.475 OA
ATOM     18  C   UNL     1      36.099 -23.585 -11.510  0.00  0.00    +0.252 C 
ENDBRANCH   8  17
ENDBRANCH   1   4
BRANCH   1  23
ATOM     19 CL   UNL     1      37.107 -19.420 -20.916  0.00  0.00    -0.081 Cl
ATOM     20  C   UNL     1      34.392 -19.683 -20.856  0.00  0.00    +0.062 C 
ATOM     21  C   UNL     1      35.629 -20.184 -20.452  0.00  0.00    +0.074 C 
ATOM     22  C   UNL     1      33.217 -20.327 -20.465  0.00  0.00    +0.019 C 
ATOM     23  C   UNL     1      34.517 -21.954 -19.278  0.00  0.00    +0.146 C 
ATOM     24  C   UNL     1      35.692 -21.329 -19.657  0.00  0.00    +0.050 C 
ATOM     25  C   UNL     1      33.280 -21.471 -19.670  0.00  0.00    +0.039 C 
BRANCH  20  28
ATOM     26  O   UNL     1      35.036 -16.816 -20.235  0.00  0.00    -0.252 OA
ATOM     27  N   UNL     1      34.368 -16.353 -22.397  0.00  0.00    -0.290 N 
ATOM     28  N   UNL     1      34.292 -18.539 -21.653  0.00  0.00    -0.268 N 
ATOM     29  C   UNL     1      34.607 -17.210 -21.317  0.00  0.00    +0.304 C 
ATOM     30  H   UNL     1      34.024 -16.736 -23.236  0.00  0.00    +0.151 HD
ATOM     31  H   UNL     1      33.958 -18.682 -22.568  0.00  0.00    +0.156 HD
BRANCH  27  32
ATOM     32  C   UNL     1      34.603 -14.939 -22.332  0.00  0.00    +0.073 C 
ATOM     33  C   UNL     1      33.507 -13.998 -21.948  0.00  0.00    +0.021 C 
ATOM     34  C   UNL     1      34.022 -14.020 -23.357  0.00  0.00    +0.021 C 
ENDBRANCH  27  32
ENDBRANCH  20  28
ENDBRANCH   1  23
TORSDOF 6
ENDMDL
MODEL 4
REMARK VINA RESULT:     -11.1      2.085      3.252
REMARK  Name = 9823820
REMARK  6 active torsions:
REMARK  status: ('A' for Active; 'I' for Inactive)
REMARK    1  A    between atoms: O_1  and  C_4
REMARK    2  A    between atoms: O_1  and  C_23
REMARK    3  A    between atoms: C_7  and  C_14
REMARK    4  A    between atoms: C_8  and  O_17
REMARK    5  A    between atoms: C_20  and  N_28
REMARK    6  A    between atoms: N_27  and  C_32
REMARK                            x       y       z     vdW  Elec       q    Type
REMARK                         _______ _______ _______ _____ _____    ______ ____
ROOT
ATOM      1  O   UNL     1      34.601 -22.538 -18.551  0.00  0.00    -0.454 OA
ENDROOT
BRANCH   1   4
ATOM      2  N   UNL     1      37.396 -22.369 -15.493  0.00  0.00    -0.248 NA
ATOM      3  C   UNL     1      35.167 -22.906 -16.232  0.00  0.00    +0.031 C 
ATOM      4  C   UNL     1      35.504 -22.491 -17.528  0.00  0.00    +0.144 C 
ATOM      5  C   UNL     1      36.158 -22.827 -15.232  0.00  0.00    +0.066 C 
ATOM      6  C   UNL     1      33.885 -23.390 -15.925  0.00  0.00    +0.064 C 
ATOM      7  C   UNL     1      33.577 -23.795 -14.629  0.00  0.00    +0.065 C 
ATOM      8  C   UNL     1      34.547 -23.720 -13.638  0.00  0.00    +0.123 C 
ATOM      9  C   UNL     1      35.823 -23.239 -13.945  0.00  0.00    +0.109 C 
ATOM     10  C   UNL     1      36.779 -22.019 -17.800  0.00  0.00    +0.058 C 
ATOM     11  C   UNL     1      37.681 -21.978 -16.756  0.00  0.00    +0.102 C 
BRANCH   7  14
ATOM     12  O   UNL     1      31.227 -23.716 -14.765  0.00  0.00    -0.271 OA
ATOM     13  N   UNL     1      32.136 -25.451 -13.572  0.00  0.00    -0.325 N 
ATOM     14  C   UNL     1      32.241 -24.293 -14.335  0.00  0.00    +0.242 C 
ATOM     15  H   UNL     1      31.249 -25.818 -13.353  0.00  0.00    +0.145 HD
ATOM     16  H   UNL     1      32.949 -25.904 -13.250  0.00  0.00    +0.145 HD
ENDBRANCH   7  14
BRANCH   8  17
ATOM     17  O   UNL     1      34.277 -24.111 -12.361  0.00  0.00    -0.475 OA
ATOM     18  C   UNL     1      35.394 -24.403 -11.523  0.00  0.00    +0.252 C 
ENDBRANCH   8  17
ENDBRANCH   1   4
BRANCH   1  23
ATOM     19 CL   UNL     1      37.135 -19.096 -21.284  0.00  0.00    -0.081 Cl
ATOM     20  C   UNL     1      34.417 -19.268 -21.101  0.00  0.00    +0.062 C 
ATOM     21  C   UNL     1      35.655 -19.785 -20.719  0.00  0.00    +0.074 C 
ATOM     22  C   UNL     1      33.242 -19.850 -20.627  0.00  0.00    +0.019 C 
ATOM     23  C   UNL     1      34.540 -21.449 -19.401  0.00  0.00    +0.146 C 
ATOM     24  C   UNL     1      35.717 -20.884 -19.862  0.00  0.00    +0.050 C 
ATOM     25  C   UNL     1      33.304 -20.950 -19.770  0.00  0.00    +0.039 C 
BRANCH  20  28
ATOM     26  O   UNL     1      34.748 -16.334 -20.549  0.00  0.00    -0.252 OA
ATOM     27  N   UNL     1      34.302 -16.013 -22.792  0.00  0.00    -0.290 N 
ATOM     28  N   UNL     1      34.319 -18.168 -21.958  0.00  0.00    -0.268 N 
ATOM     29  C   UNL     1      34.482 -16.805 -21.653  0.00  0.00    +0.304 C 
ATOM     30  H   UNL     1      34.092 -16.456 -23.646  0.00  0.00    +0.151 HD
ATOM     31  H   UNL     1      34.108 -18.374 -22.897  0.00  0.00    +0.156 HD
BRANCH  27  32
ATOM     32  C   UNL     1      34.411 -14.583 -22.769  0.00  0.00    +0.073 C 
ATOM     33  C   UNL     1      33.216 -13.728 -22.496  0.00  0.00    +0.021 C 
ATOM     34  C   UNL     1      33.827 -13.754 -23.866  0.00  0.00    +0.021 C 
ENDBRANCH  27  32
ENDBRANCH  20  28
ENDBRANCH   1  23
TORSDOF 6
ENDMDL
MODEL 5
REMARK VINA RESULT:     -10.7      5.721     12.513
REMARK  Name = 9823820
REMARK  6 active torsions:
REMARK  status: ('A' for Active; 'I' for Inactive)
REMARK    1  A    between atoms: O_1  and  C_4
REMARK    2  A    between atoms: O_1  and  C_23
REMARK    3  A    between atoms: C_7  and  C_14
REMARK    4  A    between atoms: C_8  and  O_17
REMARK    5  A    between atoms: C_20  and  N_28
REMARK    6  A    between atoms: N_27  and  C_32
REMARK                            x       y       z     vdW  Elec       q    Type
REMARK                         _______ _______ _______ _____ _____    ______ ____
ROOT
ATOM      1  O   UNL     1      32.301 -13.620 -23.394  0.00  0.00    -0.454 OA
ENDROOT
BRANCH   1   4
ATOM      2  N   UNL     1      34.266 -10.340 -24.999  0.00  0.00    -0.248 NA
ATOM      3  C   UNL     1      32.923 -11.292 -23.239  0.00  0.00    +0.031 C 
ATOM      4  C   UNL     1      32.940 -12.526 -23.903  0.00  0.00    +0.144 C 
ATOM      5  C   UNL     1      33.608 -10.211 -23.832  0.00  0.00    +0.066 C 
ATOM      6  C   UNL     1      32.248 -11.121 -22.020  0.00  0.00    +0.064 C 
ATOM      7  C   UNL     1      32.247  -9.884 -21.382  0.00  0.00    +0.065 C 
ATOM      8  C   UNL     1      32.920  -8.814 -21.959  0.00  0.00    +0.123 C 
ATOM      9  C   UNL     1      33.592  -8.985 -23.172  0.00  0.00    +0.109 C 
ATOM     10  C   UNL     1      33.616 -12.663 -25.106  0.00  0.00    +0.058 C 
ATOM     11  C   UNL     1      34.258 -11.549 -25.607  0.00  0.00    +0.102 C 
BRANCH   7  14
ATOM     12  O   UNL     1      30.575 -10.458 -19.825  0.00  0.00    -0.271 OA
ATOM     13  N   UNL     1      31.994  -8.756 -19.237  0.00  0.00    -0.325 N 
ATOM     14  C   UNL     1      31.540  -9.732 -20.118  0.00  0.00    +0.242 C 
ATOM     15  H   UNL     1      31.542  -8.624 -18.372  0.00  0.00    +0.145 HD
ATOM     16  H   UNL     1      32.768  -8.197 -19.478  0.00  0.00    +0.145 HD
ENDBRANCH   7  14
BRANCH   8  17
ATOM     17  O   UNL     1      32.939  -7.591 -21.359  0.00  0.00    -0.475 OA
ATOM     18  C   UNL     1      32.345  -6.509 -22.074  0.00  0.00    +0.252 C 
ENDBRANCH   8  17
ENDBRANCH   1   4
BRANCH   1  23
ATOM     19 CL   UNL     1      35.278 -17.671 -24.067  0.00  0.00    -0.081 Cl
ATOM     20  C   UNL     1      34.636 -16.576 -21.651  0.00  0.00    +0.062 C 
ATOM     21  C   UNL     1      34.496 -16.525 -23.038  0.00  0.00    +0.074 C 
ATOM     22  C   UNL     1      33.992 -15.633 -20.851  0.00  0.00    +0.019 C 
ATOM     23  C   UNL     1      33.080 -14.604 -22.814  0.00  0.00    +0.146 C 
ATOM     24  C   UNL     1      33.712 -15.531 -23.624  0.00  0.00    +0.050 C 
ATOM     25  C   UNL     1      33.208 -14.639 -21.436  0.00  0.00    +0.039 C 
BRANCH  20  28
ATOM     26  O   UNL     1      34.224 -19.544 -21.445  0.00  0.00    -0.252 OA
ATOM     27  N   UNL     1      36.199 -19.585 -20.249  0.00  0.00    -0.290 N 
ATOM     28  N   UNL     1      35.415 -17.558 -21.032  0.00  0.00    -0.268 N 
ATOM     29  C   UNL     1      35.181 -18.943 -20.960  0.00  0.00    +0.304 C 
ATOM     30  H   UNL     1      36.937 -19.042 -19.887  0.00  0.00    +0.151 HD
ATOM     31  H   UNL     1      36.233 -17.238 -20.588  0.00  0.00    +0.156 HD
BRANCH  27  32
ATOM     32  C   UNL     1      36.214 -21.002 -20.022  0.00  0.00    +0.073 C 
ATOM     33  C   UNL     1      35.161 -21.654 -19.186  0.00  0.00    +0.021 C 
ATOM     34  C   UNL     1      36.571 -21.558 -18.682  0.00  0.00    +0.021 C 
ENDBRANCH  27  32
ENDBRANCH  20  28
ENDBRANCH   1  23
TORSDOF 6
ENDMDL
MODEL 6
REMARK VINA RESULT:     -10.5      7.214     11.917
REMARK  Name = 9823820
REMARK  6 active torsions:
REMARK  status: ('A' for Active; 'I' for Inactive)
REMARK    1  A    between atoms: O_1  and  C_4
REMARK    2  A    between atoms: O_1  and  C_23
REMARK    3  A    between atoms: C_7  and  C_14
REMARK    4  A    between atoms: C_8  and  O_17
REMARK    5  A    between atoms: C_20  and  N_28
REMARK    6  A    between atoms: N_27  and  C_32
REMARK                            x       y       z     vdW  Elec       q    Type
REMARK                         _______ _______ _______ _____ _____    ______ ____
ROOT
ATOM      1  O   UNL     1      32.688 -13.365 -22.868  0.00  0.00    -0.454 OA
ENDROOT
BRANCH   1   4
ATOM      2  N   UNL     1      33.632 -15.441 -26.331  0.00  0.00    -0.248 NA
ATOM      3  C   UNL     1      33.644 -15.315 -23.925  0.00  0.00    +0.031 C 
ATOM      4  C   UNL     1      33.009 -14.067 -23.994  0.00  0.00    +0.144 C 
ATOM      5  C   UNL     1      33.941 -15.975 -25.135  0.00  0.00    +0.066 C 
ATOM      6  C   UNL     1      33.981 -15.902 -22.695  0.00  0.00    +0.064 C 
ATOM      7  C   UNL     1      34.612 -17.142 -22.655  0.00  0.00    +0.065 C 
ATOM      8  C   UNL     1      34.907 -17.799 -23.843  0.00  0.00    +0.123 C 
ATOM      9  C   UNL     1      34.572 -17.215 -25.066  0.00  0.00    +0.109 C 
ATOM     10  C   UNL     1      32.689 -13.514 -25.225  0.00  0.00    +0.058 C 
ATOM     11  C   UNL     1      33.019 -14.235 -26.354  0.00  0.00    +0.102 C 
BRANCH   7  14
ATOM     12  O   UNL     1      35.475 -17.054 -20.465  0.00  0.00    -0.271 OA
ATOM     13  N   UNL     1      34.651 -19.074 -21.171  0.00  0.00    -0.325 N 
ATOM     14  C   UNL     1      34.951 -17.731 -21.367  0.00  0.00    +0.242 C 
ATOM     15  H   UNL     1      34.865 -19.507 -20.313  0.00  0.00    +0.145 HD
ATOM     16  H   UNL     1      34.224 -19.593 -21.891  0.00  0.00    +0.145 HD
ENDBRANCH   7  14
BRANCH   8  17
ATOM     17  O   UNL     1      35.523 -19.015 -23.837  0.00  0.00    -0.475 OA
ATOM     18  C   UNL     1      34.992 -20.014 -24.706  0.00  0.00    +0.252 C 
ENDBRANCH   8  17
ENDBRANCH   1   4
BRANCH   1  23
ATOM     19 CL   UNL     1      34.980  -9.170 -24.565  0.00  0.00    -0.081 Cl
ATOM     20  C   UNL     1      32.663  -9.223 -23.124  0.00  0.00    +0.062 C 
ATOM     21  C   UNL     1      33.695  -9.951 -23.716  0.00  0.00    +0.074 C 
ATOM     22  C   UNL     1      31.640  -9.886 -22.447  0.00  0.00    +0.019 C 
ATOM     23  C   UNL     1      32.680 -11.985 -22.954  0.00  0.00    +0.146 C 
ATOM     24  C   UNL     1      33.703 -11.344 -23.630  0.00  0.00    +0.050 C 
ATOM     25  C   UNL     1      31.648 -11.279 -22.361  0.00  0.00    +0.039 C 
BRANCH  20  28
ATOM     26  O   UNL     1      30.761  -7.396 -24.562  0.00  0.00    -0.252 OA
ATOM     27  N   UNL     1      32.012  -5.657 -23.699  0.00  0.00    -0.290 N 
ATOM     28  N   UNL     1      32.624  -7.827 -23.191  0.00  0.00    -0.268 N 
ATOM     29  C   UNL     1      31.710  -7.011 -23.882  0.00  0.00    +0.304 C 
ATOM     30  H   UNL     1      32.787  -5.418 -23.140  0.00  0.00    +0.151 HD
ATOM     31  H   UNL     1      33.328  -7.354 -22.692  0.00  0.00    +0.156 HD
BRANCH  27  32
ATOM     32  C   UNL     1      31.241  -4.602 -24.291  0.00  0.00    +0.073 C 
ATOM     33  C   UNL     1      31.758  -3.848 -25.474  0.00  0.00    +0.021 C 
ATOM     34  C   UNL     1      31.654  -3.175 -24.137  0.00  0.00    +0.021 C 
ENDBRANCH  27  32
ENDBRANCH  20  28
ENDBRANCH   1  23
TORSDOF 6
ENDMDL
MODEL 7
REMARK VINA RESULT:     -10.5      5.571     12.536
REMARK  Name = 9823820
REMARK  6 active torsions:
REMARK  status: ('A' for Active; 'I' for Inactive)
REMARK    1  A    between atoms: O_1  and  C_4
REMARK    2  A    between atoms: O_1  and  C_23
REMARK    3  A    between atoms: C_7  and  C_14
REMARK    4  A    between atoms: C_8  and  O_17
REMARK    5  A    between atoms: C_20  and  N_28
REMARK    6  A    between atoms: N_27  and  C_32
REMARK                            x       y       z     vdW  Elec       q    Type
REMARK                         _______ _______ _______ _____ _____    ______ ____
ROOT
ATOM      1  O   UNL     1      31.628 -13.386 -22.639  0.00  0.00    -0.454 OA
ENDROOT
BRANCH   1   4
ATOM      2  N   UNL     1      31.941  -9.581 -21.021  0.00  0.00    -0.248 NA
ATOM      3  C   UNL     1      32.564 -11.162 -22.729  0.00  0.00    +0.031 C 
ATOM      4  C   UNL     1      31.747 -12.127 -22.125  0.00  0.00    +0.144 C 
ATOM      5  C   UNL     1      32.632  -9.885 -22.135  0.00  0.00    +0.066 C 
ATOM      6  C   UNL     1      33.300 -11.444 -23.892  0.00  0.00    +0.064 C 
ATOM      7  C   UNL     1      34.103 -10.467 -24.472  0.00  0.00    +0.065 C 
ATOM      8  C   UNL     1      34.175  -9.206 -23.893  0.00  0.00    +0.123 C 
ATOM      9  C   UNL     1      33.444  -8.926 -22.736  0.00  0.00    +0.109 C 
ATOM     10  C   UNL     1      31.033 -11.817 -20.977  0.00  0.00    +0.058 C 
ATOM     11  C   UNL     1      31.163 -10.541 -20.469  0.00  0.00    +0.102 C 
BRANCH   7  14
ATOM     12  O   UNL     1      34.369 -11.490 -26.577  0.00  0.00    -0.271 OA
ATOM     13  N   UNL     1      36.134 -10.251 -25.800  0.00  0.00    -0.325 N 
ATOM     14  C   UNL     1      34.856 -10.783 -25.678  0.00  0.00    +0.242 C 
ATOM     15  H   UNL     1      36.673 -10.442 -26.602  0.00  0.00    +0.145 HD
ATOM     16  H   UNL     1      36.501  -9.681 -25.086  0.00  0.00    +0.145 HD
ENDBRANCH   7  14
BRANCH   8  17
ATOM     17  O   UNL     1      34.953  -8.228 -24.438  0.00  0.00    -0.475 OA
ATOM     18  C   UNL     1      34.420  -6.904 -24.442  0.00  0.00    +0.252 C 
ENDBRANCH   8  17
ENDBRANCH   1   4
BRANCH   1  23
ATOM     19 CL   UNL     1      35.235 -16.743 -23.843  0.00  0.00    -0.081 Cl
ATOM     20  C   UNL     1      34.312 -16.264 -21.320  0.00  0.00    +0.062 C 
ATOM     21  C   UNL     1      34.234 -15.954 -22.678  0.00  0.00    +0.074 C 
ATOM     22  C   UNL     1      33.489 -15.606 -20.406  0.00  0.00    +0.019 C 
ATOM     23  C   UNL     1      32.523 -14.344 -22.200  0.00  0.00    +0.146 C 
ATOM     24  C   UNL     1      33.332 -14.986 -23.121  0.00  0.00    +0.050 C 
ATOM     25  C   UNL     1      32.587 -14.638 -20.849  0.00  0.00    +0.039 C 
BRANCH  20  28
ATOM     26  O   UNL     1      34.172 -19.263 -21.413  0.00  0.00    -0.252 OA
ATOM     27  N   UNL     1      36.203 -19.244 -20.312  0.00  0.00    -0.290 N 
ATOM     28  N   UNL     1      35.205 -17.228 -20.842  0.00  0.00    -0.268 N 
ATOM     29  C   UNL     1      35.096 -18.629 -20.908  0.00  0.00    +0.304 C 
ATOM     30  H   UNL     1      36.908 -18.674 -19.927  0.00  0.00    +0.151 HD
ATOM     31  H   UNL     1      36.014 -16.881 -20.401  0.00  0.00    +0.156 HD
BRANCH  27  32
ATOM     32  C   UNL     1      36.353 -20.668 -20.238  0.00  0.00    +0.073 C 
ATOM     33  C   UNL     1      35.319 -21.513 -19.566  0.00  0.00    +0.021 C 
ATOM     34  C   UNL     1      36.671 -21.337 -18.940  0.00  0.00    +0.021 C 
ENDBRANCH  27  32
ENDBRANCH  20  28
ENDBRANCH   1  23
TORSDOF 6
ENDMDL
MODEL 8
REMARK VINA RESULT:     -10.3      5.489     12.552
REMARK  Name = 9823820
REMARK  6 active torsions:
REMARK  status: ('A' for Active; 'I' for Inactive)
REMARK    1  A    between atoms: O_1  and  C_4
REMARK    2  A    between atoms: O_1  and  C_23
REMARK    3  A    between atoms: C_7  and  C_14
REMARK    4  A    between atoms: C_8  and  O_17
REMARK    5  A    between atoms: C_20  and  N_28
REMARK    6  A    between atoms: N_27  and  C_32
REMARK                            x       y       z     vdW  Elec       q    Type
REMARK                         _______ _______ _______ _____ _____    ______ ____
ROOT
ATOM      1  O   UNL     1      32.865 -13.469 -24.646  0.00  0.00    -0.454 OA
ENDROOT
BRANCH   1   4
ATOM      2  N   UNL     1      34.740  -9.782 -24.933  0.00  0.00    -0.248 NA
ATOM      3  C   UNL     1      33.201 -11.238 -23.785  0.00  0.00    +0.031 C 
ATOM      4  C   UNL     1      33.470 -12.247 -24.720  0.00  0.00    +0.144 C 
ATOM      5  C   UNL     1      33.868 -10.004 -23.933  0.00  0.00    +0.066 C 
ATOM      6  C   UNL     1      32.297 -11.435 -22.728  0.00  0.00    +0.064 C 
ATOM      7  C   UNL     1      32.049 -10.416 -21.814  0.00  0.00    +0.065 C 
ATOM      8  C   UNL     1      32.702  -9.197 -21.952  0.00  0.00    +0.123 C 
ATOM      9  C   UNL     1      33.601  -9.002 -23.003  0.00  0.00    +0.109 C 
ATOM     10  C   UNL     1      34.367 -12.022 -25.753  0.00  0.00    +0.058 C 
ATOM     11  C   UNL     1      34.971 -10.782 -25.814  0.00  0.00    +0.102 C 
BRANCH   7  14
ATOM     12  O   UNL     1      30.024 -11.220 -20.920  0.00  0.00    -0.271 OA
ATOM     13  N   UNL     1      31.473 -10.213 -19.456  0.00  0.00    -0.325 N 
ATOM     14  C   UNL     1      31.109 -10.644 -20.726  0.00  0.00    +0.242 C 
ATOM     15  H   UNL     1      30.863 -10.351 -18.695  0.00  0.00    +0.145 HD
ATOM     16  H   UNL     1      32.341  -9.771 -19.316  0.00  0.00    +0.145 HD
ENDBRANCH   7  14
BRANCH   8  17
ATOM     17  O   UNL     1      32.481  -8.180 -21.072  0.00  0.00    -0.475 OA
ATOM     18  C   UNL     1      32.013  -6.946 -21.613  0.00  0.00    +0.252 C 
ENDBRANCH   8  17
ENDBRANCH   1   4
BRANCH   1  23
ATOM     19 CL   UNL     1      34.517 -15.267 -20.200  0.00  0.00    -0.081 Cl
ATOM     20  C   UNL     1      34.871 -16.484 -22.617  0.00  0.00    +0.062 C 
ATOM     21  C   UNL     1      34.351 -15.397 -21.914  0.00  0.00    +0.074 C 
ATOM     22  C   UNL     1      34.716 -16.557 -24.001  0.00  0.00    +0.019 C 
ATOM     23  C   UNL     1      33.532 -14.474 -23.970  0.00  0.00    +0.146 C 
ATOM     24  C   UNL     1      33.676 -14.384 -22.596  0.00  0.00    +0.050 C 
ATOM     25  C   UNL     1      34.042 -15.545 -24.684  0.00  0.00    +0.039 C 
BRANCH  20  28
ATOM     26  O   UNL     1      33.995 -19.280 -21.957  0.00  0.00    -0.252 OA
ATOM     27  N   UNL     1      36.084 -19.551 -21.008  0.00  0.00    -0.290 N 
ATOM     28  N   UNL     1      35.552 -17.516 -21.965  0.00  0.00    -0.268 N 
ATOM     29  C   UNL     1      35.098 -18.816 -21.676  0.00  0.00    +0.304 C 
ATOM     30  H   UNL     1      36.946 -19.117 -20.815  0.00  0.00    +0.151 HD
ATOM     31  H   UNL     1      36.467 -17.306 -21.669  0.00  0.00    +0.156 HD
BRANCH  27  32
ATOM     32  C   UNL     1      35.890 -20.910 -20.592  0.00  0.00    +0.073 C 
ATOM     33  C   UNL     1      34.932 -21.246 -19.495  0.00  0.00    +0.021 C 
ATOM     34  C   UNL     1      36.410 -21.388 -19.276  0.00  0.00    +0.021 C 
ENDBRANCH  27  32
ENDBRANCH  20  28
ENDBRANCH   1  23
TORSDOF 6
ENDMDL
MODEL 9
REMARK VINA RESULT:     -10.3      2.892     10.932
REMARK  Name = 9823820
REMARK  6 active torsions:
REMARK  status: ('A' for Active; 'I' for Inactive)
REMARK    1  A    between atoms: O_1  and  C_4
REMARK    2  A    between atoms: O_1  and  C_23
REMARK    3  A    between atoms: C_7  and  C_14
REMARK    4  A    between atoms: C_8  and  O_17
REMARK    5  A    between atoms: C_20  and  N_28
REMARK    6  A    between atoms: N_27  and  C_32
REMARK                            x       y       z     vdW  Elec       q    Type
REMARK                         _______ _______ _______ _____ _____    ______ ____
ROOT
ATOM      1  O   UNL     1      35.735 -17.793 -21.957  0.00  0.00    -0.454 OA
ENDROOT
BRANCH   1   4
ATOM      2  N   UNL     1      34.149 -18.293 -25.755  0.00  0.00    -0.248 NA
ATOM      3  C   UNL     1      34.574 -16.866 -23.861  0.00  0.00    +0.031 C 
ATOM      4  C   UNL     1      35.205 -17.933 -23.207  0.00  0.00    +0.144 C 
ATOM      5  C   UNL     1      34.054 -17.094 -25.151  0.00  0.00    +0.066 C 
ATOM      6  C   UNL     1      34.457 -15.601 -23.261  0.00  0.00    +0.064 C 
ATOM      7  C   UNL     1      33.825 -14.559 -23.933  0.00  0.00    +0.065 C 
ATOM      8  C   UNL     1      33.310 -14.775 -25.205  0.00  0.00    +0.123 C 
ATOM      9  C   UNL     1      33.427 -16.034 -25.801  0.00  0.00    +0.109 C 
ATOM     10  C   UNL     1      35.306 -19.170 -23.826  0.00  0.00    +0.058 C 
ATOM     11  C   UNL     1      34.766 -19.297 -25.090  0.00  0.00    +0.102 C 
BRANCH   7  14
ATOM     12  O   UNL     1      33.174 -13.127 -22.180  0.00  0.00    -0.271 OA
ATOM     13  N   UNL     1      34.258 -12.161 -23.954  0.00  0.00    -0.325 N 
ATOM     14  C   UNL     1      33.717 -13.257 -23.291  0.00  0.00    +0.242 C 
ATOM     15  H   UNL     1      34.204 -11.265 -23.551  0.00  0.00    +0.145 HD
ATOM     16  H   UNL     1      34.696 -12.282 -24.828  0.00  0.00    +0.145 HD
ENDBRANCH   7  14
BRANCH   8  17
ATOM     17  O   UNL     1      32.687 -13.774 -25.889  0.00  0.00    -0.475 OA
ATOM     18  C   UNL     1      33.243 -13.410 -27.151  0.00  0.00    +0.252 C 
ENDBRANCH   8  17
ENDBRANCH   1   4
BRANCH   1  23
ATOM     19 CL   UNL     1      32.761 -21.096 -19.512  0.00  0.00    -0.081 Cl
ATOM     20  C   UNL     1      35.487 -21.040 -19.384  0.00  0.00    +0.062 C 
ATOM     21  C   UNL     1      34.324 -20.475 -19.907  0.00  0.00    +0.074 C 
ATOM     22  C   UNL     1      36.732 -20.515 -19.726  0.00  0.00    +0.019 C 
ATOM     23  C   UNL     1      35.652 -18.875 -21.100  0.00  0.00    +0.146 C 
ATOM     24  C   UNL     1      34.408 -19.384 -20.772  0.00  0.00    +0.050 C 
ATOM     25  C   UNL     1      36.816 -19.424 -20.591  0.00  0.00    +0.039 C 
BRANCH  20  28
ATOM     26  O   UNL     1      36.576 -21.368 -16.604  0.00  0.00    -0.252 OA
ATOM     27  N   UNL     1      35.709 -23.507 -16.676  0.00  0.00    -0.290 N 
ATOM     28  N   UNL     1      35.439 -22.134 -18.516  0.00  0.00    -0.268 N 
ATOM     29  C   UNL     1      35.967 -22.243 -17.216  0.00  0.00    +0.304 C 
ATOM     30  H   UNL     1      35.214 -24.161 -17.222  0.00  0.00    +0.151 HD
ATOM     31  H   UNL     1      34.977 -22.934 -18.858  0.00  0.00    +0.156 HD
BRANCH  27  32
ATOM     32  C   UNL     1      36.135 -23.892 -15.361  0.00  0.00    +0.073 C 
ATOM     33  C   UNL     1      36.179 -25.331 -14.961  0.00  0.00    +0.021 C 
ATOM     34  C   UNL     1      35.155 -24.413 -14.362  0.00  0.00    +0.021 C 
ENDBRANCH  27  32
ENDBRANCH  20  28
ENDBRANCH   1  23
TORSDOF 6
ENDMDL
