MODEL 1
REMARK VINA RESULT:      -8.2      0.000      0.000
REMARK  Name = 705712
REMARK  6 active torsions:
REMARK  status: ('A' for Active; 'I' for Inactive)
REMARK    1  A    between atoms: S_1  and  C_4
REMARK    2  A    between atoms: S_1  and  N_12
REMARK    3  A    between atoms: C_9  and  O_10
REMARK    4  A    between atoms: N_12  and  C_14
REMARK    5  A    between atoms: C_14  and  C_17
REMARK    6  A    between atoms: C_17  and  O_18
REMARK                            x       y       z     vdW  Elec       q    Type
REMARK                         _______ _______ _______ _____ _____    ______ ____
ROOT
ATOM      1  S   UNL     1      35.178 -18.817 -21.954  0.00  0.00    +0.061 S 
ATOM      2  O   UNL     1      36.583 -18.456 -21.966  0.00  0.00    -0.153 OA
ATOM      3  O   UNL     1      34.531 -19.272 -23.169  0.00  0.00    -0.153 OA
ENDROOT
BRANCH   1   4
ATOM      4  C   UNL     1      34.951 -20.085 -20.742  0.00  0.00    +0.122 C 
ATOM      5  C   UNL     1      33.668 -20.463 -20.391  0.00  0.00    +0.023 C 
ATOM      6  C   UNL     1      36.064 -20.675 -20.167  0.00  0.00    +0.023 C 
ATOM      7  C   UNL     1      33.489 -21.464 -19.436  0.00  0.00    +0.038 C 
ATOM      8  C   UNL     1      35.885 -21.676 -19.212  0.00  0.00    +0.038 C 
ATOM      9  C   UNL     1      34.598 -22.071 -18.846  0.00  0.00    +0.139 C 
BRANCH   9  10
ATOM     10  O   UNL     1      34.425 -23.046 -17.914  0.00  0.00    -0.471 OA
ATOM     11  C   UNL     1      33.114 -23.201 -17.372  0.00  0.00    +0.252 C 
ENDBRANCH   9  10
ENDBRANCH   1   4
BRANCH   1  12
ATOM     12  N   UNL     1      34.274 -17.538 -21.293  0.00  0.00    -0.170 NA
ATOM     13  H   UNL     1      34.207 -17.712 -20.290  0.00  0.00    +0.149 HD
BRANCH  12  14
ATOM     14  C   UNL     1      34.739 -16.143 -21.454  0.00  0.00    +0.174 C 
ATOM     15  C   UNL     1      33.973 -15.247 -20.498  0.00  0.00    +0.031 C 
BRANCH  14  17
ATOM     16  O   UNL     1      33.477 -15.294 -23.359  0.00  0.00    -0.249 OA
ATOM     17  C   UNL     1      34.508 -15.753 -22.892  0.00  0.00    +0.330 C 
BRANCH  17  18
ATOM     18  O   UNL     1      35.632 -15.960 -23.627  0.00  0.00    -0.479 OA
ATOM     19  H   UNL     1      35.732 -16.752 -24.118  0.00  0.00    +0.295 HD
ENDBRANCH  17  18
ENDBRANCH  14  17
ENDBRANCH  12  14
ENDBRANCH   1  12
TORSDOF 6
ENDMDL
MODEL 2
REMARK VINA RESULT:      -8.0      1.666      2.026
REMARK  Name = 705712
REMARK  6 active torsions:
REMARK  status: ('A' for Active; 'I' for Inactive)
REMARK    1  A    between atoms: S_1  and  C_4
REMARK    2  A    between atoms: S_1  and  N_12
REMARK    3  A    between atoms: C_9  and  O_10
REMARK    4  A    between atoms: N_12  and  C_14
REMARK    5  A    between atoms: C_14  and  C_17
REMARK    6  A    between atoms: C_17  and  O_18
REMARK                            x       y       z     vdW  Elec       q    Type
REMARK                         _______ _______ _______ _____ _____    ______ ____
ROOT
ATOM      1  S   UNL     1      35.534 -18.023 -21.518  0.00  0.00    +0.061 S 
ATOM      2  O   UNL     1      35.408 -16.911 -20.594  0.00  0.00    -0.153 OA
ATOM      3  O   UNL     1      36.843 -18.437 -21.987  0.00  0.00    -0.153 OA
ENDROOT
BRANCH   1   4
ATOM      4  C   UNL     1      34.781 -19.439 -20.772  0.00  0.00    +0.122 C 
ATOM      5  C   UNL     1      33.402 -19.529 -20.734  0.00  0.00    +0.023 C 
ATOM      6  C   UNL     1      35.588 -20.430 -20.240  0.00  0.00    +0.023 C 
ATOM      7  C   UNL     1      32.808 -20.646 -20.146  0.00  0.00    +0.038 C 
ATOM      8  C   UNL     1      34.994 -21.547 -19.652  0.00  0.00    +0.038 C 
ATOM      9  C   UNL     1      33.604 -21.655 -19.605  0.00  0.00    +0.139 C 
BRANCH   9  10
ATOM     10  O   UNL     1      33.026 -22.745 -19.031  0.00  0.00    -0.471 OA
ATOM     11  C   UNL     1      33.472 -23.105 -17.725  0.00  0.00    +0.252 C 
ENDBRANCH   9  10
ENDBRANCH   1   4
BRANCH   1  12
ATOM     12  N   UNL     1      34.525 -17.757 -22.860  0.00  0.00    -0.170 NA
ATOM     13  H   UNL     1      33.585 -17.603 -22.495  0.00  0.00    +0.149 HD
BRANCH  12  14
ATOM     14  C   UNL     1      34.810 -16.644 -23.790  0.00  0.00    +0.174 C 
ATOM     15  C   UNL     1      33.976 -15.437 -23.396  0.00  0.00    +0.031 C 
BRANCH  14  17
ATOM     16  O   UNL     1      34.404 -18.284 -25.547  0.00  0.00    -0.249 OA
ATOM     17  C   UNL     1      34.481 -17.121 -25.181  0.00  0.00    +0.330 C 
BRANCH  17  18
ATOM     18  O   UNL     1      34.253 -16.064 -26.005  0.00  0.00    -0.479 OA
ATOM     19  H   UNL     1      33.429 -15.618 -25.978  0.00  0.00    +0.295 HD
ENDBRANCH  17  18
ENDBRANCH  14  17
ENDBRANCH  12  14
ENDBRANCH   1  12
TORSDOF 6
ENDMDL
MODEL 3
REMARK VINA RESULT:      -7.8      2.850      7.337
REMARK  Name = 705712
REMARK  6 active torsions:
REMARK  status: ('A' for Active; 'I' for Inactive)
REMARK    1  A    between atoms: S_1  and  C_4
REMARK    2  A    between atoms: S_1  and  N_12
REMARK    3  A    between atoms: C_9  and  O_10
REMARK    4  A    between atoms: N_12  and  C_14
REMARK    5  A    between atoms: C_14  and  C_17
REMARK    6  A    between atoms: C_17  and  O_18
REMARK                            x       y       z     vdW  Elec       q    Type
REMARK                         _______ _______ _______ _____ _____    ______ ____
ROOT
ATOM      1  S   UNL     1      33.674 -22.848 -18.523  0.00  0.00    +0.061 S 
ATOM      2  O   UNL     1      32.331 -22.431 -18.164  0.00  0.00    -0.153 OA
ATOM      3  O   UNL     1      33.882 -24.074 -19.268  0.00  0.00    -0.153 OA
ENDROOT
BRANCH   1   4
ATOM      4  C   UNL     1      34.418 -21.543 -19.456  0.00  0.00    +0.122 C 
ATOM      5  C   UNL     1      35.797 -21.436 -19.487  0.00  0.00    +0.023 C 
ATOM      6  C   UNL     1      33.607 -20.654 -20.139  0.00  0.00    +0.023 C 
ATOM      7  C   UNL     1      36.385 -20.407 -20.223  0.00  0.00    +0.038 C 
ATOM      8  C   UNL     1      34.194 -19.625 -20.876  0.00  0.00    +0.038 C 
ATOM      9  C   UNL     1      35.582 -19.501 -20.918  0.00  0.00    +0.139 C 
BRANCH   9  10
ATOM     10  O   UNL     1      36.155 -18.498 -21.637  0.00  0.00    -0.471 OA
ATOM     11  C   UNL     1      35.312 -17.413 -22.023  0.00  0.00    +0.252 C 
ENDBRANCH   9  10
ENDBRANCH   1   4
BRANCH   1  12
ATOM     12  N   UNL     1      34.646 -22.878 -17.128  0.00  0.00    -0.170 NA
ATOM     13  H   UNL     1      34.601 -21.945 -16.718  0.00  0.00    +0.149 HD
BRANCH  12  14
ATOM     14  C   UNL     1      34.351 -23.837 -16.042  0.00  0.00    +0.174 C 
ATOM     15  C   UNL     1      33.385 -23.199 -15.059  0.00  0.00    +0.031 C 
BRANCH  14  17
ATOM     16  O   UNL     1      35.803 -24.892 -14.393  0.00  0.00    -0.249 OA
ATOM     17  C   UNL     1      35.660 -24.195 -15.387  0.00  0.00    +0.330 C 
BRANCH  17  18
ATOM     18  O   UNL     1      36.700 -23.647 -16.070  0.00  0.00    -0.479 OA
ATOM     19  H   UNL     1      36.631 -23.505 -16.993  0.00  0.00    +0.295 HD
ENDBRANCH  17  18
ENDBRANCH  14  17
ENDBRANCH  12  14
ENDBRANCH   1  12
TORSDOF 6
ENDMDL
MODEL 4
REMARK VINA RESULT:      -7.5      7.874     10.353
REMARK  Name = 705712
REMARK  6 active torsions:
REMARK  status: ('A' for Active; 'I' for Inactive)
REMARK    1  A    between atoms: S_1  and  C_4
REMARK    2  A    between atoms: S_1  and  N_12
REMARK    3  A    between atoms: C_9  and  O_10
REMARK    4  A    between atoms: N_12  and  C_14
REMARK    5  A    between atoms: C_14  and  C_17
REMARK    6  A    between atoms: C_17  and  O_18
REMARK                            x       y       z     vdW  Elec       q    Type
REMARK                         _______ _______ _______ _____ _____    ______ ____
ROOT
ATOM      1  S   UNL     1      37.449 -23.621 -12.305  0.00  0.00    +0.061 S 
ATOM      2  O   UNL     1      37.780 -22.246 -11.977  0.00  0.00    -0.153 OA
ATOM      3  O   UNL     1      37.261 -24.597 -11.249  0.00  0.00    -0.153 OA
ENDROOT
BRANCH   1   4
ATOM      4  C   UNL     1      35.965 -23.609 -13.267  0.00  0.00    +0.122 C 
ATOM      5  C   UNL     1      34.804 -24.130 -12.726  0.00  0.00    +0.023 C 
ATOM      6  C   UNL     1      35.994 -23.077 -14.545  0.00  0.00    +0.023 C 
ATOM      7  C   UNL     1      33.633 -24.121 -13.485  0.00  0.00    +0.038 C 
ATOM      8  C   UNL     1      34.824 -23.067 -15.304  0.00  0.00    +0.038 C 
ATOM      9  C   UNL     1      33.643 -23.588 -14.775  0.00  0.00    +0.139 C 
BRANCH   9  10
ATOM     10  O   UNL     1      32.502 -23.579 -15.515  0.00  0.00    -0.471 OA
ATOM     11  C   UNL     1      32.624 -23.217 -16.890  0.00  0.00    +0.252 C 
ENDBRANCH   9  10
ENDBRANCH   1   4
BRANCH   1  12
ATOM     12  N   UNL     1      38.583 -24.223 -13.419  0.00  0.00    -0.170 NA
ATOM     13  H   UNL     1      39.444 -23.697 -13.276  0.00  0.00    +0.149 HD
BRANCH  12  14
ATOM     14  C   UNL     1      38.949 -25.655 -13.399  0.00  0.00    +0.174 C 
ATOM     15  C   UNL     1      40.274 -25.843 -14.116  0.00  0.00    +0.031 C 
BRANCH  14  17
ATOM     16  O   UNL     1      37.666 -26.530 -15.279  0.00  0.00    -0.249 OA
ATOM     17  C   UNL     1      37.836 -26.416 -14.074  0.00  0.00    +0.330 C 
BRANCH  17  18
ATOM     18  O   UNL     1      37.028 -26.997 -13.149  0.00  0.00    -0.479 OA
ATOM     19  H   UNL     1      36.105 -27.055 -13.303  0.00  0.00    +0.295 HD
ENDBRANCH  17  18
ENDBRANCH  14  17
ENDBRANCH  12  14
ENDBRANCH   1  12
TORSDOF 6
ENDMDL
MODEL 5
REMARK VINA RESULT:      -7.5      7.549     10.148
REMARK  Name = 705712
REMARK  6 active torsions:
REMARK  status: ('A' for Active; 'I' for Inactive)
REMARK    1  A    between atoms: S_1  and  C_4
REMARK    2  A    between atoms: S_1  and  N_12
REMARK    3  A    between atoms: C_9  and  O_10
REMARK    4  A    between atoms: N_12  and  C_14
REMARK    5  A    between atoms: C_14  and  C_17
REMARK    6  A    between atoms: C_17  and  O_18
REMARK                            x       y       z     vdW  Elec       q    Type
REMARK                         _______ _______ _______ _____ _____    ______ ____
ROOT
ATOM      1  S   UNL     1      37.614 -23.899 -12.120  0.00  0.00    +0.061 S 
ATOM      2  O   UNL     1      38.353 -22.651 -12.095  0.00  0.00    -0.153 OA
ATOM      3  O   UNL     1      37.039 -24.431 -10.900  0.00  0.00    -0.153 OA
ENDROOT
BRANCH   1   4
ATOM      4  C   UNL     1      36.291 -23.725 -13.281  0.00  0.00    +0.122 C 
ATOM      5  C   UNL     1      35.103 -24.398 -13.058  0.00  0.00    +0.023 C 
ATOM      6  C   UNL     1      36.469 -22.917 -14.391  0.00  0.00    +0.023 C 
ATOM      7  C   UNL     1      34.059 -24.260 -13.974  0.00  0.00    +0.038 C 
ATOM      8  C   UNL     1      35.426 -22.778 -15.306  0.00  0.00    +0.038 C 
ATOM      9  C   UNL     1      34.221 -23.449 -15.098  0.00  0.00    +0.139 C 
BRANCH   9  10
ATOM     10  O   UNL     1      33.203 -23.315 -15.991  0.00  0.00    -0.471 OA
ATOM     11  C   UNL     1      33.559 -23.193 -17.367  0.00  0.00    +0.252 C 
ENDBRANCH   9  10
ENDBRANCH   1   4
BRANCH   1  12
ATOM     12  N   UNL     1      38.564 -25.103 -12.853  0.00  0.00    -0.170 NA
ATOM     13  H   UNL     1      38.250 -25.997 -12.476  0.00  0.00    +0.149 HD
BRANCH  12  14
ATOM     14  C   UNL     1      38.576 -25.241 -14.325  0.00  0.00    +0.174 C 
ATOM     15  C   UNL     1      37.890 -26.540 -14.711  0.00  0.00    +0.031 C 
BRANCH  14  17
ATOM     16  O   UNL     1      40.952 -24.719 -14.162  0.00  0.00    -0.249 OA
ATOM     17  C   UNL     1      40.016 -25.216 -14.771  0.00  0.00    +0.330 C 
BRANCH  17  18
ATOM     18  O   UNL     1      40.156 -25.854 -15.963  0.00  0.00    -0.479 OA
ATOM     19  H   UNL     1      40.217 -26.789 -15.990  0.00  0.00    +0.295 HD
ENDBRANCH  17  18
ENDBRANCH  14  17
ENDBRANCH  12  14
ENDBRANCH   1  12
TORSDOF 6
ENDMDL
MODEL 6
REMARK VINA RESULT:      -7.5      1.267      2.073
REMARK  Name = 705712
REMARK  6 active torsions:
REMARK  status: ('A' for Active; 'I' for Inactive)
REMARK    1  A    between atoms: S_1  and  C_4
REMARK    2  A    between atoms: S_1  and  N_12
REMARK    3  A    between atoms: C_9  and  O_10
REMARK    4  A    between atoms: N_12  and  C_14
REMARK    5  A    between atoms: C_14  and  C_17
REMARK    6  A    between atoms: C_17  and  O_18
REMARK                            x       y       z     vdW  Elec       q    Type
REMARK                         _______ _______ _______ _____ _____    ______ ____
ROOT
ATOM      1  S   UNL     1      35.100 -18.545 -21.954  0.00  0.00    +0.061 S 
ATOM      2  O   UNL     1      36.521 -18.282 -22.079  0.00  0.00    -0.153 OA
ATOM      3  O   UNL     1      34.308 -18.853 -23.129  0.00  0.00    -0.153 OA
ENDROOT
BRANCH   1   4
ATOM      4  C   UNL     1      34.893 -19.892 -20.826  0.00  0.00    +0.122 C 
ATOM      5  C   UNL     1      36.012 -20.534 -20.327  0.00  0.00    +0.023 C 
ATOM      6  C   UNL     1      33.615 -20.277 -20.463  0.00  0.00    +0.023 C 
ATOM      7  C   UNL     1      35.850 -21.596 -19.437  0.00  0.00    +0.038 C 
ATOM      8  C   UNL     1      33.451 -21.339 -19.572  0.00  0.00    +0.038 C 
ATOM      9  C   UNL     1      34.568 -21.998 -19.060  0.00  0.00    +0.139 C 
BRANCH   9  10
ATOM     10  O   UNL     1      34.409 -23.033 -18.192  0.00  0.00    -0.471 OA
ATOM     11  C   UNL     1      33.156 -23.127 -17.516  0.00  0.00    +0.252 C 
ENDBRANCH   9  10
ENDBRANCH   1   4
BRANCH   1  12
ATOM     12  N   UNL     1      34.363 -17.267 -21.110  0.00  0.00    -0.170 NA
ATOM     13  H   UNL     1      35.105 -16.775 -20.612  0.00  0.00    +0.149 HD
BRANCH  12  14
ATOM     14  C   UNL     1      33.592 -16.242 -21.847  0.00  0.00    +0.174 C 
ATOM     15  C   UNL     1      34.552 -15.233 -22.452  0.00  0.00    +0.031 C 
BRANCH  14  17
ATOM     16  O   UNL     1      32.753 -14.476 -20.392  0.00  0.00    -0.249 OA
ATOM     17  C   UNL     1      32.646 -15.596 -20.868  0.00  0.00    +0.330 C 
BRANCH  17  18
ATOM     18  O   UNL     1      31.613 -16.432 -20.582  0.00  0.00    -0.479 OA
ATOM     19  H   UNL     1      31.682 -17.346 -20.776  0.00  0.00    +0.295 HD
ENDBRANCH  17  18
ENDBRANCH  14  17
ENDBRANCH  12  14
ENDBRANCH   1  12
TORSDOF 6
ENDMDL
MODEL 7
REMARK VINA RESULT:      -7.4      1.617      6.608
REMARK  Name = 705712
REMARK  6 active torsions:
REMARK  status: ('A' for Active; 'I' for Inactive)
REMARK    1  A    between atoms: S_1  and  C_4
REMARK    2  A    between atoms: S_1  and  N_12
REMARK    3  A    between atoms: C_9  and  O_10
REMARK    4  A    between atoms: N_12  and  C_14
REMARK    5  A    between atoms: C_14  and  C_17
REMARK    6  A    between atoms: C_17  and  O_18
REMARK                            x       y       z     vdW  Elec       q    Type
REMARK                         _______ _______ _______ _____ _____    ______ ____
ROOT
ATOM      1  S   UNL     1      35.611 -18.628 -22.130  0.00  0.00    +0.061 S 
ATOM      2  O   UNL     1      35.064 -19.405 -23.226  0.00  0.00    -0.153 OA
ATOM      3  O   UNL     1      37.047 -18.532 -21.949  0.00  0.00    -0.153 OA
ENDROOT
BRANCH   1   4
ATOM      4  C   UNL     1      34.998 -16.976 -22.274  0.00  0.00    +0.122 C 
ATOM      5  C   UNL     1      34.879 -16.406 -23.529  0.00  0.00    +0.023 C 
ATOM      6  C   UNL     1      34.647 -16.284 -21.128  0.00  0.00    +0.023 C 
ATOM      7  C   UNL     1      34.395 -15.103 -23.643  0.00  0.00    +0.038 C 
ATOM      8  C   UNL     1      34.162 -14.981 -21.242  0.00  0.00    +0.038 C 
ATOM      9  C   UNL     1      34.036 -14.390 -22.499  0.00  0.00    +0.139 C 
BRANCH   9  10
ATOM     10  O   UNL     1      33.564 -13.119 -22.609  0.00  0.00    -0.471 OA
ATOM     11  C   UNL     1      33.651 -12.503 -23.894  0.00  0.00    +0.252 C 
ENDBRANCH   9  10
ENDBRANCH   1   4
BRANCH   1  12
ATOM     12  N   UNL     1      34.904 -19.137 -20.670  0.00  0.00    -0.170 NA
ATOM     13  H   UNL     1      34.062 -18.575 -20.540  0.00  0.00    +0.149 HD
BRANCH  12  14
ATOM     14  C   UNL     1      34.506 -20.550 -20.495  0.00  0.00    +0.174 C 
ATOM     15  C   UNL     1      33.097 -20.607 -19.932  0.00  0.00    +0.031 C 
BRANCH  14  17
ATOM     16  O   UNL     1      35.406 -22.291 -19.044  0.00  0.00    -0.249 OA
ATOM     17  C   UNL     1      35.505 -21.190 -19.565  0.00  0.00    +0.330 C 
BRANCH  17  18
ATOM     18  O   UNL     1      36.577 -20.374 -19.385  0.00  0.00    -0.479 OA
ATOM     19  H   UNL     1      37.385 -20.725 -19.063  0.00  0.00    +0.295 HD
ENDBRANCH  17  18
ENDBRANCH  14  17
ENDBRANCH  12  14
ENDBRANCH   1  12
TORSDOF 6
ENDMDL
MODEL 8
REMARK VINA RESULT:      -7.4      1.613      6.600
REMARK  Name = 705712
REMARK  6 active torsions:
REMARK  status: ('A' for Active; 'I' for Inactive)
REMARK    1  A    between atoms: S_1  and  C_4
REMARK    2  A    between atoms: S_1  and  N_12
REMARK    3  A    between atoms: C_9  and  O_10
REMARK    4  A    between atoms: N_12  and  C_14
REMARK    5  A    between atoms: C_14  and  C_17
REMARK    6  A    between atoms: C_17  and  O_18
REMARK                            x       y       z     vdW  Elec       q    Type
REMARK                         _______ _______ _______ _____ _____    ______ ____
ROOT
ATOM      1  S   UNL     1      35.598 -18.636 -22.131  0.00  0.00    +0.061 S 
ATOM      2  O   UNL     1      35.031 -19.408 -23.221  0.00  0.00    -0.153 OA
ATOM      3  O   UNL     1      37.037 -18.543 -21.975  0.00  0.00    -0.153 OA
ENDROOT
BRANCH   1   4
ATOM      4  C   UNL     1      34.985 -16.982 -22.258  0.00  0.00    +0.122 C 
ATOM      5  C   UNL     1      34.606 -16.312 -21.109  0.00  0.00    +0.023 C 
ATOM      6  C   UNL     1      34.895 -16.390 -23.505  0.00  0.00    +0.023 C 
ATOM      7  C   UNL     1      34.123 -15.007 -21.208  0.00  0.00    +0.038 C 
ATOM      8  C   UNL     1      34.412 -15.085 -23.606  0.00  0.00    +0.038 C 
ATOM      9  C   UNL     1      34.026 -14.394 -22.457  0.00  0.00    +0.139 C 
BRANCH   9  10
ATOM     10  O   UNL     1      33.554 -13.121 -22.555  0.00  0.00    -0.471 OA
ATOM     11  C   UNL     1      33.618 -12.502 -23.839  0.00  0.00    +0.252 C 
ENDBRANCH   9  10
ENDBRANCH   1   4
BRANCH   1  12
ATOM     12  N   UNL     1      34.915 -19.150 -20.662  0.00  0.00    -0.170 NA
ATOM     13  H   UNL     1      34.078 -18.587 -20.514  0.00  0.00    +0.149 HD
BRANCH  12  14
ATOM     14  C   UNL     1      34.517 -20.563 -20.486  0.00  0.00    +0.174 C 
ATOM     15  C   UNL     1      33.103 -20.620 -19.937  0.00  0.00    +0.031 C 
BRANCH  14  17
ATOM     16  O   UNL     1      35.400 -22.295 -19.015  0.00  0.00    -0.249 OA
ATOM     17  C   UNL     1      35.508 -21.199 -19.545  0.00  0.00    +0.330 C 
BRANCH  17  18
ATOM     18  O   UNL     1      36.583 -20.387 -19.366  0.00  0.00    -0.479 OA
ATOM     19  H   UNL     1      36.838 -20.131 -18.501  0.00  0.00    +0.295 HD
ENDBRANCH  17  18
ENDBRANCH  14  17
ENDBRANCH  12  14
ENDBRANCH   1  12
TORSDOF 6
ENDMDL
MODEL 9
REMARK VINA RESULT:      -7.3      7.781     10.008
REMARK  Name = 705712
REMARK  6 active torsions:
REMARK  status: ('A' for Active; 'I' for Inactive)
REMARK    1  A    between atoms: S_1  and  C_4
REMARK    2  A    between atoms: S_1  and  N_12
REMARK    3  A    between atoms: C_9  and  O_10
REMARK    4  A    between atoms: N_12  and  C_14
REMARK    5  A    between atoms: C_14  and  C_17
REMARK    6  A    between atoms: C_17  and  O_18
REMARK                            x       y       z     vdW  Elec       q    Type
REMARK                         _______ _______ _______ _____ _____    ______ ____
ROOT
ATOM      1  S   UNL     1      35.219 -24.112 -14.807  0.00  0.00    +0.061 S 
ATOM      2  O   UNL     1      35.523 -25.183 -15.737  0.00  0.00    -0.153 OA
ATOM      3  O   UNL     1      35.961 -22.867 -14.860  0.00  0.00    -0.153 OA
ENDROOT
BRANCH   1   4
ATOM      4  C   UNL     1      33.508 -23.701 -14.990  0.00  0.00    +0.122 C 
ATOM      5  C   UNL     1      33.021 -23.382 -16.245  0.00  0.00    +0.023 C 
ATOM      6  C   UNL     1      32.690 -23.707 -13.874  0.00  0.00    +0.023 C 
ATOM      7  C   UNL     1      31.671 -23.057 -16.389  0.00  0.00    +0.038 C 
ATOM      8  C   UNL     1      31.340 -23.384 -14.018  0.00  0.00    +0.038 C 
ATOM      9  C   UNL     1      30.831 -23.059 -15.276  0.00  0.00    +0.139 C 
BRANCH   9  10
ATOM     10  O   UNL     1      29.515 -22.743 -15.416  0.00  0.00    -0.471 OA
ATOM     11  C   UNL     1      28.617 -23.815 -15.702  0.00  0.00    +0.252 C 
ENDBRANCH   9  10
ENDBRANCH   1   4
BRANCH   1  12
ATOM     12  N   UNL     1      35.265 -24.715 -13.218  0.00  0.00    -0.170 NA
ATOM     13  H   UNL     1      34.987 -25.695 -13.267  0.00  0.00    +0.149 HD
BRANCH  12  14
ATOM     14  C   UNL     1      36.524 -24.666 -12.446  0.00  0.00    +0.174 C 
ATOM     15  C   UNL     1      37.223 -26.011 -12.542  0.00  0.00    +0.031 C 
BRANCH  14  17
ATOM     16  O   UNL     1      35.331 -24.884 -10.330  0.00  0.00    -0.249 OA
ATOM     17  C   UNL     1      36.168 -24.322 -11.022  0.00  0.00    +0.330 C 
BRANCH  17  18
ATOM     18  O   UNL     1      36.932 -23.290 -10.577  0.00  0.00    -0.479 OA
ATOM     19  H   UNL     1      37.022 -23.136  -9.657  0.00  0.00    +0.295 HD
ENDBRANCH  17  18
ENDBRANCH  14  17
ENDBRANCH  12  14
ENDBRANCH   1  12
TORSDOF 6
ENDMDL
