MODEL 1
REMARK VINA RESULT:      -5.6      0.000      0.000
REMARK  Name = 46936985
REMARK  10 active torsions:
REMARK  status: ('A' for Active; 'I' for Inactive)
REMARK    1  A    between atoms: C_1  and  C_2
REMARK    2  A    between atoms: C_1  and  CA_11
REMARK    3  A    between atoms: C_2  and  C_3
REMARK    4  A    between atoms: C_3  and  C_4
REMARK    5  A    between atoms: C_4  and  C_5
REMARK    6  A    between atoms: C_5  and  C_6
REMARK    7  A    between atoms: C_6  and  N_7
REMARK    8  A    between atoms: CA_11  and  N_12
REMARK    9  A    between atoms: CA_11  and  C_17
REMARK   10  A    between atoms: C_17  and  O_18
REMARK                            x       y       z     vdW  Elec       q    Type
REMARK                         _______ _______ _______ _____ _____    ______ ____
ROOT
ATOM      1  C   UNL     1      34.695 -17.335 -22.199  0.00  0.00    -0.011 C 
ENDROOT
BRANCH   1   2
ATOM      2  C   UNL     1      35.768 -18.195 -21.519  0.00  0.00    -0.002 C 
BRANCH   2   3
ATOM      3  C   UNL     1      35.188 -19.530 -21.048  0.00  0.00    -0.000 C 
BRANCH   3   4
ATOM      4  C   UNL     1      33.676 -19.651 -21.267  0.00  0.00    -0.002 C 
BRANCH   4   5
ATOM      5  C   UNL     1      32.895 -20.373 -20.163  0.00  0.00    -0.024 C 
BRANCH   5   6
ATOM      6  C   UNL     1      33.689 -21.496 -19.494  0.00  0.00    -0.086 C 
BRANCH   6   7
ATOM      7  N   UNL     1      32.825 -22.314 -18.650  0.00  0.00    +0.380 N 
ATOM      8  H   UNL     1      33.398 -22.887 -18.031  0.00  0.00    -0.089 HD
ATOM      9  H   UNL     1      32.251 -22.920 -19.238  0.00  0.00    -0.089 HD
ATOM     10  H   UNL     1      32.222 -21.709 -18.093  0.00  0.00    -0.089 HD
ENDBRANCH   6   7
ENDBRANCH   5   6
ENDBRANCH   4   5
ENDBRANCH   3   4
ENDBRANCH   2   3
ENDBRANCH   1   2
BRANCH   1  11
ATOM     11  CA  UNL     1      35.193 -16.676 -23.492  0.00  0.00    +0.036 C 
BRANCH  11  12
ATOM     12  N   UNL     1      34.633 -15.327 -23.599  0.00  0.00    +0.389 N 
ATOM     13  H1  UNL     1      33.856 -15.228 -22.946  0.00  0.00    -0.088 HD
ATOM     14  H2  UNL     1      34.300 -15.172 -24.551  0.00  0.00    -0.088 HD
ATOM     15  H3  UNL     1      35.354 -14.640 -23.377  0.00  0.00    -0.088 HD
ENDBRANCH  11  12
BRANCH  11  17
ATOM     16  OXT UNL     1      34.321 -18.598 -24.712  0.00  0.00    -0.253 OA
ATOM     17  C   UNL     1      34.724 -17.441 -24.716  0.00  0.00    +0.293 C 
BRANCH  17  18
ATOM     18  O   UNL     1      34.769 -16.684 -25.845  0.00  0.00    -0.482 OA
ATOM     19  H   UNL     1      33.975 -16.382 -26.237  0.00  0.00    +0.295 HD
ENDBRANCH  17  18
ENDBRANCH  11  17
ENDBRANCH   1  11
TORSDOF 10
ENDMDL
MODEL 2
REMARK VINA RESULT:      -5.4      1.578      2.345
REMARK  Name = 46936985
REMARK  10 active torsions:
REMARK  status: ('A' for Active; 'I' for Inactive)
REMARK    1  A    between atoms: C_1  and  C_2
REMARK    2  A    between atoms: C_1  and  CA_11
REMARK    3  A    between atoms: C_2  and  C_3
REMARK    4  A    between atoms: C_3  and  C_4
REMARK    5  A    between atoms: C_4  and  C_5
REMARK    6  A    between atoms: C_5  and  C_6
REMARK    7  A    between atoms: C_6  and  N_7
REMARK    8  A    between atoms: CA_11  and  N_12
REMARK    9  A    between atoms: CA_11  and  C_17
REMARK   10  A    between atoms: C_17  and  O_18
REMARK                            x       y       z     vdW  Elec       q    Type
REMARK                         _______ _______ _______ _____ _____    ______ ____
ROOT
ATOM      1  C   UNL     1      35.037 -19.405 -21.361  0.00  0.00    -0.011 C 
ENDROOT
BRANCH   1   2
ATOM      2  C   UNL     1      33.566 -19.296 -20.941  0.00  0.00    -0.002 C 
BRANCH   2   3
ATOM      3  C   UNL     1      33.123 -20.531 -20.154  0.00  0.00    -0.000 C 
BRANCH   3   4
ATOM      4  C   UNL     1      34.291 -21.352 -19.597  0.00  0.00    -0.002 C 
BRANCH   4   5
ATOM      5  C   UNL     1      33.967 -22.798 -19.208  0.00  0.00    -0.024 C 
BRANCH   5   6
ATOM      6  C   UNL     1      33.540 -22.951 -17.748  0.00  0.00    -0.086 C 
BRANCH   6   7
ATOM      7  N   UNL     1      32.096 -22.796 -17.608  0.00  0.00    +0.380 N 
ATOM      8  H   UNL     1      31.727 -23.547 -17.025  0.00  0.00    -0.089 HD
ATOM      9  H   UNL     1      31.659 -22.836 -18.529  0.00  0.00    -0.089 HD
ATOM     10  H   UNL     1      31.891 -21.896 -17.173  0.00  0.00    -0.089 HD
ENDBRANCH   6   7
ENDBRANCH   5   6
ENDBRANCH   4   5
ENDBRANCH   3   4
ENDBRANCH   2   3
ENDBRANCH   1   2
BRANCH   1  11
ATOM     11  CA  UNL     1      35.667 -18.044 -21.679  0.00  0.00    +0.036 C 
BRANCH  11  12
ATOM     12  N   UNL     1      35.071 -17.018 -20.820  0.00  0.00    +0.389 N 
ATOM     13  H1  UNL     1      34.059 -17.141 -20.794  0.00  0.00    -0.088 HD
ATOM     14  H2  UNL     1      35.292 -16.093 -21.191  0.00  0.00    -0.088 HD
ATOM     15  H3  UNL     1      35.449 -17.103 -19.876  0.00  0.00    -0.088 HD
ENDBRANCH  11  12
BRANCH  11  17
ATOM     16  OXT UNL     1      34.873 -18.342 -23.964  0.00  0.00    -0.253 OA
ATOM     17  C   UNL     1      35.385 -17.628 -23.112  0.00  0.00    +0.293 C 
BRANCH  17  18
ATOM     18  O   UNL     1      35.742 -16.338 -23.353  0.00  0.00    -0.482 OA
ATOM     19  H   UNL     1      36.624 -16.134 -23.594  0.00  0.00    +0.295 HD
ENDBRANCH  17  18
ENDBRANCH  11  17
ENDBRANCH   1  11
TORSDOF 10
ENDMDL
MODEL 3
REMARK VINA RESULT:      -5.4      6.631      9.279
REMARK  Name = 46936985
REMARK  10 active torsions:
REMARK  status: ('A' for Active; 'I' for Inactive)
REMARK    1  A    between atoms: C_1  and  C_2
REMARK    2  A    between atoms: C_1  and  CA_11
REMARK    3  A    between atoms: C_2  and  C_3
REMARK    4  A    between atoms: C_3  and  C_4
REMARK    5  A    between atoms: C_4  and  C_5
REMARK    6  A    between atoms: C_5  and  C_6
REMARK    7  A    between atoms: C_6  and  N_7
REMARK    8  A    between atoms: CA_11  and  N_12
REMARK    9  A    between atoms: CA_11  and  C_17
REMARK   10  A    between atoms: C_17  and  O_18
REMARK                            x       y       z     vdW  Elec       q    Type
REMARK                         _______ _______ _______ _____ _____    ______ ____
ROOT
ATOM      1  C   UNL     1      30.146 -22.730 -15.246  0.00  0.00    -0.011 C 
ENDROOT
BRANCH   1   2
ATOM      2  C   UNL     1      31.261 -23.356 -16.092  0.00  0.00    -0.002 C 
BRANCH   2   3
ATOM      3  C   UNL     1      32.624 -23.194 -15.416  0.00  0.00    -0.000 C 
BRANCH   3   4
ATOM      4  C   UNL     1      33.804 -23.294 -16.388  0.00  0.00    -0.002 C 
BRANCH   4   5
ATOM      5  C   UNL     1      33.441 -23.432 -17.871  0.00  0.00    -0.024 C 
BRANCH   5   6
ATOM      6  C   UNL     1      33.951 -22.275 -18.730  0.00  0.00    -0.086 C 
BRANCH   6   7
ATOM      7  N   UNL     1      32.921 -21.821 -19.659  0.00  0.00    +0.380 N 
ATOM      8  H   UNL     1      33.361 -21.351 -20.451  0.00  0.00    -0.089 HD
ATOM      9  H   UNL     1      32.296 -21.171 -19.183  0.00  0.00    -0.089 HD
ATOM     10  H   UNL     1      32.388 -22.624 -19.993  0.00  0.00    -0.089 HD
ENDBRANCH   6   7
ENDBRANCH   5   6
ENDBRANCH   4   5
ENDBRANCH   3   4
ENDBRANCH   2   3
ENDBRANCH   1   2
BRANCH   1  11
ATOM     11  CA  UNL     1      28.799 -23.444 -15.416  0.00  0.00    +0.036 C 
BRANCH  11  12
ATOM     12  N   UNL     1      28.993 -24.890 -15.280  0.00  0.00    +0.389 N 
ATOM     13  H1  UNL     1      29.892 -25.153 -15.683  0.00  0.00    -0.088 HD
ATOM     14  H2  UNL     1      28.244 -25.381 -15.769  0.00  0.00    -0.088 HD
ATOM     15  H3  UNL     1      28.975 -25.144 -14.292  0.00  0.00    -0.088 HD
ENDBRANCH  11  12
BRANCH  11  17
ATOM     16  OXT UNL     1      27.753 -24.082 -17.523  0.00  0.00    -0.253 OA
ATOM     17  C   UNL     1      28.223 -23.211 -16.802  0.00  0.00    +0.293 C 
BRANCH  17  18
ATOM     18  O   UNL     1      28.257 -21.900 -17.160  0.00  0.00    -0.482 OA
ATOM     19  H   UNL     1      29.060 -21.514 -17.445  0.00  0.00    +0.295 HD
ENDBRANCH  17  18
ENDBRANCH  11  17
ENDBRANCH   1  11
TORSDOF 10
ENDMDL
MODEL 4
REMARK VINA RESULT:      -5.4      2.792      3.488
REMARK  Name = 46936985
REMARK  10 active torsions:
REMARK  status: ('A' for Active; 'I' for Inactive)
REMARK    1  A    between atoms: C_1  and  C_2
REMARK    2  A    between atoms: C_1  and  CA_11
REMARK    3  A    between atoms: C_2  and  C_3
REMARK    4  A    between atoms: C_3  and  C_4
REMARK    5  A    between atoms: C_4  and  C_5
REMARK    6  A    between atoms: C_5  and  C_6
REMARK    7  A    between atoms: C_6  and  N_7
REMARK    8  A    between atoms: CA_11  and  N_12
REMARK    9  A    between atoms: CA_11  and  C_17
REMARK   10  A    between atoms: C_17  and  O_18
REMARK                            x       y       z     vdW  Elec       q    Type
REMARK                         _______ _______ _______ _____ _____    ______ ____
ROOT
ATOM      1  C   UNL     1      33.719 -19.330 -21.013  0.00  0.00    -0.011 C 
ENDROOT
BRANCH   1   2
ATOM      2  C   UNL     1      33.787 -20.630 -20.203  0.00  0.00    -0.002 C 
BRANCH   2   3
ATOM      3  C   UNL     1      35.238 -21.060 -19.971  0.00  0.00    -0.000 C 
BRANCH   3   4
ATOM      4  C   UNL     1      35.423 -21.938 -18.729  0.00  0.00    -0.002 C 
BRANCH   4   5
ATOM      5  C   UNL     1      36.717 -21.716 -17.939  0.00  0.00    -0.024 C 
BRANCH   5   6
ATOM      6  C   UNL     1      36.646 -22.235 -16.502  0.00  0.00    -0.086 C 
BRANCH   6   7
ATOM      7  N   UNL     1      37.863 -22.959 -16.148  0.00  0.00    +0.380 N 
ATOM      8  H   UNL     1      38.618 -22.683 -16.776  0.00  0.00    -0.089 HD
ATOM      9  H   UNL     1      37.699 -23.963 -16.236  0.00  0.00    -0.089 HD
ATOM     10  H   UNL     1      38.122 -22.739 -15.187  0.00  0.00    -0.089 HD
ENDBRANCH   6   7
ENDBRANCH   5   6
ENDBRANCH   4   5
ENDBRANCH   3   4
ENDBRANCH   2   3
ENDBRANCH   1   2
BRANCH   1  11
ATOM     11  CA  UNL     1      35.105 -18.761 -21.340  0.00  0.00    +0.036 C 
BRANCH  11  12
ATOM     12  N   UNL     1      35.229 -17.418 -20.767  0.00  0.00    +0.389 N 
ATOM     13  H1  UNL     1      34.353 -17.159 -20.314  0.00  0.00    -0.088 HD
ATOM     14  H2  UNL     1      35.439 -16.750 -21.509  0.00  0.00    -0.088 HD
ATOM     15  H3  UNL     1      35.984 -17.410 -20.080  0.00  0.00    -0.088 HD
ENDBRANCH  11  12
BRANCH  11  17
ATOM     16  OXT UNL     1      34.912 -19.413 -23.681  0.00  0.00    -0.253 OA
ATOM     17  C   UNL     1      35.301 -18.614 -22.839  0.00  0.00    +0.293 C 
BRANCH  17  18
ATOM     18  O   UNL     1      35.943 -17.460 -23.163  0.00  0.00    -0.482 OA
ATOM     19  H   UNL     1      35.733 -16.666 -22.715  0.00  0.00    +0.295 HD
ENDBRANCH  17  18
ENDBRANCH  11  17
ENDBRANCH   1  11
TORSDOF 10
ENDMDL
MODEL 5
REMARK VINA RESULT:      -5.4      3.873      4.846
REMARK  Name = 46936985
REMARK  10 active torsions:
REMARK  status: ('A' for Active; 'I' for Inactive)
REMARK    1  A    between atoms: C_1  and  C_2
REMARK    2  A    between atoms: C_1  and  CA_11
REMARK    3  A    between atoms: C_2  and  C_3
REMARK    4  A    between atoms: C_3  and  C_4
REMARK    5  A    between atoms: C_4  and  C_5
REMARK    6  A    between atoms: C_5  and  C_6
REMARK    7  A    between atoms: C_6  and  N_7
REMARK    8  A    between atoms: CA_11  and  N_12
REMARK    9  A    between atoms: CA_11  and  C_17
REMARK   10  A    between atoms: C_17  and  O_18
REMARK                            x       y       z     vdW  Elec       q    Type
REMARK                         _______ _______ _______ _____ _____    ______ ____
ROOT
ATOM      1  C   UNL     1      34.368 -15.081 -23.200  0.00  0.00    -0.011 C 
ENDROOT
BRANCH   1   2
ATOM      2  C   UNL     1      33.422 -14.846 -24.383  0.00  0.00    -0.002 C 
BRANCH   2   3
ATOM      3  C   UNL     1      33.709 -15.826 -25.523  0.00  0.00    -0.000 C 
BRANCH   3   4
ATOM      4  C   UNL     1      34.804 -16.845 -25.191  0.00  0.00    -0.002 C 
BRANCH   4   5
ATOM      5  C   UNL     1      34.343 -18.298 -25.034  0.00  0.00    -0.024 C 
BRANCH   5   6
ATOM      6  C   UNL     1      34.927 -18.989 -23.802  0.00  0.00    -0.086 C 
BRANCH   6   7
ATOM      7  N   UNL     1      36.088 -18.264 -23.298  0.00  0.00    +0.380 N 
ATOM      8  H   UNL     1      35.801 -17.334 -22.989  0.00  0.00    -0.089 HD
ATOM      9  H   UNL     1      36.782 -18.175 -24.040  0.00  0.00    -0.089 HD
ATOM     10  H   UNL     1      36.492 -18.773 -22.512  0.00  0.00    -0.089 HD
ENDBRANCH   6   7
ENDBRANCH   5   6
ENDBRANCH   4   5
ENDBRANCH   3   4
ENDBRANCH   2   3
ENDBRANCH   1   2
BRANCH   1  11
ATOM     11  CA  UNL     1      33.687 -15.800 -22.028  0.00  0.00    +0.036 C 
BRANCH  11  12
ATOM     12  N   UNL     1      32.618 -14.954 -21.492  0.00  0.00    +0.389 N 
ATOM     13  H1  UNL     1      31.822 -15.535 -21.230  0.00  0.00    -0.088 HD
ATOM     14  H2  UNL     1      32.328 -14.281 -22.203  0.00  0.00    -0.088 HD
ATOM     15  H3  UNL     1      32.959 -14.453 -20.671  0.00  0.00    -0.088 HD
ENDBRANCH  11  12
BRANCH  11  17
ATOM     16  OXT UNL     1      35.163 -17.125 -20.612  0.00  0.00    -0.253 OA
ATOM     17  C   UNL     1      34.661 -16.043 -20.890  0.00  0.00    +0.293 C 
BRANCH  17  18
ATOM     18  O   UNL     1      34.951 -14.904 -20.207  0.00  0.00    -0.482 OA
ATOM     19  H   UNL     1      34.370 -14.598 -19.539  0.00  0.00    +0.295 HD
ENDBRANCH  17  18
ENDBRANCH  11  17
ENDBRANCH   1  11
TORSDOF 10
ENDMDL
MODEL 6
REMARK VINA RESULT:      -5.3      2.442      2.923
REMARK  Name = 46936985
REMARK  10 active torsions:
REMARK  status: ('A' for Active; 'I' for Inactive)
REMARK    1  A    between atoms: C_1  and  C_2
REMARK    2  A    between atoms: C_1  and  CA_11
REMARK    3  A    between atoms: C_2  and  C_3
REMARK    4  A    between atoms: C_3  and  C_4
REMARK    5  A    between atoms: C_4  and  C_5
REMARK    6  A    between atoms: C_5  and  C_6
REMARK    7  A    between atoms: C_6  and  N_7
REMARK    8  A    between atoms: CA_11  and  N_12
REMARK    9  A    between atoms: CA_11  and  C_17
REMARK   10  A    between atoms: C_17  and  O_18
REMARK                            x       y       z     vdW  Elec       q    Type
REMARK                         _______ _______ _______ _____ _____    ______ ____
ROOT
ATOM      1  C   UNL     1      34.627 -18.323 -21.097  0.00  0.00    -0.011 C 
ENDROOT
BRANCH   1   2
ATOM      2  C   UNL     1      34.156 -19.729 -21.488  0.00  0.00    -0.002 C 
BRANCH   2   3
ATOM      3  C   UNL     1      32.961 -20.167 -20.638  0.00  0.00    -0.000 C 
BRANCH   3   4
ATOM      4  C   UNL     1      33.325 -21.183 -19.550  0.00  0.00    -0.002 C 
BRANCH   4   5
ATOM      5  C   UNL     1      34.610 -21.984 -19.785  0.00  0.00    -0.024 C 
BRANCH   5   6
ATOM      6  C   UNL     1      35.647 -21.804 -18.676  0.00  0.00    -0.086 C 
BRANCH   6   7
ATOM      7  N   UNL     1      36.589 -20.741 -19.011  0.00  0.00    +0.380 N 
ATOM      8  H   UNL     1      36.511 -20.517 -20.003  0.00  0.00    -0.089 HD
ATOM      9  H   UNL     1      37.540 -21.052 -18.808  0.00  0.00    -0.089 HD
ATOM     10  H   UNL     1      36.377 -19.911 -18.457  0.00  0.00    -0.089 HD
ENDBRANCH   6   7
ENDBRANCH   5   6
ENDBRANCH   4   5
ENDBRANCH   3   4
ENDBRANCH   2   3
ENDBRANCH   1   2
BRANCH   1  11
ATOM     11  CA  UNL     1      34.695 -17.366 -22.294  0.00  0.00    +0.036 C 
BRANCH  11  12
ATOM     12  N   UNL     1      35.887 -17.664 -23.090  0.00  0.00    +0.389 N 
ATOM     13  H1  UNL     1      36.723 -17.453 -22.545  0.00  0.00    -0.088 HD
ATOM     14  H2  UNL     1      35.881 -17.095 -23.937  0.00  0.00    -0.088 HD
ATOM     15  H3  UNL     1      35.888 -18.652 -23.346  0.00  0.00    -0.088 HD
ENDBRANCH  11  12
BRANCH  11  17
ATOM     16  OXT UNL     1      34.890 -15.557 -20.672  0.00  0.00    -0.253 OA
ATOM     17  C   UNL     1      34.825 -15.923 -21.839  0.00  0.00    +0.293 C 
BRANCH  17  18
ATOM     18  O   UNL     1      34.892 -15.058 -22.885  0.00  0.00    -0.482 OA
ATOM     19  H   UNL     1      35.323 -14.233 -22.783  0.00  0.00    +0.295 HD
ENDBRANCH  17  18
ENDBRANCH  11  17
ENDBRANCH   1  11
TORSDOF 10
ENDMDL
MODEL 7
REMARK VINA RESULT:      -5.3      3.053      6.281
REMARK  Name = 46936985
REMARK  10 active torsions:
REMARK  status: ('A' for Active; 'I' for Inactive)
REMARK    1  A    between atoms: C_1  and  C_2
REMARK    2  A    between atoms: C_1  and  CA_11
REMARK    3  A    between atoms: C_2  and  C_3
REMARK    4  A    between atoms: C_3  and  C_4
REMARK    5  A    between atoms: C_4  and  C_5
REMARK    6  A    between atoms: C_5  and  C_6
REMARK    7  A    between atoms: C_6  and  N_7
REMARK    8  A    between atoms: CA_11  and  N_12
REMARK    9  A    between atoms: CA_11  and  C_17
REMARK   10  A    between atoms: C_17  and  O_18
REMARK                            x       y       z     vdW  Elec       q    Type
REMARK                         _______ _______ _______ _____ _____    ______ ____
ROOT
ATOM      1  C   UNL     1      33.252 -20.370 -19.951  0.00  0.00    -0.011 C 
ENDROOT
BRANCH   1   2
ATOM      2  C   UNL     1      33.654 -19.883 -21.348  0.00  0.00    -0.002 C 
BRANCH   2   3
ATOM      3  C   UNL     1      34.521 -18.625 -21.266  0.00  0.00    -0.000 C 
BRANCH   3   4
ATOM      4  C   UNL     1      35.283 -18.322 -22.561  0.00  0.00    -0.002 C 
BRANCH   4   5
ATOM      5  C   UNL     1      34.738 -18.987 -23.829  0.00  0.00    -0.024 C 
BRANCH   5   6
ATOM      6  C   UNL     1      34.513 -18.004 -24.979  0.00  0.00    -0.086 C 
BRANCH   6   7
ATOM      7  N   UNL     1      35.185 -16.735 -24.719  0.00  0.00    +0.380 N 
ATOM      8  H   UNL     1      35.779 -16.496 -25.513  0.00  0.00    -0.089 HD
ATOM      9  H   UNL     1      35.758 -16.819 -23.880  0.00  0.00    -0.089 HD
ATOM     10  H   UNL     1      34.487 -16.003 -24.583  0.00  0.00    -0.089 HD
ENDBRANCH   6   7
ENDBRANCH   5   6
ENDBRANCH   4   5
ENDBRANCH   3   4
ENDBRANCH   2   3
ENDBRANCH   1   2
BRANCH   1  11
ATOM     11  CA  UNL     1      33.677 -21.819 -19.681  0.00  0.00    +0.036 C 
BRANCH  11  12
ATOM     12  N   UNL     1      32.780 -22.414 -18.689  0.00  0.00    +0.389 N 
ATOM     13  H1  UNL     1      33.130 -23.334 -18.422  0.00  0.00    -0.088 HD
ATOM     14  H2  UNL     1      31.846 -22.508 -19.088  0.00  0.00    -0.088 HD
ATOM     15  H3  UNL     1      32.738 -21.814 -17.864  0.00  0.00    -0.088 HD
ENDBRANCH  11  12
BRANCH  11  17
ATOM     16  OXT UNL     1      36.054 -21.297 -19.545  0.00  0.00    -0.253 OA
ATOM     17  C   UNL     1      35.077 -21.882 -19.097  0.00  0.00    +0.293 C 
BRANCH  17  18
ATOM     18  O   UNL     1      35.133 -22.653 -17.978  0.00  0.00    -0.482 OA
ATOM     19  H   UNL     1      35.871 -23.210 -17.830  0.00  0.00    +0.295 HD
ENDBRANCH  17  18
ENDBRANCH  11  17
ENDBRANCH   1  11
TORSDOF 10
ENDMDL
MODEL 8
REMARK VINA RESULT:      -5.3      3.028      3.757
REMARK  Name = 46936985
REMARK  10 active torsions:
REMARK  status: ('A' for Active; 'I' for Inactive)
REMARK    1  A    between atoms: C_1  and  C_2
REMARK    2  A    between atoms: C_1  and  CA_11
REMARK    3  A    between atoms: C_2  and  C_3
REMARK    4  A    between atoms: C_3  and  C_4
REMARK    5  A    between atoms: C_4  and  C_5
REMARK    6  A    between atoms: C_5  and  C_6
REMARK    7  A    between atoms: C_6  and  N_7
REMARK    8  A    between atoms: CA_11  and  N_12
REMARK    9  A    between atoms: CA_11  and  C_17
REMARK   10  A    between atoms: C_17  and  O_18
REMARK                            x       y       z     vdW  Elec       q    Type
REMARK                         _______ _______ _______ _____ _____    ______ ____
ROOT
ATOM      1  C   UNL     1      34.896 -15.974 -23.780  0.00  0.00    -0.011 C 
ENDROOT
BRANCH   1   2
ATOM      2  C   UNL     1      34.461 -16.723 -25.046  0.00  0.00    -0.002 C 
BRANCH   2   3
ATOM      3  C   UNL     1      34.530 -18.238 -24.842  0.00  0.00    -0.000 C 
BRANCH   3   4
ATOM      4  C   UNL     1      35.308 -18.651 -23.589  0.00  0.00    -0.002 C 
BRANCH   4   5
ATOM      5  C   UNL     1      34.490 -19.328 -22.485  0.00  0.00    -0.024 C 
BRANCH   5   6
ATOM      6  C   UNL     1      35.218 -19.389 -21.142  0.00  0.00    -0.086 C 
BRANCH   6   7
ATOM      7  N   UNL     1      35.677 -18.064 -20.737  0.00  0.00    +0.380 N 
ATOM      8  H   UNL     1      36.596 -17.884 -21.143  0.00  0.00    -0.089 HD
ATOM      9  H   UNL     1      35.741 -18.022 -19.720  0.00  0.00    -0.089 HD
ATOM     10  H   UNL     1      35.017 -17.360 -21.066  0.00  0.00    -0.089 HD
ENDBRANCH   6   7
ENDBRANCH   5   6
ENDBRANCH   4   5
ENDBRANCH   3   4
ENDBRANCH   2   3
ENDBRANCH   1   2
BRANCH   1  11
ATOM     11  CA  UNL     1      33.814 -15.028 -23.248  0.00  0.00    +0.036 C 
BRANCH  11  12
ATOM     12  N   UNL     1      34.284 -13.644 -23.347  0.00  0.00    +0.389 N 
ATOM     13  H1  UNL     1      33.483 -13.015 -23.405  0.00  0.00    -0.088 HD
ATOM     14  H2  UNL     1      34.860 -13.539 -24.183  0.00  0.00    -0.088 HD
ATOM     15  H3  UNL     1      34.839 -13.413 -22.522  0.00  0.00    -0.088 HD
ENDBRANCH  11  12
BRANCH  11  17
ATOM     16  OXT UNL     1      34.380 -15.465 -20.918  0.00  0.00    -0.253 OA
ATOM     17  C   UNL     1      33.528 -15.286 -21.780  0.00  0.00    +0.293 C 
BRANCH  17  18
ATOM     18  O   UNL     1      32.197 -15.271 -21.504  0.00  0.00    -0.482 OA
ATOM     19  H   UNL     1      31.858 -15.797 -20.807  0.00  0.00    +0.295 HD
ENDBRANCH  17  18
ENDBRANCH  11  17
ENDBRANCH   1  11
TORSDOF 10
ENDMDL
MODEL 9
REMARK VINA RESULT:      -5.3      2.918      4.743
REMARK  Name = 46936985
REMARK  10 active torsions:
REMARK  status: ('A' for Active; 'I' for Inactive)
REMARK    1  A    between atoms: C_1  and  C_2
REMARK    2  A    between atoms: C_1  and  CA_11
REMARK    3  A    between atoms: C_2  and  C_3
REMARK    4  A    between atoms: C_3  and  C_4
REMARK    5  A    between atoms: C_4  and  C_5
REMARK    6  A    between atoms: C_5  and  C_6
REMARK    7  A    between atoms: C_6  and  N_7
REMARK    8  A    between atoms: CA_11  and  N_12
REMARK    9  A    between atoms: CA_11  and  C_17
REMARK   10  A    between atoms: C_17  and  O_18
REMARK                            x       y       z     vdW  Elec       q    Type
REMARK                         _______ _______ _______ _____ _____    ______ ____
ROOT
ATOM      1  C   UNL     1      34.161 -17.656 -22.032  0.00  0.00    -0.011 C 
ENDROOT
BRANCH   1   2
ATOM      2  C   UNL     1      34.984 -17.029 -20.900  0.00  0.00    -0.002 C 
BRANCH   2   3
ATOM      3  C   UNL     1      34.606 -15.561 -20.691  0.00  0.00    -0.000 C 
BRANCH   3   4
ATOM      4  C   UNL     1      33.095 -15.310 -20.718  0.00  0.00    -0.002 C 
BRANCH   4   5
ATOM      5  C   UNL     1      32.632 -14.091 -21.524  0.00  0.00    -0.024 C 
BRANCH   5   6
ATOM      6  C   UNL     1      32.948 -14.196 -23.016  0.00  0.00    -0.086 C 
BRANCH   6   7
ATOM      7  N   UNL     1      34.121 -13.398 -23.358  0.00  0.00    +0.380 N 
ATOM      8  H   UNL     1      34.188 -13.308 -24.372  0.00  0.00    -0.089 HD
ATOM      9  H   UNL     1      34.961 -13.858 -23.003  0.00  0.00    -0.089 HD
ATOM     10  H   UNL     1      34.037 -12.472 -22.938  0.00  0.00    -0.089 HD
ENDBRANCH   6   7
ENDBRANCH   5   6
ENDBRANCH   4   5
ENDBRANCH   3   4
ENDBRANCH   2   3
ENDBRANCH   1   2
BRANCH   1  11
ATOM     11  CA  UNL     1      35.031 -18.154 -23.193  0.00  0.00    +0.036 C 
BRANCH  11  12
ATOM     12  N   UNL     1      36.434 -18.190 -22.771  0.00  0.00    +0.389 N 
ATOM     13  H1  UNL     1      37.037 -18.085 -23.587  0.00  0.00    -0.088 HD
ATOM     14  H2  UNL     1      36.629 -19.082 -22.316  0.00  0.00    -0.088 HD
ATOM     15  H3  UNL     1      36.611 -17.429 -22.115  0.00  0.00    -0.088 HD
ENDBRANCH  11  12
BRANCH  11  17
ATOM     16  OXT UNL     1      34.375 -17.446 -25.431  0.00  0.00    -0.253 OA
ATOM     17  C   UNL     1      34.958 -17.211 -24.380  0.00  0.00    +0.293 C 
BRANCH  17  18
ATOM     18  O   UNL     1      35.598 -16.035 -24.144  0.00  0.00    -0.482 OA
ATOM     19  H   UNL     1      35.102 -15.262 -23.961  0.00  0.00    +0.295 HD
ENDBRANCH  17  18
ENDBRANCH  11  17
ENDBRANCH   1  11
TORSDOF 10
ENDMDL
