MODEL 1
REMARK VINA RESULT:      -5.6      0.000      0.000
REMARK  Name = 3080766
REMARK  5 active torsions:
REMARK  status: ('A' for Active; 'I' for Inactive)
REMARK    1  A    between atoms: C_1  and  C_4
REMARK    2  A    between atoms: C_1  and  N_8
REMARK    3  A    between atoms: C_1  and  C_12
REMARK    4  A    between atoms: N_3  and  O_6
REMARK    5  A    between atoms: C_12  and  C_13
REMARK                            x       y       z     vdW  Elec       q    Type
REMARK                         _______ _______ _______ _____ _____    ______ ____
ROOT
ATOM      1  C   UNL     1      35.586 -17.978 -21.984  0.00  0.00    +0.015 C 
ENDROOT
BRANCH   1   4
ATOM      2  O   UNL     1      35.336 -15.939 -23.267  0.00  0.00    -0.275 OA
ATOM      3  N   UNL     1      34.965 -17.962 -24.314  0.00  0.00    -0.199 N 
ATOM      4  C   UNL     1      35.292 -17.167 -23.242  0.00  0.00    +0.224 C 
ATOM      5  H   UNL     1      34.942 -18.944 -24.251  0.00  0.00    +0.182 HD
BRANCH   3   6
ATOM      6  O   UNL     1      34.666 -17.284 -25.505  0.00  0.00    -0.295 OA
ATOM      7  H   UNL     1      35.477 -16.896 -25.868  0.00  0.00    +0.241 HD
ENDBRANCH   3   6
ENDBRANCH   1   4
BRANCH   1   8
ATOM      8  N   UNL     1      35.207 -17.127 -20.858  0.00  0.00    +0.387 N 
ATOM      9  H   UNL     1      35.037 -16.177 -21.191  0.00  0.00    -0.089 HD
ATOM     10  H   UNL     1      35.961 -17.116 -20.171  0.00  0.00    -0.089 HD
ATOM     11  H   UNL     1      34.358 -17.492 -20.425  0.00  0.00    -0.089 HD
ENDBRANCH   1   8
BRANCH   1  12
ATOM     12  C   UNL     1      34.811 -19.308 -21.990  0.00  0.00    -0.013 C 
BRANCH  12  13
ATOM     13  C   UNL     1      34.320 -19.802 -20.615  0.00  0.00    -0.002 C 
ATOM     14  C   UNL     1      35.249 -20.909 -20.104  0.00  0.00    -0.000 C 
ATOM     15  C   UNL     1      32.881 -20.318 -20.656  0.00  0.00    -0.000 C 
ENDBRANCH  12  13
ENDBRANCH   1  12
TORSDOF 5
ENDMDL
MODEL 2
REMARK VINA RESULT:      -5.6      1.285      2.695
REMARK  Name = 3080766
REMARK  5 active torsions:
REMARK  status: ('A' for Active; 'I' for Inactive)
REMARK    1  A    between atoms: C_1  and  C_4
REMARK    2  A    between atoms: C_1  and  N_8
REMARK    3  A    between atoms: C_1  and  C_12
REMARK    4  A    between atoms: N_3  and  O_6
REMARK    5  A    between atoms: C_12  and  C_13
REMARK                            x       y       z     vdW  Elec       q    Type
REMARK                         _______ _______ _______ _____ _____    ______ ____
ROOT
ATOM      1  C   UNL     1      34.903 -17.993 -22.410  0.00  0.00    +0.015 C 
ENDROOT
BRANCH   1   4
ATOM      2  O   UNL     1      35.160 -15.648 -22.963  0.00  0.00    -0.275 OA
ATOM      3  N   UNL     1      34.806 -16.237 -20.759  0.00  0.00    -0.199 N 
ATOM      4  C   UNL     1      34.968 -16.501 -22.098  0.00  0.00    +0.224 C 
ATOM      5  H   UNL     1      34.654 -16.952 -20.100  0.00  0.00    +0.182 HD
BRANCH   3   6
ATOM      6  O   UNL     1      34.870 -14.886 -20.393  0.00  0.00    -0.295 OA
ATOM      7  H   UNL     1      34.052 -14.439 -20.662  0.00  0.00    +0.241 HD
ENDBRANCH   3   6
ENDBRANCH   1   4
BRANCH   1   8
ATOM      8  N   UNL     1      35.827 -18.213 -23.521  0.00  0.00    +0.387 N 
ATOM      9  H   UNL     1      36.221 -19.152 -23.456  0.00  0.00    -0.089 HD
ATOM     10  H   UNL     1      36.579 -17.525 -23.478  0.00  0.00    -0.089 HD
ATOM     11  H   UNL     1      35.327 -18.114 -24.405  0.00  0.00    -0.089 HD
ENDBRANCH   1   8
BRANCH   1  12
ATOM     12  C   UNL     1      35.273 -18.832 -21.175  0.00  0.00    -0.013 C 
BRANCH  12  13
ATOM     13  C   UNL     1      34.448 -20.119 -20.969  0.00  0.00    -0.002 C 
ATOM     14  C   UNL     1      32.985 -19.755 -20.695  0.00  0.00    -0.000 C 
ATOM     15  C   UNL     1      34.985 -20.984 -19.828  0.00  0.00    -0.000 C 
ENDBRANCH  12  13
ENDBRANCH   1  12
TORSDOF 5
ENDMDL
MODEL 3
REMARK VINA RESULT:      -5.5      1.888      2.413
REMARK  Name = 3080766
REMARK  5 active torsions:
REMARK  status: ('A' for Active; 'I' for Inactive)
REMARK    1  A    between atoms: C_1  and  C_4
REMARK    2  A    between atoms: C_1  and  N_8
REMARK    3  A    between atoms: C_1  and  C_12
REMARK    4  A    between atoms: N_3  and  O_6
REMARK    5  A    between atoms: C_12  and  C_13
REMARK                            x       y       z     vdW  Elec       q    Type
REMARK                         _______ _______ _______ _____ _____    ______ ____
ROOT
ATOM      1  C   UNL     1      34.880 -17.747 -22.210  0.00  0.00    +0.015 C 
ENDROOT
BRANCH   1   4
ATOM      2  O   UNL     1      34.943 -15.877 -20.671  0.00  0.00    -0.275 OA
ATOM      3  N   UNL     1      34.773 -15.448 -22.933  0.00  0.00    -0.199 N 
ATOM      4  C   UNL     1      34.876 -16.269 -21.835  0.00  0.00    +0.224 C 
ATOM      5  H   UNL     1      34.721 -15.804 -23.849  0.00  0.00    +0.182 HD
BRANCH   3   6
ATOM      6  O   UNL     1      34.747 -14.073 -22.664  0.00  0.00    -0.295 OA
ATOM      7  H   UNL     1      33.859 -13.726 -22.842  0.00  0.00    +0.241 HD
ENDBRANCH   3   6
ENDBRANCH   1   4
BRANCH   1   8
ATOM      8  N   UNL     1      35.879 -17.891 -23.267  0.00  0.00    +0.387 N 
ATOM      9  H   UNL     1      35.570 -18.600 -23.934  0.00  0.00    -0.089 HD
ATOM     10  H   UNL     1      36.769 -18.175 -22.858  0.00  0.00    -0.089 HD
ATOM     11  H   UNL     1      35.995 -16.999 -23.749  0.00  0.00    -0.089 HD
ENDBRANCH   1   8
BRANCH   1  12
ATOM     12  C   UNL     1      35.200 -18.626 -20.988  0.00  0.00    -0.013 C 
BRANCH  12  13
ATOM     13  C   UNL     1      34.522 -20.011 -20.965  0.00  0.00    -0.002 C 
ATOM     14  C   UNL     1      33.030 -19.848 -20.658  0.00  0.00    -0.000 C 
ATOM     15  C   UNL     1      35.156 -20.957 -19.945  0.00  0.00    -0.000 C 
ENDBRANCH  12  13
ENDBRANCH   1  12
TORSDOF 5
ENDMDL
MODEL 4
REMARK VINA RESULT:      -5.5      9.477     10.729
REMARK  Name = 3080766
REMARK  5 active torsions:
REMARK  status: ('A' for Active; 'I' for Inactive)
REMARK    1  A    between atoms: C_1  and  C_4
REMARK    2  A    between atoms: C_1  and  N_8
REMARK    3  A    between atoms: C_1  and  C_12
REMARK    4  A    between atoms: N_3  and  O_6
REMARK    5  A    between atoms: C_12  and  C_13
REMARK                            x       y       z     vdW  Elec       q    Type
REMARK                         _______ _______ _______ _____ _____    ______ ____
ROOT
ATOM      1  C   UNL     1      36.993 -25.197 -14.471  0.00  0.00    +0.015 C 
ENDROOT
BRANCH   1   4
ATOM      2  O   UNL     1      38.351 -27.195 -14.662  0.00  0.00    -0.275 OA
ATOM      3  N   UNL     1      39.181 -25.205 -15.487  0.00  0.00    -0.199 N 
ATOM      4  C   UNL     1      38.231 -25.990 -14.878  0.00  0.00    +0.224 C 
ATOM      5  H   UNL     1      39.045 -24.242 -15.640  0.00  0.00    +0.182 HD
BRANCH   3   6
ATOM      6  O   UNL     1      40.357 -25.862 -15.875  0.00  0.00    -0.295 OA
ATOM      7  H   UNL     1      41.117 -25.280 -15.723  0.00  0.00    +0.241 HD
ENDBRANCH   3   6
ENDBRANCH   1   4
BRANCH   1   8
ATOM      8  N   UNL     1      36.552 -25.765 -13.199  0.00  0.00    +0.387 N 
ATOM      9  H   UNL     1      35.829 -26.465 -13.371  0.00  0.00    -0.089 HD
ATOM     10  H   UNL     1      36.173 -25.024 -12.609  0.00  0.00    -0.089 HD
ATOM     11  H   UNL     1      37.344 -26.203 -12.728  0.00  0.00    -0.089 HD
ENDBRANCH   1   8
BRANCH   1  12
ATOM     12  C   UNL     1      37.312 -23.696 -14.355  0.00  0.00    -0.013 C 
BRANCH  12  13
ATOM     13  C   UNL     1      36.467 -22.762 -15.245  0.00  0.00    -0.002 C 
ATOM     14  C   UNL     1      35.197 -23.492 -15.697  0.00  0.00    -0.000 C 
ATOM     15  C   UNL     1      37.236 -22.262 -16.468  0.00  0.00    -0.000 C 
ENDBRANCH  12  13
ENDBRANCH   1  12
TORSDOF 5
ENDMDL
MODEL 5
REMARK VINA RESULT:      -5.4      9.491     10.337
REMARK  Name = 3080766
REMARK  5 active torsions:
REMARK  status: ('A' for Active; 'I' for Inactive)
REMARK    1  A    between atoms: C_1  and  C_4
REMARK    2  A    between atoms: C_1  and  N_8
REMARK    3  A    between atoms: C_1  and  C_12
REMARK    4  A    between atoms: N_3  and  O_6
REMARK    5  A    between atoms: C_12  and  C_13
REMARK                            x       y       z     vdW  Elec       q    Type
REMARK                         _______ _______ _______ _____ _____    ______ ____
ROOT
ATOM      1  C   UNL     1      29.628 -23.327 -16.155  0.00  0.00    +0.015 C 
ENDROOT
BRANCH   1   4
ATOM      2  O   UNL     1      27.712 -23.609 -17.611  0.00  0.00    -0.275 OA
ATOM      3  N   UNL     1      27.457 -22.397 -15.664  0.00  0.00    -0.199 N 
ATOM      4  C   UNL     1      28.172 -23.144 -16.570  0.00  0.00    +0.224 C 
ATOM      5  H   UNL     1      27.864 -22.043 -14.841  0.00  0.00    +0.182 HD
BRANCH   3   6
ATOM      6  O   UNL     1      26.112 -22.172 -15.986  0.00  0.00    -0.295 OA
ATOM      7  H   UNL     1      26.014 -21.283 -16.360  0.00  0.00    +0.241 HD
ENDBRANCH   3   6
ENDBRANCH   1   4
BRANCH   1   8
ATOM      8  N   UNL     1      30.417 -22.534 -17.095  0.00  0.00    +0.387 N 
ATOM      9  H   UNL     1      31.410 -22.656 -16.894  0.00  0.00    -0.089 HD
ATOM     10  H   UNL     1      30.170 -21.549 -17.000  0.00  0.00    -0.089 HD
ATOM     11  H   UNL     1      30.223 -22.843 -18.048  0.00  0.00    -0.089 HD
ENDBRANCH   1   8
BRANCH   1  12
ATOM     12  C   UNL     1      29.846 -22.884 -14.697  0.00  0.00    -0.013 C 
BRANCH  12  13
ATOM     13  C   UNL     1      30.799 -23.766 -13.866  0.00  0.00    -0.002 C 
ATOM     14  C   UNL     1      32.238 -23.264 -14.025  0.00  0.00    -0.000 C 
ATOM     15  C   UNL     1      30.724 -25.242 -14.258  0.00  0.00    -0.000 C 
ENDBRANCH  12  13
ENDBRANCH   1  12
TORSDOF 5
ENDMDL
MODEL 6
REMARK VINA RESULT:      -5.4      3.454      4.397
REMARK  Name = 3080766
REMARK  5 active torsions:
REMARK  status: ('A' for Active; 'I' for Inactive)
REMARK    1  A    between atoms: C_1  and  C_4
REMARK    2  A    between atoms: C_1  and  N_8
REMARK    3  A    between atoms: C_1  and  C_12
REMARK    4  A    between atoms: N_3  and  O_6
REMARK    5  A    between atoms: C_12  and  C_13
REMARK                            x       y       z     vdW  Elec       q    Type
REMARK                         _______ _______ _______ _____ _____    ______ ____
ROOT
ATOM      1  C   UNL     1      34.328 -16.288 -23.555  0.00  0.00    +0.015 C 
ENDROOT
BRANCH   1   4
ATOM      2  O   UNL     1      34.849 -17.029 -25.802  0.00  0.00    -0.275 OA
ATOM      3  N   UNL     1      33.467 -15.201 -25.528  0.00  0.00    -0.199 N 
ATOM      4  C   UNL     1      34.253 -16.234 -25.077  0.00  0.00    +0.224 C 
ATOM      5  H   UNL     1      33.006 -14.586 -24.912  0.00  0.00    +0.182 HD
BRANCH   3   6
ATOM      6  O   UNL     1      33.363 -15.077 -26.921  0.00  0.00    -0.295 OA
ATOM      7  H   UNL     1      34.096 -14.537 -27.252  0.00  0.00    +0.241 HD
ENDBRANCH   3   6
ENDBRANCH   1   4
BRANCH   1   8
ATOM      8  N   UNL     1      35.655 -16.809 -23.236  0.00  0.00    +0.387 N 
ATOM      9  H   UNL     1      35.922 -17.509 -23.929  0.00  0.00    -0.089 HD
ATOM     10  H   UNL     1      35.639 -17.237 -22.310  0.00  0.00    -0.089 HD
ATOM     11  H   UNL     1      36.332 -16.046 -23.245  0.00  0.00    -0.089 HD
ENDBRANCH   1   8
BRANCH   1  12
ATOM     12  C   UNL     1      34.088 -14.898 -22.941  0.00  0.00    -0.013 C 
BRANCH  12  13
ATOM     13  C   UNL     1      32.860 -14.777 -22.016  0.00  0.00    -0.002 C 
ATOM     14  C   UNL     1      32.278 -13.363 -22.114  0.00  0.00    -0.000 C 
ATOM     15  C   UNL     1      33.191 -15.097 -20.557  0.00  0.00    -0.000 C 
ENDBRANCH  12  13
ENDBRANCH   1  12
TORSDOF 5
ENDMDL
MODEL 7
REMARK VINA RESULT:      -5.4     11.008     11.676
REMARK  Name = 3080766
REMARK  5 active torsions:
REMARK  status: ('A' for Active; 'I' for Inactive)
REMARK    1  A    between atoms: C_1  and  C_4
REMARK    2  A    between atoms: C_1  and  N_8
REMARK    3  A    between atoms: C_1  and  C_12
REMARK    4  A    between atoms: N_3  and  O_6
REMARK    5  A    between atoms: C_12  and  C_13
REMARK                            x       y       z     vdW  Elec       q    Type
REMARK                         _______ _______ _______ _____ _____    ______ ____
ROOT
ATOM      1  C   UNL     1      36.933 -25.469 -14.388  0.00  0.00    +0.015 C 
ENDROOT
BRANCH   1   4
ATOM      2  O   UNL     1      38.484 -27.311 -14.655  0.00  0.00    -0.275 OA
ATOM      3  N   UNL     1      39.082 -25.231 -15.457  0.00  0.00    -0.199 N 
ATOM      4  C   UNL     1      38.234 -26.121 -14.842  0.00  0.00    +0.224 C 
ATOM      5  H   UNL     1      38.842 -24.285 -15.587  0.00  0.00    +0.182 HD
BRANCH   3   6
ATOM      6  O   UNL     1      40.308 -25.756 -15.888  0.00  0.00    -0.295 OA
ATOM      7  H   UNL     1      40.164 -26.317 -16.667  0.00  0.00    +0.241 HD
ENDBRANCH   3   6
ENDBRANCH   1   4
BRANCH   1   8
ATOM      8  N   UNL     1      35.858 -26.238 -15.012  0.00  0.00    +0.387 N 
ATOM      9  H   UNL     1      36.185 -26.622 -15.900  0.00  0.00    -0.089 HD
ATOM     10  H   UNL     1      35.057 -25.629 -15.180  0.00  0.00    -0.089 HD
ATOM     11  H   UNL     1      35.581 -27.001 -14.393  0.00  0.00    -0.089 HD
ENDBRANCH   1   8
BRANCH   1  12
ATOM     12  C   UNL     1      36.824 -25.463 -12.853  0.00  0.00    -0.013 C 
BRANCH  12  13
ATOM     13  C   UNL     1      36.308 -24.152 -12.225  0.00  0.00    -0.002 C 
ATOM     14  C   UNL     1      37.464 -23.153 -12.097  0.00  0.00    -0.000 C 
ATOM     15  C   UNL     1      35.665 -24.372 -10.855  0.00  0.00    -0.000 C 
ENDBRANCH  12  13
ENDBRANCH   1  12
TORSDOF 5
ENDMDL
MODEL 8
REMARK VINA RESULT:      -5.3     11.002     12.182
REMARK  Name = 3080766
REMARK  5 active torsions:
REMARK  status: ('A' for Active; 'I' for Inactive)
REMARK    1  A    between atoms: C_1  and  C_4
REMARK    2  A    between atoms: C_1  and  N_8
REMARK    3  A    between atoms: C_1  and  C_12
REMARK    4  A    between atoms: N_3  and  O_6
REMARK    5  A    between atoms: C_12  and  C_13
REMARK                            x       y       z     vdW  Elec       q    Type
REMARK                         _______ _______ _______ _____ _____    ______ ____
ROOT
ATOM      1  C   UNL     1      37.070 -24.326 -12.311  0.00  0.00    +0.015 C 
ENDROOT
BRANCH   1   4
ATOM      2  O   UNL     1      35.311 -25.106 -10.839  0.00  0.00    -0.275 OA
ATOM      3  N   UNL     1      34.777 -24.567 -13.018  0.00  0.00    -0.199 N 
ATOM      4  C   UNL     1      35.637 -24.707 -11.955  0.00  0.00    +0.224 C 
ATOM      5  H   UNL     1      35.080 -24.244 -13.897  0.00  0.00    +0.182 HD
BRANCH   3   6
ATOM      6  O   UNL     1      33.442 -24.915 -12.771  0.00  0.00    -0.295 OA
ATOM      7  H   UNL     1      33.403 -25.819 -12.422  0.00  0.00    +0.241 HD
ENDBRANCH   3   6
ENDBRANCH   1   4
BRANCH   1   8
ATOM      8  N   UNL     1      37.593 -23.601 -11.155  0.00  0.00    +0.387 N 
ATOM      9  H   UNL     1      36.875 -23.552 -10.430  0.00  0.00    -0.089 HD
ATOM     10  H   UNL     1      37.855 -22.656 -11.436  0.00  0.00    -0.089 HD
ATOM     11  H   UNL     1      38.412 -24.087 -10.789  0.00  0.00    -0.089 HD
ENDBRANCH   1   8
BRANCH   1  12
ATOM     12  C   UNL     1      37.908 -25.574 -12.638  0.00  0.00    -0.013 C 
BRANCH  12  13
ATOM     13  C   UNL     1      38.504 -25.626 -14.060  0.00  0.00    -0.002 C 
ATOM     14  C   UNL     1      40.035 -25.642 -13.976  0.00  0.00    -0.000 C 
ATOM     15  C   UNL     1      38.050 -24.453 -14.929  0.00  0.00    -0.000 C 
ENDBRANCH  12  13
ENDBRANCH   1  12
TORSDOF 5
ENDMDL
MODEL 9
REMARK VINA RESULT:      -5.3      4.415      5.469
REMARK  Name = 3080766
REMARK  5 active torsions:
REMARK  status: ('A' for Active; 'I' for Inactive)
REMARK    1  A    between atoms: C_1  and  C_4
REMARK    2  A    between atoms: C_1  and  N_8
REMARK    3  A    between atoms: C_1  and  C_12
REMARK    4  A    between atoms: N_3  and  O_6
REMARK    5  A    between atoms: C_12  and  C_13
REMARK                            x       y       z     vdW  Elec       q    Type
REMARK                         _______ _______ _______ _____ _____    ______ ____
ROOT
ATOM      1  C   UNL     1      33.486 -20.792 -20.505  0.00  0.00    +0.015 C 
ENDROOT
BRANCH   1   4
ATOM      2  O   UNL     1      32.793 -22.297 -18.738  0.00  0.00    -0.275 OA
ATOM      3  N   UNL     1      35.038 -21.815 -18.969  0.00  0.00    -0.199 N 
ATOM      4  C   UNL     1      33.712 -21.720 -19.316  0.00  0.00    +0.224 C 
ATOM      5  H   UNL     1      35.743 -21.335 -19.459  0.00  0.00    +0.182 HD
BRANCH   3   6
ATOM      6  O   UNL     1      35.322 -22.640 -17.872  0.00  0.00    -0.295 OA
ATOM      7  H   UNL     1      36.256 -22.901 -17.897  0.00  0.00    +0.241 HD
ENDBRANCH   3   6
ENDBRANCH   1   4
BRANCH   1   8
ATOM      8  N   UNL     1      32.307 -19.993 -20.174  0.00  0.00    +0.387 N 
ATOM      9  H   UNL     1      32.495 -19.010 -20.375  0.00  0.00    -0.089 HD
ATOM     10  H   UNL     1      32.090 -20.102 -19.183  0.00  0.00    -0.089 HD
ATOM     11  H   UNL     1      31.514 -20.308 -20.732  0.00  0.00    -0.089 HD
ENDBRANCH   1   8
BRANCH   1  12
ATOM     12  C   UNL     1      34.724 -19.916 -20.766  0.00  0.00    -0.013 C 
BRANCH  12  13
ATOM     13  C   UNL     1      34.496 -18.685 -21.667  0.00  0.00    -0.002 C 
ATOM     14  C   UNL     1      35.016 -18.977 -23.078  0.00  0.00    -0.000 C 
ATOM     15  C   UNL     1      35.169 -17.426 -21.121  0.00  0.00    -0.000 C 
ENDBRANCH  12  13
ENDBRANCH   1  12
TORSDOF 5
ENDMDL
