MODEL 1
REMARK VINA RESULT:      -6.5      0.000      0.000
REMARK  Name = 24728635
REMARK  8 active torsions:
REMARK  status: ('A' for Active; 'I' for Inactive)
REMARK    1  A    between atoms: C_1  and  C_15
REMARK    2  A    between atoms: C_2  and  O_7
REMARK    3  A    between atoms: C_4  and  S_11
REMARK    4  A    between atoms: C_5  and  O_9
REMARK    5  A    between atoms: S_11  and  C_12
REMARK    6  A    between atoms: C_12  and  C_13
REMARK    7  A    between atoms: C_15  and  C_16
REMARK    8  A    between atoms: C_16  and  N_17
REMARK                            x       y       z     vdW  Elec       q    Type
REMARK                         _______ _______ _______ _____ _____    ______ ____
ROOT
ATOM      1  C   UNL     1      34.462 -15.318 -22.846  0.00  0.00    +0.013 C 
ATOM      2  C   UNL     1      34.246 -15.555 -21.488  0.00  0.00    +0.135 C 
ATOM      3  C   UNL     1      34.910 -16.350 -23.672  0.00  0.00    +0.036 C 
ATOM      4  C   UNL     1      34.924 -17.855 -21.781  0.00  0.00    +0.062 C 
ATOM      5  C   UNL     1      35.140 -17.618 -23.139  0.00  0.00    +0.144 C 
ATOM      6  C   UNL     1      34.477 -16.823 -20.957  0.00  0.00    +0.046 C 
ENDROOT
BRANCH   2   7
ATOM      7  O   UNL     1      33.810 -14.558 -20.669  0.00  0.00    -0.472 OA
ATOM      8  C   UNL     1      32.565 -14.763 -20.004  0.00  0.00    +0.252 C 
ENDBRANCH   2   7
BRANCH   5   9
ATOM      9  O   UNL     1      35.577 -18.604 -23.975  0.00  0.00    -0.471 OA
ATOM     10  C   UNL     1      34.601 -19.225 -24.808  0.00  0.00    +0.252 C 
ENDBRANCH   5   9
BRANCH   4  11
ATOM     11  S   UNL     1      35.208 -19.467 -21.063  0.00  0.00    -0.111 S 
BRANCH  11  12
ATOM     12  C   UNL     1      33.513 -20.019 -20.727  0.00  0.00    +0.062 C 
BRANCH  12  13
ATOM     13  C   UNL     1      33.513 -21.170 -19.728  0.00  0.00    +0.012 C 
ATOM     14  C   UNL     1      34.932 -21.599 -19.385  0.00  0.00    +0.001 C 
ENDBRANCH  12  13
ENDBRANCH  11  12
ENDBRANCH   4  11
BRANCH   1  15
ATOM     15  C   UNL     1      34.222 -13.967 -23.433  0.00  0.00    +0.006 C 
BRANCH  15  16
ATOM     16  C   UNL     1      32.765 -13.783 -23.879  0.00  0.00    -0.081 C 
BRANCH  16  17
ATOM     17  N   UNL     1      31.988 -13.055 -22.881  0.00  0.00    +0.381 N 
ATOM     18  H   UNL     1      32.622 -12.591 -22.230  0.00  0.00    -0.089 HD
ATOM     19  H   UNL     1      31.395 -13.709 -22.370  0.00  0.00    -0.089 HD
ATOM     20  H   UNL     1      31.406 -12.359 -23.345  0.00  0.00    -0.089 HD
ENDBRANCH  16  17
ENDBRANCH  15  16
ENDBRANCH   1  15
TORSDOF 8
ENDMDL
MODEL 2
REMARK VINA RESULT:      -6.5      4.264      6.242
REMARK  Name = 24728635
REMARK  8 active torsions:
REMARK  status: ('A' for Active; 'I' for Inactive)
REMARK    1  A    between atoms: C_1  and  C_15
REMARK    2  A    between atoms: C_2  and  O_7
REMARK    3  A    between atoms: C_4  and  S_11
REMARK    4  A    between atoms: C_5  and  O_9
REMARK    5  A    between atoms: S_11  and  C_12
REMARK    6  A    between atoms: C_12  and  C_13
REMARK    7  A    between atoms: C_15  and  C_16
REMARK    8  A    between atoms: C_16  and  N_17
REMARK                            x       y       z     vdW  Elec       q    Type
REMARK                         _______ _______ _______ _____ _____    ______ ____
ROOT
ATOM      1  C   UNL     1      32.369  -9.733 -22.657  0.00  0.00    +0.013 C 
ATOM      2  C   UNL     1      31.887 -10.866 -22.001  0.00  0.00    +0.135 C 
ATOM      3  C   UNL     1      33.216  -9.873 -23.757  0.00  0.00    +0.036 C 
ATOM      4  C   UNL     1      33.096 -12.277 -23.544  0.00  0.00    +0.062 C 
ATOM      5  C   UNL     1      33.578 -11.144 -24.201  0.00  0.00    +0.144 C 
ATOM      6  C   UNL     1      32.250 -12.137 -22.444  0.00  0.00    +0.046 C 
ENDROOT
BRANCH   2   7
ATOM      7  O   UNL     1      31.061 -10.747 -20.924  0.00  0.00    -0.472 OA
ATOM      8  C   UNL     1      31.454 -11.418 -19.728  0.00  0.00    +0.252 C 
ENDBRANCH   2   7
BRANCH   5   9
ATOM      9  O   UNL     1      34.407 -11.244 -25.280  0.00  0.00    -0.471 OA
ATOM     10  C   UNL     1      35.390 -10.223 -25.437  0.00  0.00    +0.252 C 
ENDBRANCH   5   9
BRANCH   4  11
ATOM     11  S   UNL     1      33.538 -13.923 -24.083  0.00  0.00    -0.111 S 
BRANCH  11  12
ATOM     12  C   UNL     1      33.170 -14.902 -22.602  0.00  0.00    +0.062 C 
BRANCH  12  13
ATOM     13  C   UNL     1      34.456 -15.430 -21.976  0.00  0.00    +0.012 C 
ATOM     14  C   UNL     1      34.433 -15.274 -20.463  0.00  0.00    +0.001 C 
ENDBRANCH  12  13
ENDBRANCH  11  12
ENDBRANCH   4  11
BRANCH   1  15
ATOM     15  C   UNL     1      31.993  -8.365 -22.195  0.00  0.00    +0.006 C 
BRANCH  15  16
ATOM     16  C   UNL     1      33.037  -7.771 -21.241  0.00  0.00    -0.081 C 
BRANCH  16  17
ATOM     17  N   UNL     1      32.753  -8.117 -19.853  0.00  0.00    +0.381 N 
ATOM     18  H   UNL     1      31.793  -7.856 -19.628  0.00  0.00    -0.089 HD
ATOM     19  H   UNL     1      33.394  -7.615 -19.240  0.00  0.00    -0.089 HD
ATOM     20  H   UNL     1      32.872  -9.121 -19.722  0.00  0.00    -0.089 HD
ENDBRANCH  16  17
ENDBRANCH  15  16
ENDBRANCH   1  15
TORSDOF 8
ENDMDL
MODEL 3
REMARK VINA RESULT:      -6.5      1.672      1.830
REMARK  Name = 24728635
REMARK  8 active torsions:
REMARK  status: ('A' for Active; 'I' for Inactive)
REMARK    1  A    between atoms: C_1  and  C_15
REMARK    2  A    between atoms: C_2  and  O_7
REMARK    3  A    between atoms: C_4  and  S_11
REMARK    4  A    between atoms: C_5  and  O_9
REMARK    5  A    between atoms: S_11  and  C_12
REMARK    6  A    between atoms: C_12  and  C_13
REMARK    7  A    between atoms: C_15  and  C_16
REMARK    8  A    between atoms: C_16  and  N_17
REMARK                            x       y       z     vdW  Elec       q    Type
REMARK                         _______ _______ _______ _____ _____    ______ ____
ROOT
ATOM      1  C   UNL     1      33.809 -14.911 -24.048  0.00  0.00    +0.013 C 
ATOM      2  C   UNL     1      33.895 -14.699 -22.672  0.00  0.00    +0.135 C 
ATOM      3  C   UNL     1      34.272 -16.106 -24.600  0.00  0.00    +0.036 C 
ATOM      4  C   UNL     1      34.905 -16.877 -22.399  0.00  0.00    +0.062 C 
ATOM      5  C   UNL     1      34.819 -17.089 -23.775  0.00  0.00    +0.144 C 
ATOM      6  C   UNL     1      34.442 -15.682 -21.848  0.00  0.00    +0.046 C 
ENDROOT
BRANCH   2   7
ATOM      7  O   UNL     1      33.449 -13.537 -22.117  0.00  0.00    -0.472 OA
ATOM      8  C   UNL     1      32.279 -13.613 -21.305  0.00  0.00    +0.252 C 
ENDBRANCH   2   7
BRANCH   5   9
ATOM      9  O   UNL     1      35.261 -18.245 -24.348  0.00  0.00    -0.471 OA
ATOM     10  C   UNL     1      34.270 -19.129 -24.869  0.00  0.00    +0.252 C 
ENDBRANCH   5   9
BRANCH   4  11
ATOM     11  S   UNL     1      35.599 -18.113 -21.310  0.00  0.00    -0.111 S 
BRANCH  11  12
ATOM     12  C   UNL     1      34.171 -19.197 -21.033  0.00  0.00    +0.062 C 
BRANCH  12  13
ATOM     13  C   UNL     1      34.591 -20.454 -20.281  0.00  0.00    +0.012 C 
ATOM     14  C   UNL     1      33.384 -21.176 -19.701  0.00  0.00    +0.001 C 
ENDBRANCH  12  13
ENDBRANCH  11  12
ENDBRANCH   4  11
BRANCH   1  15
ATOM     15  C   UNL     1      33.228 -13.870 -24.946  0.00  0.00    +0.006 C 
BRANCH  15  16
ATOM     16  C   UNL     1      33.100 -14.364 -26.393  0.00  0.00    -0.081 C 
BRANCH  16  17
ATOM     17  N   UNL     1      33.491 -13.331 -27.348  0.00  0.00    +0.381 N 
ATOM     18  H   UNL     1      32.728 -13.172 -28.007  0.00  0.00    -0.089 HD
ATOM     19  H   UNL     1      34.321 -13.635 -27.856  0.00  0.00    -0.089 HD
ATOM     20  H   UNL     1      33.695 -12.466 -26.848  0.00  0.00    -0.089 HD
ENDBRANCH  16  17
ENDBRANCH  15  16
ENDBRANCH   1  15
TORSDOF 8
ENDMDL
MODEL 4
REMARK VINA RESULT:      -6.4      6.526      9.857
REMARK  Name = 24728635
REMARK  8 active torsions:
REMARK  status: ('A' for Active; 'I' for Inactive)
REMARK    1  A    between atoms: C_1  and  C_15
REMARK    2  A    between atoms: C_2  and  O_7
REMARK    3  A    between atoms: C_4  and  S_11
REMARK    4  A    between atoms: C_5  and  O_9
REMARK    5  A    between atoms: S_11  and  C_12
REMARK    6  A    between atoms: C_12  and  C_13
REMARK    7  A    between atoms: C_15  and  C_16
REMARK    8  A    between atoms: C_16  and  N_17
REMARK                            x       y       z     vdW  Elec       q    Type
REMARK                         _______ _______ _______ _____ _____    ______ ____
ROOT
ATOM      1  C   UNL     1      31.921 -23.321 -14.915  0.00  0.00    +0.013 C 
ATOM      2  C   UNL     1      31.225 -22.881 -16.042  0.00  0.00    +0.135 C 
ATOM      3  C   UNL     1      33.284 -23.605 -15.006  0.00  0.00    +0.036 C 
ATOM      4  C   UNL     1      33.253 -23.009 -17.347  0.00  0.00    +0.062 C 
ATOM      5  C   UNL     1      33.950 -23.449 -16.221  0.00  0.00    +0.144 C 
ATOM      6  C   UNL     1      31.891 -22.726 -17.256  0.00  0.00    +0.046 C 
ENDROOT
BRANCH   2   7
ATOM      7  O   UNL     1      29.893 -22.601 -15.970  0.00  0.00    -0.472 OA
ATOM      8  C   UNL     1      29.027 -23.350 -16.822  0.00  0.00    +0.252 C 
ENDBRANCH   2   7
BRANCH   5   9
ATOM      9  O   UNL     1      35.283 -23.735 -16.274  0.00  0.00    -0.471 OA
ATOM     10  C   UNL     1      35.834 -24.451 -15.171  0.00  0.00    +0.252 C 
ENDBRANCH   5   9
BRANCH   4  11
ATOM     11  S   UNL     1      34.072 -22.796 -18.922  0.00  0.00    -0.111 S 
BRANCH  11  12
ATOM     12  C   UNL     1      33.322 -21.255 -19.516  0.00  0.00    +0.062 C 
BRANCH  12  13
ATOM     13  C   UNL     1      34.333 -20.441 -20.315  0.00  0.00    +0.012 C 
ATOM     14  C   UNL     1      33.648 -19.325 -21.091  0.00  0.00    +0.001 C 
ENDBRANCH  12  13
ENDBRANCH  11  12
ENDBRANCH   4  11
BRANCH   1  15
ATOM     15  C   UNL     1      31.225 -23.496 -13.607  0.00  0.00    +0.006 C 
BRANCH  15  16
ATOM     16  C   UNL     1      30.874 -24.964 -13.332  0.00  0.00    -0.081 C 
BRANCH  16  17
ATOM     17  N   UNL     1      29.693 -25.381 -14.081  0.00  0.00    +0.381 N 
ATOM     18  H   UNL     1      29.177 -24.556 -14.389  0.00  0.00    -0.089 HD
ATOM     19  H   UNL     1      29.096 -25.952 -13.483  0.00  0.00    -0.089 HD
ATOM     20  H   UNL     1      29.981 -25.926 -14.894  0.00  0.00    -0.089 HD
ENDBRANCH  16  17
ENDBRANCH  15  16
ENDBRANCH   1  15
TORSDOF 8
ENDMDL
MODEL 5
REMARK VINA RESULT:      -6.4      4.516      8.252
REMARK  Name = 24728635
REMARK  8 active torsions:
REMARK  status: ('A' for Active; 'I' for Inactive)
REMARK    1  A    between atoms: C_1  and  C_15
REMARK    2  A    between atoms: C_2  and  O_7
REMARK    3  A    between atoms: C_4  and  S_11
REMARK    4  A    between atoms: C_5  and  O_9
REMARK    5  A    between atoms: S_11  and  C_12
REMARK    6  A    between atoms: C_12  and  C_13
REMARK    7  A    between atoms: C_15  and  C_16
REMARK    8  A    between atoms: C_16  and  N_17
REMARK                            x       y       z     vdW  Elec       q    Type
REMARK                         _______ _______ _______ _____ _____    ______ ____
ROOT
ATOM      1  C   UNL     1      32.613 -13.673 -21.917  0.00  0.00    +0.013 C 
ATOM      2  C   UNL     1      33.311 -13.367 -23.086  0.00  0.00    +0.135 C 
ATOM      3  C   UNL     1      31.898 -12.676 -21.252  0.00  0.00    +0.036 C 
ATOM      4  C   UNL     1      32.580 -11.071 -22.925  0.00  0.00    +0.062 C 
ATOM      5  C   UNL     1      31.881 -11.376 -21.756  0.00  0.00    +0.144 C 
ATOM      6  C   UNL     1      33.295 -12.067 -23.589  0.00  0.00    +0.046 C 
ENDROOT
BRANCH   2   7
ATOM      7  O   UNL     1      34.016 -14.329 -23.747  0.00  0.00    -0.472 OA
ATOM      8  C   UNL     1      33.418 -14.879 -24.919  0.00  0.00    +0.252 C 
ENDBRANCH   2   7
BRANCH   5   9
ATOM      9  O   UNL     1      31.172 -10.426 -21.081  0.00  0.00    -0.471 OA
ATOM     10  C   UNL     1      31.671 -10.032 -19.805  0.00  0.00    +0.252 C 
ENDBRANCH   5   9
BRANCH   4  11
ATOM     11  S   UNL     1      32.582  -9.416 -23.602  0.00  0.00    -0.111 S 
BRANCH  11  12
ATOM     12  C   UNL     1      34.350  -9.151 -23.908  0.00  0.00    +0.062 C 
BRANCH  12  13
ATOM     13  C   UNL     1      34.753  -7.733 -23.519  0.00  0.00    +0.012 C 
ATOM     14  C   UNL     1      34.373  -6.737 -24.604  0.00  0.00    +0.001 C 
ENDBRANCH  12  13
ENDBRANCH  11  12
ENDBRANCH   4  11
BRANCH   1  15
ATOM     15  C   UNL     1      32.621 -15.058 -21.363  0.00  0.00    +0.006 C 
BRANCH  15  16
ATOM     16  C   UNL     1      33.878 -15.338 -20.528  0.00  0.00    -0.081 C 
BRANCH  16  17
ATOM     17  N   UNL     1      34.845 -16.141 -21.269  0.00  0.00    +0.381 N 
ATOM     18  H   UNL     1      34.554 -16.208 -22.245  0.00  0.00    -0.089 HD
ATOM     19  H   UNL     1      34.892 -17.075 -20.863  0.00  0.00    -0.089 HD
ATOM     20  H   UNL     1      35.763 -15.701 -21.217  0.00  0.00    -0.089 HD
ENDBRANCH  16  17
ENDBRANCH  15  16
ENDBRANCH   1  15
TORSDOF 8
ENDMDL
MODEL 6
REMARK VINA RESULT:      -6.3      8.026     10.278
REMARK  Name = 24728635
REMARK  8 active torsions:
REMARK  status: ('A' for Active; 'I' for Inactive)
REMARK    1  A    between atoms: C_1  and  C_15
REMARK    2  A    between atoms: C_2  and  O_7
REMARK    3  A    between atoms: C_4  and  S_11
REMARK    4  A    between atoms: C_5  and  O_9
REMARK    5  A    between atoms: S_11  and  C_12
REMARK    6  A    between atoms: C_12  and  C_13
REMARK    7  A    between atoms: C_15  and  C_16
REMARK    8  A    between atoms: C_16  and  N_17
REMARK                            x       y       z     vdW  Elec       q    Type
REMARK                         _______ _______ _______ _____ _____    ______ ____
ROOT
ATOM      1  C   UNL     1      33.816 -23.385 -15.963  0.00  0.00    +0.013 C 
ATOM      2  C   UNL     1      33.272 -23.898 -14.785  0.00  0.00    +0.135 C 
ATOM      3  C   UNL     1      35.160 -23.013 -16.005  0.00  0.00    +0.036 C 
ATOM      4  C   UNL     1      35.413 -23.665 -13.692  0.00  0.00    +0.062 C 
ATOM      5  C   UNL     1      35.958 -23.154 -14.870  0.00  0.00    +0.144 C 
ATOM      6  C   UNL     1      34.070 -24.037 -13.650  0.00  0.00    +0.046 C 
ENDROOT
BRANCH   2   7
ATOM      7  O   UNL     1      31.960 -24.264 -14.726  0.00  0.00    -0.472 OA
ATOM      8  C   UNL     1      31.572 -25.112 -13.647  0.00  0.00    +0.252 C 
ENDBRANCH   2   7
BRANCH   5   9
ATOM      9  O   UNL     1      37.268 -22.780 -14.946  0.00  0.00    -0.471 OA
ATOM     10  C   UNL     1      37.765 -22.422 -16.234  0.00  0.00    +0.252 C 
ENDBRANCH   5   9
BRANCH   4  11
ATOM     11  S   UNL     1      36.405 -23.861 -12.217  0.00  0.00    -0.111 S 
BRANCH  11  12
ATOM     12  C   UNL     1      36.935 -25.589 -12.362  0.00  0.00    +0.062 C 
BRANCH  12  13
ATOM     13  C   UNL     1      38.224 -25.687 -13.170  0.00  0.00    +0.012 C 
ATOM     14  C   UNL     1      37.967 -26.299 -14.540  0.00  0.00    +0.001 C 
ENDBRANCH  12  13
ENDBRANCH  11  12
ENDBRANCH   4  11
BRANCH   1  15
ATOM     15  C   UNL     1      32.977 -23.227 -17.186  0.00  0.00    +0.006 C 
BRANCH  15  16
ATOM     16  C   UNL     1      33.789 -22.703 -18.378  0.00  0.00    -0.081 C 
BRANCH  16  17
ATOM     17  N   UNL     1      32.946 -21.977 -19.323  0.00  0.00    +0.381 N 
ATOM     18  H   UNL     1      32.061 -22.472 -19.438  0.00  0.00    -0.089 HD
ATOM     19  H   UNL     1      33.421 -21.917 -20.224  0.00  0.00    -0.089 HD
ATOM     20  H   UNL     1      32.768 -21.039 -18.968  0.00  0.00    -0.089 HD
ENDBRANCH  16  17
ENDBRANCH  15  16
ENDBRANCH   1  15
TORSDOF 8
ENDMDL
MODEL 7
REMARK VINA RESULT:      -6.3      2.980      6.413
REMARK  Name = 24728635
REMARK  8 active torsions:
REMARK  status: ('A' for Active; 'I' for Inactive)
REMARK    1  A    between atoms: C_1  and  C_15
REMARK    2  A    between atoms: C_2  and  O_7
REMARK    3  A    between atoms: C_4  and  S_11
REMARK    4  A    between atoms: C_5  and  O_9
REMARK    5  A    between atoms: S_11  and  C_12
REMARK    6  A    between atoms: C_12  and  C_13
REMARK    7  A    between atoms: C_15  and  C_16
REMARK    8  A    between atoms: C_16  and  N_17
REMARK                            x       y       z     vdW  Elec       q    Type
REMARK                         _______ _______ _______ _____ _____    ______ ____
ROOT
ATOM      1  C   UNL     1      35.293 -17.392 -21.957  0.00  0.00    +0.013 C 
ATOM      2  C   UNL     1      35.104 -17.438 -23.339  0.00  0.00    +0.135 C 
ATOM      3  C   UNL     1      34.837 -16.293 -21.228  0.00  0.00    +0.036 C 
ATOM      4  C   UNL     1      34.004 -15.288 -23.262  0.00  0.00    +0.062 C 
ATOM      5  C   UNL     1      34.193 -15.242 -21.880  0.00  0.00    +0.144 C 
ATOM      6  C   UNL     1      34.460 -16.387 -23.990  0.00  0.00    +0.046 C 
ENDROOT
BRANCH   2   7
ATOM      7  O   UNL     1      35.544 -18.503 -24.066  0.00  0.00    -0.472 OA
ATOM      8  C   UNL     1      34.560 -19.256 -24.773  0.00  0.00    +0.252 C 
ENDBRANCH   2   7
BRANCH   5   9
ATOM      9  O   UNL     1      33.760 -14.183 -21.137  0.00  0.00    -0.471 OA
ATOM     10  C   UNL     1      32.566 -14.370 -20.380  0.00  0.00    +0.252 C 
ENDBRANCH   5   9
BRANCH   4  11
ATOM     11  S   UNL     1      33.182 -13.962 -24.133  0.00  0.00    -0.111 S 
BRANCH  11  12
ATOM     12  C   UNL     1      33.043 -14.654 -25.803  0.00  0.00    +0.062 C 
BRANCH  12  13
ATOM     13  C   UNL     1      33.210 -13.560 -26.852  0.00  0.00    +0.012 C 
ATOM     14  C   UNL     1      33.727 -12.274 -26.224  0.00  0.00    +0.001 C 
ENDBRANCH  12  13
ENDBRANCH  11  12
ENDBRANCH   4  11
BRANCH   1  15
ATOM     15  C   UNL     1      35.982 -18.506 -21.243  0.00  0.00    +0.006 C 
BRANCH  15  16
ATOM     16  C   UNL     1      35.007 -19.620 -20.838  0.00  0.00    -0.081 C 
BRANCH  16  17
ATOM     17  N   UNL     1      35.604 -20.525 -19.862  0.00  0.00    +0.381 N 
ATOM     18  H   UNL     1      35.444 -21.490 -20.151  0.00  0.00    -0.089 HD
ATOM     19  H   UNL     1      35.176 -20.370 -18.949  0.00  0.00    -0.089 HD
ATOM     20  H   UNL     1      36.606 -20.349 -19.803  0.00  0.00    -0.089 HD
ENDBRANCH  16  17
ENDBRANCH  15  16
ENDBRANCH   1  15
TORSDOF 8
ENDMDL
MODEL 8
REMARK VINA RESULT:      -6.2      3.307      5.441
REMARK  Name = 24728635
REMARK  8 active torsions:
REMARK  status: ('A' for Active; 'I' for Inactive)
REMARK    1  A    between atoms: C_1  and  C_15
REMARK    2  A    between atoms: C_2  and  O_7
REMARK    3  A    between atoms: C_4  and  S_11
REMARK    4  A    between atoms: C_5  and  O_9
REMARK    5  A    between atoms: S_11  and  C_12
REMARK    6  A    between atoms: C_12  and  C_13
REMARK    7  A    between atoms: C_15  and  C_16
REMARK    8  A    between atoms: C_16  and  N_17
REMARK                            x       y       z     vdW  Elec       q    Type
REMARK                         _______ _______ _______ _____ _____    ______ ____
ROOT
ATOM      1  C   UNL     1      32.254 -11.319 -22.210  0.00  0.00    +0.013 C 
ATOM      2  C   UNL     1      32.987 -11.235 -23.395  0.00  0.00    +0.135 C 
ATOM      3  C   UNL     1      31.952 -12.568 -21.666  0.00  0.00    +0.036 C 
ATOM      4  C   UNL     1      33.113 -13.645 -23.490  0.00  0.00    +0.062 C 
ATOM      5  C   UNL     1      32.382 -13.730 -22.305  0.00  0.00    +0.144 C 
ATOM      6  C   UNL     1      33.416 -12.397 -24.034  0.00  0.00    +0.046 C 
ENDROOT
BRANCH   2   7
ATOM      7  O   UNL     1      33.290 -10.024 -23.941  0.00  0.00    -0.472 OA
ATOM      8  C   UNL     1      34.660  -9.777 -24.251  0.00  0.00    +0.252 C 
ENDBRANCH   2   7
BRANCH   5   9
ATOM      9  O   UNL     1      32.068 -14.934 -21.745  0.00  0.00    -0.471 OA
ATOM     10  C   UNL     1      32.634 -15.219 -20.467  0.00  0.00    +0.252 C 
ENDBRANCH   5   9
BRANCH   4  11
ATOM     11  S   UNL     1      33.682 -15.113 -24.338  0.00  0.00    -0.111 S 
BRANCH  11  12
ATOM     12  C   UNL     1      35.026 -15.663 -23.250  0.00  0.00    +0.062 C 
BRANCH  12  13
ATOM     13  C   UNL     1      34.903 -17.155 -22.962  0.00  0.00    +0.012 C 
ATOM     14  C   UNL     1      34.941 -17.967 -24.248  0.00  0.00    +0.001 C 
ENDBRANCH  12  13
ENDBRANCH  11  12
ENDBRANCH   4  11
BRANCH   1  15
ATOM     15  C   UNL     1      31.785 -10.086 -21.513  0.00  0.00    +0.006 C 
BRANCH  15  16
ATOM     16  C   UNL     1      31.667 -10.291 -19.997  0.00  0.00    -0.081 C 
BRANCH  16  17
ATOM     17  N   UNL     1      32.506  -9.351 -19.262  0.00  0.00    +0.381 N 
ATOM     18  H   UNL     1      31.991  -8.483 -19.110  0.00  0.00    -0.089 HD
ATOM     19  H   UNL     1      33.349  -9.155 -19.802  0.00  0.00    -0.089 HD
ATOM     20  H   UNL     1      32.765  -9.756 -18.363  0.00  0.00    -0.089 HD
ENDBRANCH  16  17
ENDBRANCH  15  16
ENDBRANCH   1  15
TORSDOF 8
ENDMDL
MODEL 9
REMARK VINA RESULT:      -6.2      6.148      9.516
REMARK  Name = 24728635
REMARK  8 active torsions:
REMARK  status: ('A' for Active; 'I' for Inactive)
REMARK    1  A    between atoms: C_1  and  C_15
REMARK    2  A    between atoms: C_2  and  O_7
REMARK    3  A    between atoms: C_4  and  S_11
REMARK    4  A    between atoms: C_5  and  O_9
REMARK    5  A    between atoms: S_11  and  C_12
REMARK    6  A    between atoms: C_12  and  C_13
REMARK    7  A    between atoms: C_15  and  C_16
REMARK    8  A    between atoms: C_16  and  N_17
REMARK                            x       y       z     vdW  Elec       q    Type
REMARK                         _______ _______ _______ _____ _____    ______ ____
ROOT
ATOM      1  C   UNL     1      33.644 -23.466 -15.103  0.00  0.00    +0.013 C 
ATOM      2  C   UNL     1      32.569 -23.439 -15.992  0.00  0.00    +0.135 C 
ATOM      3  C   UNL     1      34.923 -23.124 -15.544  0.00  0.00    +0.036 C 
ATOM      4  C   UNL     1      34.051 -22.728 -17.762  0.00  0.00    +0.062 C 
ATOM      5  C   UNL     1      35.126 -22.754 -16.873  0.00  0.00    +0.144 C 
ATOM      6  C   UNL     1      32.773 -23.070 -17.321  0.00  0.00    +0.046 C 
ENDROOT
BRANCH   2   7
ATOM      7  O   UNL     1      31.315 -23.772 -15.578  0.00  0.00    -0.472 OA
ATOM      8  C   UNL     1      30.227 -23.063 -16.169  0.00  0.00    +0.252 C 
ENDBRANCH   2   7
BRANCH   5   9
ATOM      9  O   UNL     1      36.389 -22.425 -17.270  0.00  0.00    -0.471 OA
ATOM     10  C   UNL     1      37.332 -22.125 -16.244  0.00  0.00    +0.252 C 
ENDBRANCH   5   9
BRANCH   4  11
ATOM     11  S   UNL     1      34.272 -22.259 -19.473  0.00  0.00    -0.111 S 
BRANCH  11  12
ATOM     12  C   UNL     1      33.047 -20.932 -19.648  0.00  0.00    +0.062 C 
BRANCH  12  13
ATOM     13  C   UNL     1      33.470 -19.954 -20.737  0.00  0.00    +0.012 C 
ATOM     14  C   UNL     1      34.985 -19.830 -20.806  0.00  0.00    +0.001 C 
ENDBRANCH  12  13
ENDBRANCH  11  12
ENDBRANCH   4  11
BRANCH   1  15
ATOM     15  C   UNL     1      33.445 -23.860 -13.677  0.00  0.00    +0.006 C 
BRANCH  15  16
ATOM     16  C   UNL     1      34.732 -24.412 -13.047  0.00  0.00    -0.081 C 
BRANCH  16  17
ATOM     17  N   UNL     1      35.215 -23.548 -11.974  0.00  0.00    +0.381 N 
ATOM     18  H   UNL     1      34.426 -23.058 -11.552  0.00  0.00    -0.089 HD
ATOM     19  H   UNL     1      35.872 -22.869 -12.356  0.00  0.00    -0.089 HD
ATOM     20  H   UNL     1      35.683 -24.114 -11.268  0.00  0.00    -0.089 HD
ENDBRANCH  16  17
ENDBRANCH  15  16
ENDBRANCH   1  15
TORSDOF 8
ENDMDL
