MODEL 1
REMARK VINA RESULT:      -7.7      0.000      0.000
REMARK  Name = 2148
REMARK  5 active torsions:
REMARK  status: ('A' for Active; 'I' for Inactive)
REMARK    1  A    between atoms: C_1  and  C_9
REMARK    2  A    between atoms: C_4  and  N_16
REMARK    3  A    between atoms: N_8  and  C_11
REMARK    4  A    between atoms: C_11  and  C_13
REMARK    5  A    between atoms: C_13  and  O_14
REMARK                            x       y       z     vdW  Elec       q    Type
REMARK                         _______ _______ _______ _____ _____    ______ ____
ROOT
ATOM      1  C   UNL     1      34.785 -19.486 -21.193  0.00  0.00    +0.053 C 
ATOM      2  C   UNL     1      33.399 -19.502 -21.036  0.00  0.00    +0.006 C 
ATOM      3  C   UNL     1      35.575 -20.416 -20.517  0.00  0.00    +0.006 C 
ATOM      4  C   UNL     1      33.593 -21.379 -19.526  0.00  0.00    +0.042 C 
ATOM      5  C   UNL     1      32.803 -20.449 -20.202  0.00  0.00    +0.014 C 
ATOM      6  C   UNL     1      34.978 -21.363 -19.683  0.00  0.00    +0.014 C 
ENDROOT
BRANCH   1   9
ATOM      7  O   UNL     1      36.647 -18.403 -22.121  0.00  0.00    -0.270 OA
ATOM      8  N   UNL     1      34.553 -17.703 -22.833  0.00  0.00    -0.291 N 
ATOM      9  C   UNL     1      35.407 -18.501 -22.063  0.00  0.00    +0.246 C 
ATOM     10  H   UNL     1      33.582 -17.834 -22.738  0.00  0.00    +0.150 HD
BRANCH   8  11
ATOM     11  C   UNL     1      35.020 -16.697 -23.761  0.00  0.00    +0.201 C 
BRANCH  11  13
ATOM     12  O   UNL     1      34.225 -16.018 -25.929  0.00  0.00    -0.248 OA
ATOM     13  C   UNL     1      34.534 -16.928 -25.169  0.00  0.00    +0.334 C 
BRANCH  13  14
ATOM     14  O   UNL     1      34.471 -18.235 -25.512  0.00  0.00    -0.479 OA
ATOM     15  H   UNL     1      33.816 -18.532 -26.111  0.00  0.00    +0.295 HD
ENDBRANCH  13  14
ENDBRANCH  11  13
ENDBRANCH   8  11
ENDBRANCH   1   9
BRANCH   4  16
ATOM     16  N   UNL     1      32.990 -22.336 -18.684  0.00  0.00    -0.357 N 
ATOM     17  H   UNL     1      32.877 -22.147 -17.724  0.00  0.00    +0.142 HD
ATOM     18  H   UNL     1      32.683 -23.194 -19.055  0.00  0.00    +0.142 HD
ENDBRANCH   4  16
TORSDOF 5
ENDMDL
MODEL 2
REMARK VINA RESULT:      -7.7      0.005      1.291
REMARK  Name = 2148
REMARK  5 active torsions:
REMARK  status: ('A' for Active; 'I' for Inactive)
REMARK    1  A    between atoms: C_1  and  C_9
REMARK    2  A    between atoms: C_4  and  N_16
REMARK    3  A    between atoms: N_8  and  C_11
REMARK    4  A    between atoms: C_11  and  C_13
REMARK    5  A    between atoms: C_13  and  O_14
REMARK                            x       y       z     vdW  Elec       q    Type
REMARK                         _______ _______ _______ _____ _____    ______ ____
ROOT
ATOM      1  C   UNL     1      34.785 -19.488 -21.192  0.00  0.00    +0.053 C 
ATOM      2  C   UNL     1      35.575 -20.419 -20.517  0.00  0.00    +0.006 C 
ATOM      3  C   UNL     1      33.399 -19.502 -21.034  0.00  0.00    +0.006 C 
ATOM      4  C   UNL     1      33.592 -21.380 -19.526  0.00  0.00    +0.042 C 
ATOM      5  C   UNL     1      34.978 -21.365 -19.684  0.00  0.00    +0.014 C 
ATOM      6  C   UNL     1      32.803 -20.449 -20.200  0.00  0.00    +0.014 C 
ENDROOT
BRANCH   1   9
ATOM      7  O   UNL     1      36.646 -18.396 -22.113  0.00  0.00    -0.270 OA
ATOM      8  N   UNL     1      34.553 -17.707 -22.835  0.00  0.00    -0.291 N 
ATOM      9  C   UNL     1      35.407 -18.500 -22.060  0.00  0.00    +0.246 C 
ATOM     10  H   UNL     1      33.582 -17.842 -22.744  0.00  0.00    +0.150 HD
BRANCH   8  11
ATOM     11  C   UNL     1      35.019 -16.700 -23.762  0.00  0.00    +0.201 C 
BRANCH  11  13
ATOM     12  O   UNL     1      34.231 -16.024 -25.934  0.00  0.00    -0.248 OA
ATOM     13  C   UNL     1      34.537 -16.932 -25.171  0.00  0.00    +0.334 C 
BRANCH  13  14
ATOM     14  O   UNL     1      34.475 -18.240 -25.513  0.00  0.00    -0.479 OA
ATOM     15  H   UNL     1      35.207 -18.802 -25.355  0.00  0.00    +0.295 HD
ENDBRANCH  13  14
ENDBRANCH  11  13
ENDBRANCH   8  11
ENDBRANCH   1   9
BRANCH   4  16
ATOM     16  N   UNL     1      32.989 -22.336 -18.682  0.00  0.00    -0.357 N 
ATOM     17  H   UNL     1      33.338 -23.256 -18.651  0.00  0.00    +0.142 HD
ATOM     18  H   UNL     1      32.217 -22.084 -18.125  0.00  0.00    +0.142 HD
ENDBRANCH   4  16
TORSDOF 5
ENDMDL
MODEL 3
REMARK VINA RESULT:      -7.4      4.604      7.244
REMARK  Name = 2148
REMARK  5 active torsions:
REMARK  status: ('A' for Active; 'I' for Inactive)
REMARK    1  A    between atoms: C_1  and  C_9
REMARK    2  A    between atoms: C_4  and  N_16
REMARK    3  A    between atoms: N_8  and  C_11
REMARK    4  A    between atoms: C_11  and  C_13
REMARK    5  A    between atoms: C_13  and  O_14
REMARK                            x       y       z     vdW  Elec       q    Type
REMARK                         _______ _______ _______ _____ _____    ______ ____
ROOT
ATOM      1  C   UNL     1      34.025 -21.658 -19.409  0.00  0.00    +0.053 C 
ATOM      2  C   UNL     1      35.412 -21.570 -19.521  0.00  0.00    +0.006 C 
ATOM      3  C   UNL     1      33.211 -20.726 -20.054  0.00  0.00    +0.006 C 
ATOM      4  C   UNL     1      35.174 -19.618 -20.926  0.00  0.00    +0.042 C 
ATOM      5  C   UNL     1      35.987 -20.550 -20.280  0.00  0.00    +0.014 C 
ATOM      6  C   UNL     1      33.787 -19.707 -20.814  0.00  0.00    +0.014 C 
ENDROOT
BRANCH   1   9
ATOM      7  O   UNL     1      33.821 -23.895 -18.735  0.00  0.00    -0.270 OA
ATOM      8  N   UNL     1      32.415 -22.354 -17.721  0.00  0.00    -0.291 N 
ATOM      9  C   UNL     1      33.425 -22.721 -18.619  0.00  0.00    +0.246 C 
ATOM     10  H   UNL     1      32.151 -21.407 -17.680  0.00  0.00    +0.150 HD
BRANCH   8  11
ATOM     11  C   UNL     1      31.741 -23.291 -16.851  0.00  0.00    +0.201 C 
BRANCH  11  13
ATOM     12  O   UNL     1      29.497 -22.453 -17.094  0.00  0.00    -0.248 OA
ATOM     13  C   UNL     1      30.415 -22.777 -16.350  0.00  0.00    +0.334 C 
BRANCH  13  14
ATOM     14  O   UNL     1      30.337 -22.707 -15.001  0.00  0.00    -0.479 OA
ATOM     15  H   UNL     1      29.503 -22.744 -14.577  0.00  0.00    +0.295 HD
ENDBRANCH  13  14
ENDBRANCH  11  13
ENDBRANCH   8  11
ENDBRANCH   1   9
BRANCH   4  16
ATOM     16  N   UNL     1      35.755 -18.588 -21.694  0.00  0.00    -0.357 N 
ATOM     17  H   UNL     1      36.523 -18.083 -21.341  0.00  0.00    +0.142 HD
ATOM     18  H   UNL     1      35.393 -18.373 -22.584  0.00  0.00    +0.142 HD
ENDBRANCH   4  16
TORSDOF 5
ENDMDL
MODEL 4
REMARK VINA RESULT:      -7.3      1.744      2.176
REMARK  Name = 2148
REMARK  5 active torsions:
REMARK  status: ('A' for Active; 'I' for Inactive)
REMARK    1  A    between atoms: C_1  and  C_9
REMARK    2  A    between atoms: C_4  and  N_16
REMARK    3  A    between atoms: N_8  and  C_11
REMARK    4  A    between atoms: C_11  and  C_13
REMARK    5  A    between atoms: C_13  and  O_14
REMARK                            x       y       z     vdW  Elec       q    Type
REMARK                         _______ _______ _______ _____ _____    ______ ____
ROOT
ATOM      1  C   UNL     1      34.748 -19.333 -21.085  0.00  0.00    +0.053 C 
ATOM      2  C   UNL     1      33.365 -19.435 -20.943  0.00  0.00    +0.006 C 
ATOM      3  C   UNL     1      35.583 -20.272 -20.479  0.00  0.00    +0.006 C 
ATOM      4  C   UNL     1      33.650 -21.416 -19.589  0.00  0.00    +0.042 C 
ATOM      5  C   UNL     1      32.815 -20.476 -20.195  0.00  0.00    +0.014 C 
ATOM      6  C   UNL     1      35.033 -21.314 -19.731  0.00  0.00    +0.014 C 
ENDROOT
BRANCH   1   9
ATOM      7  O   UNL     1      36.499 -18.311 -22.265  0.00  0.00    -0.270 OA
ATOM      8  N   UNL     1      34.486 -17.163 -22.156  0.00  0.00    -0.291 N 
ATOM      9  C   UNL     1      35.322 -18.248 -21.865  0.00  0.00    +0.246 C 
ATOM     10  H   UNL     1      33.566 -17.178 -21.808  0.00  0.00    +0.150 HD
BRANCH   8  11
ATOM     11  C   UNL     1      34.902 -16.022 -22.940  0.00  0.00    +0.201 C 
BRANCH  11  13
ATOM     12  O   UNL     1      34.278 -14.569 -21.125  0.00  0.00    -0.248 OA
ATOM     13  C   UNL     1      34.500 -14.708 -22.322  0.00  0.00    +0.334 C 
BRANCH  13  14
ATOM     14  O   UNL     1      34.406 -13.696 -23.216  0.00  0.00    -0.479 OA
ATOM     15  H   UNL     1      33.890 -12.940 -23.017  0.00  0.00    +0.295 HD
ENDBRANCH  13  14
ENDBRANCH  11  13
ENDBRANCH   8  11
ENDBRANCH   1   9
BRANCH   4  16
ATOM     16  N   UNL     1      33.094 -22.469 -18.834  0.00  0.00    -0.357 N 
ATOM     17  H   UNL     1      32.137 -22.459 -18.604  0.00  0.00    +0.142 HD
ATOM     18  H   UNL     1      33.664 -23.214 -18.536  0.00  0.00    +0.142 HD
ENDBRANCH   4  16
TORSDOF 5
ENDMDL
MODEL 5
REMARK VINA RESULT:      -7.2      2.932      5.919
REMARK  Name = 2148
REMARK  5 active torsions:
REMARK  status: ('A' for Active; 'I' for Inactive)
REMARK    1  A    between atoms: C_1  and  C_9
REMARK    2  A    between atoms: C_4  and  N_16
REMARK    3  A    between atoms: N_8  and  C_11
REMARK    4  A    between atoms: C_11  and  C_13
REMARK    5  A    between atoms: C_13  and  O_14
REMARK                            x       y       z     vdW  Elec       q    Type
REMARK                         _______ _______ _______ _____ _____    ______ ____
ROOT
ATOM      1  C   UNL     1      35.301 -18.733 -22.074  0.00  0.00    +0.053 C 
ATOM      2  C   UNL     1      34.912 -19.337 -23.269  0.00  0.00    +0.006 C 
ATOM      3  C   UNL     1      35.355 -17.343 -21.979  0.00  0.00    +0.006 C 
ATOM      4  C   UNL     1      34.629 -17.160 -24.277  0.00  0.00    +0.042 C 
ATOM      5  C   UNL     1      34.576 -18.551 -24.370  0.00  0.00    +0.014 C 
ATOM      6  C   UNL     1      35.018 -16.556 -23.082  0.00  0.00    +0.014 C 
ENDROOT
BRANCH   1   9
ATOM      7  O   UNL     1      36.695 -19.330 -20.284  0.00  0.00    -0.270 OA
ATOM      8  N   UNL     1      34.755 -20.569 -20.572  0.00  0.00    -0.291 N 
ATOM      9  C   UNL     1      35.651 -19.553 -20.925  0.00  0.00    +0.246 C 
ATOM     10  H   UNL     1      33.949 -20.690 -21.122  0.00  0.00    +0.150 HD
BRANCH   8  11
ATOM     11  C   UNL     1      34.951 -21.450 -19.442  0.00  0.00    +0.201 C 
BRANCH  11  13
ATOM     12  O   UNL     1      33.985 -23.654 -19.385  0.00  0.00    -0.248 OA
ATOM     13  C   UNL     1      33.831 -22.444 -19.273  0.00  0.00    +0.334 C 
BRANCH  13  14
ATOM     14  O   UNL     1      32.639 -21.871 -18.986  0.00  0.00    -0.479 OA
ATOM     15  H   UNL     1      32.341 -21.134 -19.481  0.00  0.00    +0.295 HD
ENDBRANCH  13  14
ENDBRANCH  11  13
ENDBRANCH   8  11
ENDBRANCH   1   9
BRANCH   4  16
ATOM     16  N   UNL     1      34.288 -16.364 -25.390  0.00  0.00    -0.357 N 
ATOM     17  H   UNL     1      34.399 -15.387 -25.351  0.00  0.00    +0.142 HD
ATOM     18  H   UNL     1      33.937 -16.786 -26.207  0.00  0.00    +0.142 HD
ENDBRANCH   4  16
TORSDOF 5
ENDMDL
MODEL 6
REMARK VINA RESULT:      -7.1      4.239      7.372
REMARK  Name = 2148
REMARK  5 active torsions:
REMARK  status: ('A' for Active; 'I' for Inactive)
REMARK    1  A    between atoms: C_1  and  C_9
REMARK    2  A    between atoms: C_4  and  N_16
REMARK    3  A    between atoms: N_8  and  C_11
REMARK    4  A    between atoms: C_11  and  C_13
REMARK    5  A    between atoms: C_13  and  O_14
REMARK                            x       y       z     vdW  Elec       q    Type
REMARK                         _______ _______ _______ _____ _____    ______ ____
ROOT
ATOM      1  C   UNL     1      34.201 -21.452 -19.704  0.00  0.00    +0.053 C 
ATOM      2  C   UNL     1      35.491 -21.045 -20.043  0.00  0.00    +0.006 C 
ATOM      3  C   UNL     1      33.101 -20.695 -20.106  0.00  0.00    +0.006 C 
ATOM      4  C   UNL     1      34.582 -19.121 -21.189  0.00  0.00    +0.042 C 
ATOM      5  C   UNL     1      35.681 -19.880 -20.786  0.00  0.00    +0.014 C 
ATOM      6  C   UNL     1      33.293 -19.529 -20.850  0.00  0.00    +0.014 C 
ENDROOT
BRANCH   1   9
ATOM      7  O   UNL     1      33.993 -23.779 -19.491  0.00  0.00    -0.270 OA
ATOM      8  N   UNL     1      33.849 -22.523 -17.547  0.00  0.00    -0.291 N 
ATOM      9  C   UNL     1      34.002 -22.667 -18.930  0.00  0.00    +0.246 C 
ATOM     10  H   UNL     1      33.866 -21.614 -17.169  0.00  0.00    +0.150 HD
BRANCH   8  11
ATOM     11  C   UNL     1      33.667 -23.636 -16.642  0.00  0.00    +0.201 C 
BRANCH  11  13
ATOM     12  O   UNL     1      35.660 -24.610 -15.708  0.00  0.00    -0.248 OA
ATOM     13  C   UNL     1      34.780 -23.761 -15.634  0.00  0.00    +0.334 C 
BRANCH  13  14
ATOM     14  O   UNL     1      34.715 -22.846 -14.640  0.00  0.00    -0.479 OA
ATOM     15  H   UNL     1      33.896 -22.447 -14.422  0.00  0.00    +0.295 HD
ENDBRANCH  13  14
ENDBRANCH  11  13
ENDBRANCH   8  11
ENDBRANCH   1   9
BRANCH   4  16
ATOM     16  N   UNL     1      34.774 -17.944 -21.941  0.00  0.00    -0.357 N 
ATOM     17  H   UNL     1      33.998 -17.444 -22.281  0.00  0.00    +0.142 HD
ATOM     18  H   UNL     1      35.686 -17.623 -22.127  0.00  0.00    +0.142 HD
ENDBRANCH   4  16
TORSDOF 5
ENDMDL
MODEL 7
REMARK VINA RESULT:      -7.0      8.220     10.559
REMARK  Name = 2148
REMARK  5 active torsions:
REMARK  status: ('A' for Active; 'I' for Inactive)
REMARK    1  A    between atoms: C_1  and  C_9
REMARK    2  A    between atoms: C_4  and  N_16
REMARK    3  A    between atoms: N_8  and  C_11
REMARK    4  A    between atoms: C_11  and  C_13
REMARK    5  A    between atoms: C_13  and  O_14
REMARK                            x       y       z     vdW  Elec       q    Type
REMARK                         _______ _______ _______ _____ _____    ______ ____
ROOT
ATOM      1  C   UNL     1      33.370 -23.573 -14.979  0.00  0.00    +0.053 C 
ATOM      2  C   UNL     1      32.200 -23.451 -14.230  0.00  0.00    +0.006 C 
ATOM      3  C   UNL     1      33.337 -23.387 -16.361  0.00  0.00    +0.006 C 
ATOM      4  C   UNL     1      30.962 -22.954 -16.245  0.00  0.00    +0.042 C 
ATOM      5  C   UNL     1      30.996 -23.141 -14.863  0.00  0.00    +0.014 C 
ATOM      6  C   UNL     1      32.132 -23.077 -16.994  0.00  0.00    +0.014 C 
ENDROOT
BRANCH   1   9
ATOM      7  O   UNL     1      35.499 -24.554 -14.913  0.00  0.00    -0.270 OA
ATOM      8  N   UNL     1      34.803 -23.410 -13.019  0.00  0.00    -0.291 N 
ATOM      9  C   UNL     1      34.626 -23.895 -14.320  0.00  0.00    +0.246 C 
ATOM     10  H   UNL     1      34.071 -22.895 -12.611  0.00  0.00    +0.150 HD
BRANCH   8  11
ATOM     11  C   UNL     1      36.004 -23.626 -12.243  0.00  0.00    +0.201 C 
BRANCH  11  13
ATOM     12  O   UNL     1      35.279 -24.968 -10.382  0.00  0.00    -0.248 OA
ATOM     13  C   UNL     1      35.945 -24.877 -11.406  0.00  0.00    +0.334 C 
BRANCH  13  14
ATOM     14  O   UNL     1      36.697 -25.890 -11.894  0.00  0.00    -0.479 OA
ATOM     15  H   UNL     1      36.607 -26.154 -12.788  0.00  0.00    +0.295 HD
ENDBRANCH  13  14
ENDBRANCH  11  13
ENDBRANCH   8  11
ENDBRANCH   1   9
BRANCH   4  16
ATOM     16  N   UNL     1      29.745 -22.640 -16.884  0.00  0.00    -0.357 N 
ATOM     17  H   UNL     1      29.406 -23.215 -17.608  0.00  0.00    +0.142 HD
ATOM     18  H   UNL     1      29.235 -21.845 -16.608  0.00  0.00    +0.142 HD
ENDBRANCH   4  16
TORSDOF 5
ENDMDL
MODEL 8
REMARK VINA RESULT:      -7.0      2.600      4.011
REMARK  Name = 2148
REMARK  5 active torsions:
REMARK  status: ('A' for Active; 'I' for Inactive)
REMARK    1  A    between atoms: C_1  and  C_9
REMARK    2  A    between atoms: C_4  and  N_16
REMARK    3  A    between atoms: N_8  and  C_11
REMARK    4  A    between atoms: C_11  and  C_13
REMARK    5  A    between atoms: C_13  and  O_14
REMARK                            x       y       z     vdW  Elec       q    Type
REMARK                         _______ _______ _______ _____ _____    ______ ____
ROOT
ATOM      1  C   UNL     1      34.660 -17.140 -23.565  0.00  0.00    +0.053 C 
ATOM      2  C   UNL     1      34.900 -16.608 -22.299  0.00  0.00    +0.006 C 
ATOM      3  C   UNL     1      34.741 -18.517 -23.771  0.00  0.00    +0.006 C 
ATOM      4  C   UNL     1      35.303 -18.832 -21.442  0.00  0.00    +0.042 C 
ATOM      5  C   UNL     1      35.222 -17.454 -21.237  0.00  0.00    +0.014 C 
ATOM      6  C   UNL     1      35.063 -19.363 -22.708  0.00  0.00    +0.014 C 
ENDROOT
BRANCH   1   9
ATOM      7  O   UNL     1      34.635 -16.563 -25.839  0.00  0.00    -0.270 OA
ATOM      8  N   UNL     1      33.624 -15.087 -24.363  0.00  0.00    -0.291 N 
ATOM      9  C   UNL     1      34.324 -16.259 -24.672  0.00  0.00    +0.246 C 
ATOM     10  H   UNL     1      33.409 -14.909 -23.419  0.00  0.00    +0.150 HD
BRANCH   8  11
ATOM     11  C   UNL     1      33.198 -14.125 -25.354  0.00  0.00    +0.201 C 
BRANCH  11  13
ATOM     12  O   UNL     1      33.695 -11.835 -25.907  0.00  0.00    -0.248 OA
ATOM     13  C   UNL     1      33.699 -12.732 -25.072  0.00  0.00    +0.334 C 
BRANCH  13  14
ATOM     14  O   UNL     1      34.155 -12.567 -23.809  0.00  0.00    -0.479 OA
ATOM     15  H   UNL     1      33.830 -11.865 -23.280  0.00  0.00    +0.295 HD
ENDBRANCH  13  14
ENDBRANCH  11  13
ENDBRANCH   8  11
ENDBRANCH   1   9
BRANCH   4  16
ATOM     16  N   UNL     1      35.627 -19.686 -20.368  0.00  0.00    -0.357 N 
ATOM     17  H   UNL     1      35.180 -19.576 -19.498  0.00  0.00    +0.142 HD
ATOM     18  H   UNL     1      36.301 -20.393 -20.489  0.00  0.00    +0.142 HD
ENDBRANCH   4  16
TORSDOF 5
ENDMDL
MODEL 9
REMARK VINA RESULT:      -7.0      7.808      9.642
REMARK  Name = 2148
REMARK  5 active torsions:
REMARK  status: ('A' for Active; 'I' for Inactive)
REMARK    1  A    between atoms: C_1  and  C_9
REMARK    2  A    between atoms: C_4  and  N_16
REMARK    3  A    between atoms: N_8  and  C_11
REMARK    4  A    between atoms: C_11  and  C_13
REMARK    5  A    between atoms: C_13  and  O_14
REMARK                            x       y       z     vdW  Elec       q    Type
REMARK                         _______ _______ _______ _____ _____    ______ ____
ROOT
ATOM      1  C   UNL     1      33.197 -23.452 -15.673  0.00  0.00    +0.053 C 
ATOM      2  C   UNL     1      32.649 -23.397 -14.392  0.00  0.00    +0.006 C 
ATOM      3  C   UNL     1      32.394 -23.203 -16.787  0.00  0.00    +0.006 C 
ATOM      4  C   UNL     1      30.495 -22.844 -15.337  0.00  0.00    +0.042 C 
ATOM      5  C   UNL     1      31.298 -23.094 -14.224  0.00  0.00    +0.014 C 
ATOM      6  C   UNL     1      31.043 -22.898 -16.618  0.00  0.00    +0.014 C 
ENDROOT
BRANCH   1   9
ATOM      7  O   UNL     1      35.272 -23.206 -16.738  0.00  0.00    -0.270 OA
ATOM      8  N   UNL     1      35.163 -24.699 -14.967  0.00  0.00    -0.291 N 
ATOM      9  C   UNL     1      34.605 -23.767 -15.850  0.00  0.00    +0.246 C 
ATOM     10  H   UNL     1      34.578 -25.105 -14.287  0.00  0.00    +0.150 HD
BRANCH   8  11
ATOM     11  C   UNL     1      36.553 -25.098 -14.999  0.00  0.00    +0.201 C 
BRANCH  11  13
ATOM     12  O   UNL     1      36.738 -27.227 -16.108  0.00  0.00    -0.248 OA
ATOM     13  C   UNL     1      36.732 -26.593 -15.060  0.00  0.00    +0.334 C 
BRANCH  13  14
ATOM     14  O   UNL     1      36.885 -27.169 -13.844  0.00  0.00    -0.479 OA
ATOM     15  H   UNL     1      37.344 -26.715 -13.165  0.00  0.00    +0.295 HD
ENDBRANCH  13  14
ENDBRANCH  11  13
ENDBRANCH   8  11
ENDBRANCH   1   9
BRANCH   4  16
ATOM     16  N   UNL     1      29.129 -22.536 -15.166  0.00  0.00    -0.357 N 
ATOM     17  H   UNL     1      28.838 -21.997 -14.396  0.00  0.00    +0.142 HD
ATOM     18  H   UNL     1      28.466 -22.862 -15.817  0.00  0.00    +0.142 HD
ENDBRANCH   4  16
TORSDOF 5
ENDMDL
