MODEL 1
REMARK VINA RESULT:     -10.4      0.000      0.000
REMARK  Name = 24875319
REMARK  4 active torsions:
REMARK  status: ('A' for Active; 'I' for Inactive)
REMARK    1  A    between atoms: C_3  and  C_16
REMARK    2  A    between atoms: C_5  and  O_9
REMARK    3  A    between atoms: O_9  and  C_10
REMARK    4  A    between atoms: C_16  and  C_20
REMARK                            x       y       z     vdW  Elec       q    Type
REMARK                         _______ _______ _______ _____ _____    ______ ____
ROOT
ATOM      1 CL   UNL     1      32.228 -13.076 -20.852  0.00  0.00    -0.079 Cl
ATOM      2  F   UNL     1      33.949 -16.522 -24.175  0.00  0.00    -0.201 F 
ATOM      3  C   UNL     1      34.820 -16.599 -21.972  0.00  0.00    +0.014 C 
ATOM      4  C   UNL     1      33.983 -16.027 -22.929  0.00  0.00    +0.172 C 
ATOM      5  C   UNL     1      33.178 -14.939 -22.592  0.00  0.00    +0.183 C 
ATOM      6  C   UNL     1      34.854 -16.081 -20.677  0.00  0.00    -0.001 C 
ATOM      7  C   UNL     1      33.211 -14.422 -21.297  0.00  0.00    +0.094 C 
ATOM      8  C   UNL     1      34.049 -14.993 -20.339  0.00  0.00    +0.014 C 
ENDROOT
BRANCH   5   9
ATOM      9  O   UNL     1      32.368 -14.399 -23.546  0.00  0.00    -0.450 OA
BRANCH   9  10
ATOM     10  C   UNL     1      32.951 -13.571 -24.488  0.00  0.00    +0.145 C 
ATOM     11  C   UNL     1      32.952 -13.938 -25.835  0.00  0.00    +0.037 C 
ATOM     12  C   UNL     1      33.537 -12.368 -24.093  0.00  0.00    +0.037 C 
ATOM     13  C   UNL     1      33.539 -13.102 -26.784  0.00  0.00    +0.003 C 
ATOM     14  C   UNL     1      34.123 -11.532 -25.043  0.00  0.00    +0.003 C 
ATOM     15  C   UNL     1      34.125 -11.899 -26.389  0.00  0.00    +0.000 C 
ENDBRANCH   9  10
ENDBRANCH   5   9
BRANCH   3  16
ATOM     16  C   UNL     1      35.686 -17.766 -22.330  0.00  0.00    +0.076 C 
BRANCH  16  20
ATOM     17  O   UNL     1      34.794 -21.946 -18.911  0.00  0.00    -0.268 OA
ATOM     18  N   UNL     1      36.437 -19.340 -20.678  0.00  0.00    -0.183 NA
ATOM     19  N   UNL     1      36.195 -20.377 -19.837  0.00  0.00    -0.203 N 
ATOM     20  C   UNL     1      35.440 -18.918 -21.388  0.00  0.00    +0.081 C 
ATOM     21  C   UNL     1      34.076 -19.480 -21.345  0.00  0.00    +0.021 C 
ATOM     22  C   UNL     1      33.870 -20.497 -20.510  0.00  0.00    +0.061 C 
ATOM     23  C   UNL     1      34.983 -21.006 -19.683  0.00  0.00    +0.265 C 
ATOM     24  H   UNL     1      36.948 -20.704 -19.293  0.00  0.00    +0.178 HD
ENDBRANCH  16  20
ENDBRANCH   3  16
TORSDOF 4
ENDMDL
MODEL 2
REMARK VINA RESULT:     -10.0      3.960      8.664
REMARK  Name = 24875319
REMARK  4 active torsions:
REMARK  status: ('A' for Active; 'I' for Inactive)
REMARK    1  A    between atoms: C_3  and  C_16
REMARK    2  A    between atoms: C_5  and  O_9
REMARK    3  A    between atoms: O_9  and  C_10
REMARK    4  A    between atoms: C_16  and  C_20
REMARK                            x       y       z     vdW  Elec       q    Type
REMARK                         _______ _______ _______ _____ _____    ______ ____
ROOT
ATOM      1 CL   UNL     1      32.284 -22.006 -18.774  0.00  0.00    -0.079 Cl
ATOM      2  F   UNL     1      36.951 -20.949 -20.500  0.00  0.00    -0.201 F 
ATOM      3  C   UNL     1      35.216 -19.426 -21.039  0.00  0.00    +0.014 C 
ATOM      4  C   UNL     1      35.660 -20.595 -20.421  0.00  0.00    +0.172 C 
ATOM      5  C   UNL     1      34.762 -21.398 -19.719  0.00  0.00    +0.183 C 
ATOM      6  C   UNL     1      33.873 -19.061 -20.957  0.00  0.00    -0.001 C 
ATOM      7  C   UNL     1      33.418 -21.031 -19.635  0.00  0.00    +0.094 C 
ATOM      8  C   UNL     1      32.973 -19.863 -20.254  0.00  0.00    +0.014 C 
ENDROOT
BRANCH   5   9
ATOM      9  O   UNL     1      35.221 -22.534 -19.123  0.00  0.00    -0.450 OA
BRANCH   9  10
ATOM     10  C   UNL     1      35.624 -22.448 -17.802  0.00  0.00    +0.145 C 
ATOM     11  C   UNL     1      36.854 -21.874 -17.484  0.00  0.00    +0.037 C 
ATOM     12  C   UNL     1      34.799 -22.937 -16.789  0.00  0.00    +0.037 C 
ATOM     13  C   UNL     1      37.260 -21.787 -16.152  0.00  0.00    +0.003 C 
ATOM     14  C   UNL     1      35.204 -22.851 -15.457  0.00  0.00    +0.003 C 
ATOM     15  C   UNL     1      36.435 -22.276 -15.138  0.00  0.00    +0.000 C 
ENDBRANCH   9  10
ENDBRANCH   5   9
BRANCH   3  16
ATOM     16  C   UNL     1      36.177 -18.563 -21.795  0.00  0.00    +0.076 C 
BRANCH  16  20
ATOM     17  O   UNL     1      33.721 -16.268 -26.114  0.00  0.00    -0.268 OA
ATOM     18  N   UNL     1      35.375 -16.642 -22.995  0.00  0.00    -0.183 NA
ATOM     19  N   UNL     1      34.763 -16.093 -24.073  0.00  0.00    -0.203 N 
ATOM     20  C   UNL     1      35.500 -17.930 -22.985  0.00  0.00    +0.081 C 
ATOM     21  C   UNL     1      35.029 -18.831 -24.056  0.00  0.00    +0.021 C 
ATOM     22  C   UNL     1      34.433 -18.263 -25.102  0.00  0.00    +0.061 C 
ATOM     23  C   UNL     1      34.272 -16.795 -25.149  0.00  0.00    +0.265 C 
ATOM     24  H   UNL     1      34.665 -15.113 -24.089  0.00  0.00    +0.178 HD
ENDBRANCH  16  20
ENDBRANCH   3  16
TORSDOF 4
ENDMDL
MODEL 3
REMARK VINA RESULT:      -9.8      5.166     10.686
REMARK  Name = 24875319
REMARK  4 active torsions:
REMARK  status: ('A' for Active; 'I' for Inactive)
REMARK    1  A    between atoms: C_3  and  C_16
REMARK    2  A    between atoms: C_5  and  O_9
REMARK    3  A    between atoms: O_9  and  C_10
REMARK    4  A    between atoms: C_16  and  C_20
REMARK                            x       y       z     vdW  Elec       q    Type
REMARK                         _______ _______ _______ _____ _____    ______ ____
ROOT
ATOM      1 CL   UNL     1      32.893 -23.647 -15.074  0.00  0.00    -0.079 Cl
ATOM      2  F   UNL     1      37.113 -22.064 -17.432  0.00  0.00    -0.201 F 
ATOM      3  C   UNL     1      35.129 -22.211 -18.723  0.00  0.00    +0.014 C 
ATOM      4  C   UNL     1      35.805 -22.353 -17.511  0.00  0.00    +0.172 C 
ATOM      5  C   UNL     1      35.122 -22.795 -16.379  0.00  0.00    +0.183 C 
ATOM      6  C   UNL     1      33.770 -22.513 -18.803  0.00  0.00    -0.001 C 
ATOM      7  C   UNL     1      33.762 -23.097 -16.458  0.00  0.00    +0.094 C 
ATOM      8  C   UNL     1      33.086 -22.956 -17.670  0.00  0.00    +0.014 C 
ENDROOT
BRANCH   5   9
ATOM      9  O   UNL     1      35.806 -22.925 -15.207  0.00  0.00    -0.450 OA
BRANCH   9  10
ATOM     10  C   UNL     1      36.581 -24.058 -15.039  0.00  0.00    +0.145 C 
ATOM     11  C   UNL     1      37.956 -23.938 -14.834  0.00  0.00    +0.037 C 
ATOM     12  C   UNL     1      35.989 -25.321 -15.073  0.00  0.00    +0.037 C 
ATOM     13  C   UNL     1      38.738 -25.081 -14.663  0.00  0.00    +0.003 C 
ATOM     14  C   UNL     1      36.771 -26.463 -14.903  0.00  0.00    +0.003 C 
ATOM     15  C   UNL     1      38.146 -26.344 -14.698  0.00  0.00    +0.000 C 
ENDBRANCH   9  10
ENDBRANCH   5   9
BRANCH   3  16
ATOM     16  C   UNL     1      35.859 -21.737 -19.941  0.00  0.00    +0.076 C 
BRANCH  16  20
ATOM     17  O   UNL     1      34.091 -16.780 -21.441  0.00  0.00    -0.268 OA
ATOM     18  N   UNL     1      36.236 -19.408 -20.393  0.00  0.00    -0.183 NA
ATOM     19  N   UNL     1      35.778 -18.187 -20.767  0.00  0.00    -0.203 N 
ATOM     20  C   UNL     1      35.372 -20.371 -20.354  0.00  0.00    +0.081 C 
ATOM     21  C   UNL     1      33.940 -20.233 -20.685  0.00  0.00    +0.021 C 
ATOM     22  C   UNL     1      33.520 -19.023 -21.049  0.00  0.00    +0.061 C 
ATOM     23  C   UNL     1      34.477 -17.899 -21.106  0.00  0.00    +0.265 C 
ATOM     24  H   UNL     1      36.429 -17.450 -20.800  0.00  0.00    +0.178 HD
ENDBRANCH  16  20
ENDBRANCH   3  16
TORSDOF 4
ENDMDL
MODEL 4
REMARK VINA RESULT:      -9.5      6.505      9.442
REMARK  Name = 24875319
REMARK  4 active torsions:
REMARK  status: ('A' for Active; 'I' for Inactive)
REMARK    1  A    between atoms: C_3  and  C_16
REMARK    2  A    between atoms: C_5  and  O_9
REMARK    3  A    between atoms: O_9  and  C_10
REMARK    4  A    between atoms: C_16  and  C_20
REMARK                            x       y       z     vdW  Elec       q    Type
REMARK                         _______ _______ _______ _____ _____    ______ ____
ROOT
ATOM      1 CL   UNL     1      31.594 -23.596 -17.125  0.00  0.00    -0.079 Cl
ATOM      2  F   UNL     1      36.588 -22.654 -17.367  0.00  0.00    -0.201 F 
ATOM      3  C   UNL     1      35.592 -22.728 -15.216  0.00  0.00    +0.014 C 
ATOM      4  C   UNL     1      35.497 -22.821 -16.604  0.00  0.00    +0.172 C 
ATOM      5  C   UNL     1      34.266 -23.090 -17.203  0.00  0.00    +0.183 C 
ATOM      6  C   UNL     1      34.457 -22.901 -14.426  0.00  0.00    -0.001 C 
ATOM      7  C   UNL     1      33.130 -23.264 -16.412  0.00  0.00    +0.094 C 
ATOM      8  C   UNL     1      33.225 -23.170 -15.023  0.00  0.00    +0.014 C 
ENDROOT
BRANCH   5   9
ATOM      9  O   UNL     1      34.200 -23.177 -18.561  0.00  0.00    -0.450 OA
BRANCH   9  10
ATOM     10  C   UNL     1      34.183 -21.995 -19.279  0.00  0.00    +0.145 C 
ATOM     11  C   UNL     1      32.977 -21.326 -19.495  0.00  0.00    +0.037 C 
ATOM     12  C   UNL     1      35.371 -21.470 -19.789  0.00  0.00    +0.037 C 
ATOM     13  C   UNL     1      32.961 -20.134 -20.219  0.00  0.00    +0.003 C 
ATOM     14  C   UNL     1      35.355 -20.278 -20.513  0.00  0.00    +0.003 C 
ATOM     15  C   UNL     1      34.149 -19.610 -20.728  0.00  0.00    +0.000 C 
ENDBRANCH   9  10
ENDBRANCH   5   9
BRANCH   3  16
ATOM     16  C   UNL     1      36.912 -22.439 -14.570  0.00  0.00    +0.076 C 
BRANCH  16  20
ATOM     17  O   UNL     1      40.085 -26.898 -14.592  0.00  0.00    -0.268 OA
ATOM     18  N   UNL     1      38.765 -23.708 -15.422  0.00  0.00    -0.183 NA
ATOM     19  N   UNL     1      39.539 -24.822 -15.412  0.00  0.00    -0.203 N 
ATOM     20  C   UNL     1      37.786 -23.668 -14.576  0.00  0.00    +0.081 C 
ATOM     21  C   UNL     1      37.460 -24.738 -13.613  0.00  0.00    +0.021 C 
ATOM     22  C   UNL     1      38.238 -25.818 -13.626  0.00  0.00    +0.061 C 
ATOM     23  C   UNL     1      39.366 -25.900 -14.577  0.00  0.00    +0.265 C 
ATOM     24  H   UNL     1      40.287 -24.860 -16.052  0.00  0.00    +0.178 HD
ENDBRANCH  16  20
ENDBRANCH   3  16
TORSDOF 4
ENDMDL
MODEL 5
REMARK VINA RESULT:      -9.5      4.577      7.381
REMARK  Name = 24875319
REMARK  4 active torsions:
REMARK  status: ('A' for Active; 'I' for Inactive)
REMARK    1  A    between atoms: C_3  and  C_16
REMARK    2  A    between atoms: C_5  and  O_9
REMARK    3  A    between atoms: O_9  and  C_10
REMARK    4  A    between atoms: C_16  and  C_20
REMARK                            x       y       z     vdW  Elec       q    Type
REMARK                         _______ _______ _______ _____ _____    ______ ____
ROOT
ATOM      1 CL   UNL     1      34.941 -16.511 -20.465  0.00  0.00    -0.079 Cl
ATOM      2  F   UNL     1      33.626 -13.125 -24.026  0.00  0.00    -0.201 F 
ATOM      3  C   UNL     1      32.422 -13.086 -21.984  0.00  0.00    +0.014 C 
ATOM      4  C   UNL     1      33.418 -13.624 -22.799  0.00  0.00    +0.172 C 
ATOM      5  C   UNL     1      34.202 -14.682 -22.337  0.00  0.00    +0.183 C 
ATOM      6  C   UNL     1      32.208 -13.607 -20.708  0.00  0.00    -0.001 C 
ATOM      7  C   UNL     1      33.988 -15.202 -21.061  0.00  0.00    +0.094 C 
ATOM      8  C   UNL     1      32.991 -14.665 -20.246  0.00  0.00    +0.014 C 
ENDROOT
BRANCH   5   9
ATOM      9  O   UNL     1      35.169 -15.188 -23.153  0.00  0.00    -0.450 OA
BRANCH   9  10
ATOM     10  C   UNL     1      34.932 -16.417 -23.742  0.00  0.00    +0.145 C 
ATOM     11  C   UNL     1      34.182 -16.495 -24.916  0.00  0.00    +0.037 C 
ATOM     12  C   UNL     1      35.443 -17.579 -23.163  0.00  0.00    +0.037 C 
ATOM     13  C   UNL     1      33.943 -17.734 -25.510  0.00  0.00    +0.003 C 
ATOM     14  C   UNL     1      35.205 -18.818 -23.758  0.00  0.00    +0.003 C 
ATOM     15  C   UNL     1      34.455 -18.896 -24.931  0.00  0.00    +0.000 C 
ENDBRANCH   9  10
ENDBRANCH   5   9
BRANCH   3  16
ATOM     16  C   UNL     1      31.578 -11.952 -22.476  0.00  0.00    +0.076 C 
BRANCH  16  20
ATOM     17  O   UNL     1      32.609  -7.402 -19.615  0.00  0.00    -0.268 OA
ATOM     18  N   UNL     1      32.396  -9.698 -22.314  0.00  0.00    -0.183 NA
ATOM     19  N   UNL     1      32.643  -8.581 -21.587  0.00  0.00    -0.203 N 
ATOM     20  C   UNL     1      31.863 -10.698 -21.688  0.00  0.00    +0.081 C 
ATOM     21  C   UNL     1      31.509 -10.704 -20.254  0.00  0.00    +0.021 C 
ATOM     22  C   UNL     1      31.764  -9.592 -19.567  0.00  0.00    +0.061 C 
ATOM     23  C   UNL     1      32.372  -8.430 -20.248  0.00  0.00    +0.265 C 
ATOM     24  H   UNL     1      33.049  -7.816 -22.056  0.00  0.00    +0.178 HD
ENDBRANCH  16  20
ENDBRANCH   3  16
TORSDOF 4
ENDMDL
MODEL 6
REMARK VINA RESULT:      -9.4      6.549     10.270
REMARK  Name = 24875319
REMARK  4 active torsions:
REMARK  status: ('A' for Active; 'I' for Inactive)
REMARK    1  A    between atoms: C_3  and  C_16
REMARK    2  A    between atoms: C_5  and  O_9
REMARK    3  A    between atoms: O_9  and  C_10
REMARK    4  A    between atoms: C_16  and  C_20
REMARK                            x       y       z     vdW  Elec       q    Type
REMARK                         _______ _______ _______ _____ _____    ______ ____
ROOT
ATOM      1 CL   UNL     1      31.050 -10.793 -19.217  0.00  0.00    -0.079 Cl
ATOM      2  F   UNL     1      32.501  -9.902 -24.011  0.00  0.00    -0.201 F 
ATOM      3  C   UNL     1      32.972  -8.230 -22.397  0.00  0.00    +0.014 C 
ATOM      4  C   UNL     1      32.440  -9.472 -22.742  0.00  0.00    +0.172 C 
ATOM      5  C   UNL     1      31.846 -10.271 -21.766  0.00  0.00    +0.183 C 
ATOM      6  C   UNL     1      32.907  -7.785 -21.077  0.00  0.00    -0.001 C 
ATOM      7  C   UNL     1      31.782  -9.826 -20.445  0.00  0.00    +0.094 C 
ATOM      8  C   UNL     1      32.313  -8.583 -20.100  0.00  0.00    +0.014 C 
ENDROOT
BRANCH   5   9
ATOM      9  O   UNL     1      31.335 -11.481 -22.128  0.00  0.00    -0.450 OA
BRANCH   9  10
ATOM     10  C   UNL     1      32.194 -12.565 -22.132  0.00  0.00    +0.145 C 
ATOM     11  C   UNL     1      32.958 -12.846 -23.265  0.00  0.00    +0.037 C 
ATOM     12  C   UNL     1      32.297 -13.379 -21.003  0.00  0.00    +0.037 C 
ATOM     13  C   UNL     1      33.824 -13.939 -23.269  0.00  0.00    +0.003 C 
ATOM     14  C   UNL     1      33.163 -14.472 -21.007  0.00  0.00    +0.003 C 
ATOM     15  C   UNL     1      33.927 -14.752 -22.140  0.00  0.00    +0.000 C 
ENDBRANCH   9  10
ENDBRANCH   5   9
BRANCH   3  16
ATOM     16  C   UNL     1      33.611  -7.369 -23.443  0.00  0.00    +0.076 C 
BRANCH  16  20
ATOM     17  O   UNL     1      30.175  -3.425 -25.053  0.00  0.00    -0.268 OA
ATOM     18  N   UNL     1      31.636  -6.033 -23.139  0.00  0.00    -0.183 NA
ATOM     19  N   UNL     1      30.797  -5.053 -23.556  0.00  0.00    -0.203 N 
ATOM     20  C   UNL     1      32.664  -6.282 -23.886  0.00  0.00    +0.081 C 
ATOM     21  C   UNL     1      32.981  -5.579 -25.145  0.00  0.00    +0.021 C 
ATOM     22  C   UNL     1      32.138  -4.621 -25.528  0.00  0.00    +0.061 C 
ATOM     23  C   UNL     1      30.955  -4.309 -24.701  0.00  0.00    +0.265 C 
ATOM     24  H   UNL     1      30.014  -4.858 -22.993  0.00  0.00    +0.178 HD
ENDBRANCH  16  20
ENDBRANCH   3  16
TORSDOF 4
ENDMDL
MODEL 7
REMARK VINA RESULT:      -9.3      4.308      7.578
REMARK  Name = 24875319
REMARK  4 active torsions:
REMARK  status: ('A' for Active; 'I' for Inactive)
REMARK    1  A    between atoms: C_3  and  C_16
REMARK    2  A    between atoms: C_5  and  O_9
REMARK    3  A    between atoms: O_9  and  C_10
REMARK    4  A    between atoms: C_16  and  C_20
REMARK                            x       y       z     vdW  Elec       q    Type
REMARK                         _______ _______ _______ _____ _____    ______ ____
ROOT
ATOM      1 CL   UNL     1      34.821 -16.231 -20.277  0.00  0.00    -0.079 Cl
ATOM      2  F   UNL     1      34.134 -13.511 -24.521  0.00  0.00    -0.201 F 
ATOM      3  C   UNL     1      32.762 -12.994 -22.658  0.00  0.00    +0.014 C 
ATOM      4  C   UNL     1      33.775 -13.748 -23.251  0.00  0.00    +0.172 C 
ATOM      5  C   UNL     1      34.417 -14.749 -22.522  0.00  0.00    +0.183 C 
ATOM      6  C   UNL     1      32.389 -13.243 -21.337  0.00  0.00    -0.001 C 
ATOM      7  C   UNL     1      34.044 -14.998 -21.201  0.00  0.00    +0.094 C 
ATOM      8  C   UNL     1      33.031 -14.245 -20.608  0.00  0.00    +0.014 C 
ENDROOT
BRANCH   5   9
ATOM      9  O   UNL     1      35.404 -15.470 -23.125  0.00  0.00    -0.450 OA
BRANCH   9  10
ATOM     10  C   UNL     1      35.064 -16.699 -23.661  0.00  0.00    +0.145 C 
ATOM     11  C   UNL     1      35.373 -17.871 -22.970  0.00  0.00    +0.037 C 
ATOM     12  C   UNL     1      34.413 -16.767 -24.893  0.00  0.00    +0.037 C 
ATOM     13  C   UNL     1      35.030 -19.110 -23.511  0.00  0.00    +0.003 C 
ATOM     14  C   UNL     1      34.070 -18.006 -25.434  0.00  0.00    +0.003 C 
ATOM     15  C   UNL     1      34.379 -19.178 -24.744  0.00  0.00    +0.000 C 
ENDBRANCH   9  10
ENDBRANCH   5   9
BRANCH   3  16
ATOM     16  C   UNL     1      32.070 -11.919 -23.437  0.00  0.00    +0.076 C 
BRANCH  16  20
ATOM     17  O   UNL     1      35.001  -7.299 -23.365  0.00  0.00    -0.268 OA
ATOM     18  N   UNL     1      32.503  -9.705 -22.610  0.00  0.00    -0.183 NA
ATOM     19  N   UNL     1      33.242  -8.568 -22.608  0.00  0.00    -0.203 N 
ATOM     20  C   UNL     1      32.877 -10.646 -23.417  0.00  0.00    +0.081 C 
ATOM     21  C   UNL     1      34.041 -10.567 -24.322  0.00  0.00    +0.021 C 
ATOM     22  C   UNL     1      34.747  -9.438 -24.297  0.00  0.00    +0.061 C 
ATOM     23  C   UNL     1      34.351  -8.342 -23.389  0.00  0.00    +0.265 C 
ATOM     24  H   UNL     1      32.964  -7.848 -21.997  0.00  0.00    +0.178 HD
ENDBRANCH  16  20
ENDBRANCH   3  16
TORSDOF 4
ENDMDL
MODEL 8
REMARK VINA RESULT:      -9.3      3.854      5.877
REMARK  Name = 24875319
REMARK  4 active torsions:
REMARK  status: ('A' for Active; 'I' for Inactive)
REMARK    1  A    between atoms: C_3  and  C_16
REMARK    2  A    between atoms: C_5  and  O_9
REMARK    3  A    between atoms: O_9  and  C_10
REMARK    4  A    between atoms: C_16  and  C_20
REMARK                            x       y       z     vdW  Elec       q    Type
REMARK                         _______ _______ _______ _____ _____    ______ ____
ROOT
ATOM      1 CL   UNL     1      37.570 -18.975 -21.220  0.00  0.00    -0.079 Cl
ATOM      2  F   UNL     1      32.701 -19.939 -20.106  0.00  0.00    -0.201 F 
ATOM      3  C   UNL     1      34.288 -21.633 -19.626  0.00  0.00    +0.014 C 
ATOM      4  C   UNL     1      33.972 -20.365 -20.112  0.00  0.00    +0.172 C 
ATOM      5  C   UNL     1      34.980 -19.536 -20.606  0.00  0.00    +0.183 C 
ATOM      6  C   UNL     1      35.610 -22.074 -19.634  0.00  0.00    -0.001 C 
ATOM      7  C   UNL     1      36.303 -19.978 -20.614  0.00  0.00    +0.094 C 
ATOM      8  C   UNL     1      36.619 -21.246 -20.128  0.00  0.00    +0.014 C 
ENDROOT
BRANCH   5   9
ATOM      9  O   UNL     1      34.645 -18.302 -21.074  0.00  0.00    -0.450 OA
BRANCH   9  10
ATOM     10  C   UNL     1      34.640 -18.115 -22.445  0.00  0.00    +0.145 C 
ATOM     11  C   UNL     1      34.759 -16.830 -22.975  0.00  0.00    +0.037 C 
ATOM     12  C   UNL     1      34.518 -19.212 -23.299  0.00  0.00    +0.037 C 
ATOM     13  C   UNL     1      34.755 -16.642 -24.357  0.00  0.00    +0.003 C 
ATOM     14  C   UNL     1      34.514 -19.024 -24.681  0.00  0.00    +0.003 C 
ATOM     15  C   UNL     1      34.632 -17.739 -25.210  0.00  0.00    +0.000 C 
ENDBRANCH   9  10
ENDBRANCH   5   9
BRANCH   3  16
ATOM     16  C   UNL     1      33.209 -22.526 -19.096  0.00  0.00    +0.076 C 
BRANCH  16  20
ATOM     17  O   UNL     1      34.163 -23.803 -13.860  0.00  0.00    -0.268 OA
ATOM     18  N   UNL     1      34.705 -22.990 -17.274  0.00  0.00    -0.183 NA
ATOM     19  N   UNL     1      34.920 -23.307 -15.973  0.00  0.00    -0.203 N 
ATOM     20  C   UNL     1      33.472 -22.878 -17.653  0.00  0.00    +0.081 C 
ATOM     21  C   UNL     1      32.299 -23.069 -16.777  0.00  0.00    +0.021 C 
ATOM     22  C   UNL     1      32.543 -23.379 -15.505  0.00  0.00    +0.061 C 
ATOM     23  C   UNL     1      33.937 -23.515 -15.035  0.00  0.00    +0.265 C 
ATOM     24  H   UNL     1      35.855 -23.394 -15.676  0.00  0.00    +0.178 HD
ENDBRANCH  16  20
ENDBRANCH   3  16
TORSDOF 4
ENDMDL
MODEL 9
REMARK VINA RESULT:      -9.1     10.029     12.388
REMARK  Name = 24875319
REMARK  4 active torsions:
REMARK  status: ('A' for Active; 'I' for Inactive)
REMARK    1  A    between atoms: C_3  and  C_16
REMARK    2  A    between atoms: C_5  and  O_9
REMARK    3  A    between atoms: O_9  and  C_10
REMARK    4  A    between atoms: C_16  and  C_20
REMARK                            x       y       z     vdW  Elec       q    Type
REMARK                         _______ _______ _______ _____ _____    ______ ____
ROOT
ATOM      1 CL   UNL     1      36.435 -22.047 -17.334  0.00  0.00    -0.079 Cl
ATOM      2  F   UNL     1      34.075 -23.729 -13.153  0.00  0.00    -0.201 F 
ATOM      3  C   UNL     1      32.899 -23.877 -15.206  0.00  0.00    +0.014 C 
ATOM      4  C   UNL     1      34.035 -23.524 -14.478  0.00  0.00    +0.172 C 
ATOM      5  C   UNL     1      35.132 -22.960 -15.127  0.00  0.00    +0.183 C 
ATOM      6  C   UNL     1      32.859 -23.662 -16.583  0.00  0.00    -0.001 C 
ATOM      7  C   UNL     1      35.093 -22.746 -16.505  0.00  0.00    +0.094 C 
ATOM      8  C   UNL     1      33.956 -23.097 -17.233  0.00  0.00    +0.014 C 
ENDROOT
BRANCH   5   9
ATOM      9  O   UNL     1      36.230 -22.625 -14.392  0.00  0.00    -0.450 OA
BRANCH   9  10
ATOM     10  C   UNL     1      37.073 -23.648 -13.995  0.00  0.00    +0.145 C 
ATOM     11  C   UNL     1      37.611 -24.517 -14.945  0.00  0.00    +0.037 C 
ATOM     12  C   UNL     1      37.384 -23.812 -12.645  0.00  0.00    +0.037 C 
ATOM     13  C   UNL     1      38.461 -25.548 -14.545  0.00  0.00    +0.003 C 
ATOM     14  C   UNL     1      38.234 -24.843 -12.245  0.00  0.00    +0.003 C 
ATOM     15  C   UNL     1      38.773 -25.712 -13.195  0.00  0.00    +0.000 C 
ENDBRANCH   9  10
ENDBRANCH   5   9
BRANCH   3  16
ATOM     16  C   UNL     1      31.718 -24.483 -14.512  0.00  0.00    +0.076 C 
BRANCH  16  20
ATOM     17  O   UNL     1      27.054 -22.847 -16.862  0.00  0.00    -0.268 OA
ATOM     18  N   UNL     1      29.794 -24.887 -15.893  0.00  0.00    -0.183 NA
ATOM     19  N   UNL     1      28.641 -24.462 -16.466  0.00  0.00    -0.203 N 
ATOM     20  C   UNL     1      30.433 -24.032 -15.160  0.00  0.00    +0.081 C 
ATOM     21  C   UNL     1      29.997 -22.644 -14.909  0.00  0.00    +0.021 C 
ATOM     22  C   UNL     1      28.861 -22.256 -15.485  0.00  0.00    +0.061 C 
ATOM     23  C   UNL     1      28.103 -23.204 -16.328  0.00  0.00    +0.265 C 
ATOM     24  H   UNL     1      28.148 -25.106 -17.025  0.00  0.00    +0.178 HD
ENDBRANCH  16  20
ENDBRANCH   3  16
TORSDOF 4
ENDMDL
