MODEL 1
REMARK VINA RESULT:     -10.8      0.000      0.000
REMARK  Name = 11719003
REMARK  7 active torsions:
REMARK  status: ('A' for Active; 'I' for Inactive)
REMARK    1  A    between atoms: C_2  and  C_10
REMARK    2  A    between atoms: CA_3  and  C_21
REMARK    3  A    between atoms: N_8  and  C_16
REMARK    4  A    between atoms: N_20  and  CA_23
REMARK    5  A    between atoms: CA_23  and  C_25
REMARK    6  A    between atoms: CA_23  and  C_31
REMARK    7  A    between atoms: C_31  and  O_32
REMARK                            x       y       z     vdW  Elec       q    Type
REMARK                         _______ _______ _______ _____ _____    ______ ____
ROOT
ATOM      1  N   UNL     1      32.853 -13.388 -22.344  0.00  0.00    -0.308 N 
ATOM      2  C   UNL     1      33.841 -15.262 -22.994  0.00  0.00    +0.017 C 
ATOM      3  CA  UNL     1      33.505 -13.103 -23.516  0.00  0.00    +0.102 C 
ATOM      4  C   UNL     1      34.130 -14.254 -23.943  0.00  0.00    +0.021 C 
ATOM      5  C   UNL     1      33.052 -14.704 -22.017  0.00  0.00    +0.062 C 
ATOM      6  H   UNL     1      32.324 -12.746 -21.818  0.00  0.00    +0.152 HD
ENDROOT
BRANCH   2  10
ATOM      7 CL   UNL     1      34.657 -16.574 -25.678  0.00  0.00    -0.081 Cl
ATOM      8  N   UNL     1      34.661 -19.297 -20.481  0.00  0.00    -0.320 N 
ATOM      9  N   UNL     1      35.037 -19.320 -22.834  0.00  0.00    -0.229 NA
ATOM     10  C   UNL     1      34.253 -16.641 -22.968  0.00  0.00    +0.016 C 
ATOM     11  C   UNL     1      34.658 -18.649 -21.704  0.00  0.00    +0.129 C 
ATOM     12  C   UNL     1      34.261 -17.305 -21.746  0.00  0.00    +0.035 C 
ATOM     13  C   UNL     1      34.636 -17.314 -24.122  0.00  0.00    +0.077 C 
ATOM     14  C   UNL     1      35.015 -18.642 -24.002  0.00  0.00    +0.112 C 
ATOM     15  H   UNL     1      34.386 -18.790 -19.684  0.00  0.00    +0.148 HD
BRANCH   8  16
ATOM     16  C   UNL     1      35.049 -20.681 -20.310  0.00  0.00    +0.070 C 
ATOM     17  C   UNL     1      36.396 -20.749 -19.603  0.00  0.00    +0.021 C 
ATOM     18  C   UNL     1      33.971 -21.410 -19.521  0.00  0.00    +0.021 C 
ENDBRANCH   8  16
ENDBRANCH   2  10
BRANCH   3  21
ATOM     19  O   UNL     1      33.520 -11.635 -25.375  0.00  0.00    -0.269 OA
ATOM     20  N   UNL     1      33.502 -10.691 -23.282  0.00  0.00    -0.295 N 
ATOM     21  C   UNL     1      33.501 -11.815 -24.134  0.00  0.00    +0.260 C 
ATOM     22  H   UNL     1      33.486 -10.844 -22.309  0.00  0.00    +0.150 HD
BRANCH  20  23
ATOM     23  CA  UNL     1      33.527  -9.325 -23.758  0.00  0.00    +0.124 C 
BRANCH  23  25
ATOM     24 CL   UNL     1      31.457  -4.677 -22.686  0.00  0.00    -0.082 Cl
ATOM     25  C   UNL     1      32.890  -8.394 -22.748  0.00  0.00    -0.001 C 
ATOM     26  C   UNL     1      32.518  -7.122 -23.145  0.00  0.00    +0.009 C 
ATOM     27  C   UNL     1      32.692  -8.837 -21.452  0.00  0.00    -0.003 C 
ATOM     28  C   UNL     1      31.929  -6.265 -22.216  0.00  0.00    +0.057 C 
ATOM     29  C   UNL     1      32.103  -7.980 -20.523  0.00  0.00    +0.001 C 
ATOM     30  C   UNL     1      31.722  -6.693 -20.905  0.00  0.00    +0.011 C 
ENDBRANCH  23  25
BRANCH  23  31
ATOM     31  C   UNL     1      34.954  -8.906 -24.123  0.00  0.00    +0.161 C 
BRANCH  31  32
ATOM     32  O   UNL     1      35.733 -10.069 -24.381  0.00  0.00    -0.380 OA
ATOM     33  H   UNL     1      35.281 -10.848 -24.022  0.00  0.00    +0.211 HD
ENDBRANCH  31  32
ENDBRANCH  23  31
ENDBRANCH  20  23
ENDBRANCH   3  21
TORSDOF 7
ENDMDL
MODEL 2
REMARK VINA RESULT:     -10.8      2.894     10.801
REMARK  Name = 11719003
REMARK  7 active torsions:
REMARK  status: ('A' for Active; 'I' for Inactive)
REMARK    1  A    between atoms: C_2  and  C_10
REMARK    2  A    between atoms: CA_3  and  C_21
REMARK    3  A    between atoms: N_8  and  C_16
REMARK    4  A    between atoms: N_20  and  CA_23
REMARK    5  A    between atoms: CA_23  and  C_25
REMARK    6  A    between atoms: CA_23  and  C_31
REMARK    7  A    between atoms: C_31  and  O_32
REMARK                            x       y       z     vdW  Elec       q    Type
REMARK                         _______ _______ _______ _____ _____    ______ ____
ROOT
ATOM      1  N   UNL     1      35.090  -9.666 -24.135  0.00  0.00    -0.308 N 
ATOM      2  C   UNL     1      33.363  -8.399 -23.566  0.00  0.00    +0.017 C 
ATOM      3  CA  UNL     1      33.964 -10.417 -24.350  0.00  0.00    +0.102 C 
ATOM      4  C   UNL     1      32.872  -9.651 -24.004  0.00  0.00    +0.021 C 
ATOM      5  C   UNL     1      34.734  -8.432 -23.656  0.00  0.00    +0.062 C 
ATOM      6  H   UNL     1      36.013  -9.967 -24.298  0.00  0.00    +0.152 HD
ENDROOT
BRANCH   2  10
ATOM      7 CL   UNL     1      32.327  -8.442 -20.649  0.00  0.00    -0.081 Cl
ATOM      8  N   UNL     1      31.569  -4.001 -24.408  0.00  0.00    -0.320 N 
ATOM      9  N   UNL     1      31.252  -4.972 -22.255  0.00  0.00    -0.229 NA
ATOM     10  C   UNL     1      32.642  -7.246 -23.095  0.00  0.00    +0.016 C 
ATOM     11  C   UNL     1      31.751  -5.052 -23.526  0.00  0.00    +0.129 C 
ATOM     12  C   UNL     1      32.451  -6.183 -23.970  0.00  0.00    +0.035 C 
ATOM     13  C   UNL     1      32.139  -7.174 -21.801  0.00  0.00    +0.077 C 
ATOM     14  C   UNL     1      31.457  -6.025 -21.434  0.00  0.00    +0.112 C 
ATOM     15  H   UNL     1      31.940  -4.086 -25.316  0.00  0.00    +0.148 HD
BRANCH   8  16
ATOM     16  C   UNL     1      30.863  -2.784 -24.068  0.00  0.00    +0.070 C 
ATOM     17  C   UNL     1      31.834  -1.789 -23.448  0.00  0.00    +0.021 C 
ATOM     18  C   UNL     1      30.210  -2.217 -25.321  0.00  0.00    +0.021 C 
ENDBRANCH   8  16
ENDBRANCH   2  10
BRANCH   3  21
ATOM     19  O   UNL     1      33.837 -12.056 -26.057  0.00  0.00    -0.269 OA
ATOM     20  N   UNL     1      34.157 -12.791 -23.904  0.00  0.00    -0.295 N 
ATOM     21  C   UNL     1      33.985 -11.756 -24.847  0.00  0.00    +0.260 C 
ATOM     22  H   UNL     1      34.272 -12.545 -22.958  0.00  0.00    +0.150 HD
BRANCH  20  23
ATOM     23  CA  UNL     1      34.170 -14.195 -24.250  0.00  0.00    +0.124 C 
BRANCH  23  25
ATOM     24 CL   UNL     1      35.618 -18.760 -22.224  0.00  0.00    -0.082 Cl
ATOM     25  C   UNL     1      34.413 -15.047 -23.023  0.00  0.00    -0.001 C 
ATOM     26  C   UNL     1      34.849 -16.351 -23.181  0.00  0.00    +0.009 C 
ATOM     27  C   UNL     1      34.197 -14.503 -21.769  0.00  0.00    -0.003 C 
ATOM     28  C   UNL     1      35.076 -17.135 -22.051  0.00  0.00    +0.057 C 
ATOM     29  C   UNL     1      34.423 -15.287 -20.639  0.00  0.00    +0.001 C 
ATOM     30  C   UNL     1      34.862 -16.604 -20.779  0.00  0.00    +0.011 C 
ENDBRANCH  23  25
BRANCH  23  31
ATOM     31  C   UNL     1      32.886 -14.583 -24.987  0.00  0.00    +0.161 C 
BRANCH  31  32
ATOM     32  O   UNL     1      33.216 -15.060 -26.287  0.00  0.00    -0.380 OA
ATOM     33  H   UNL     1      32.811 -15.930 -26.425  0.00  0.00    +0.211 HD
ENDBRANCH  31  32
ENDBRANCH  23  31
ENDBRANCH  20  23
ENDBRANCH   3  21
TORSDOF 7
ENDMDL
MODEL 3
REMARK VINA RESULT:     -10.7      1.293      1.575
REMARK  Name = 11719003
REMARK  7 active torsions:
REMARK  status: ('A' for Active; 'I' for Inactive)
REMARK    1  A    between atoms: C_2  and  C_10
REMARK    2  A    between atoms: CA_3  and  C_21
REMARK    3  A    between atoms: N_8  and  C_16
REMARK    4  A    between atoms: N_20  and  CA_23
REMARK    5  A    between atoms: CA_23  and  C_25
REMARK    6  A    between atoms: CA_23  and  C_31
REMARK    7  A    between atoms: C_31  and  O_32
REMARK                            x       y       z     vdW  Elec       q    Type
REMARK                         _______ _______ _______ _____ _____    ______ ____
ROOT
ATOM      1  N   UNL     1      33.893 -13.783 -22.079  0.00  0.00    -0.308 N 
ATOM      2  C   UNL     1      34.327 -15.840 -22.781  0.00  0.00    +0.017 C 
ATOM      3  CA  UNL     1      33.976 -13.723 -23.446  0.00  0.00    +0.102 C 
ATOM      4  C   UNL     1      34.245 -14.992 -23.910  0.00  0.00    +0.021 C 
ATOM      5  C   UNL     1      34.106 -15.072 -21.664  0.00  0.00    +0.062 C 
ATOM      6  H   UNL     1      33.709 -13.019 -21.487  0.00  0.00    +0.152 HD
ENDROOT
BRANCH   2  10
ATOM      7 CL   UNL     1      34.641 -17.375 -25.452  0.00  0.00    -0.081 Cl
ATOM      8  N   UNL     1      35.037 -19.804 -20.126  0.00  0.00    -0.320 N 
ATOM      9  N   UNL     1      35.097 -19.994 -22.500  0.00  0.00    -0.229 NA
ATOM     10  C   UNL     1      34.590 -17.254 -22.714  0.00  0.00    +0.016 C 
ATOM     11  C   UNL     1      34.943 -19.225 -21.379  0.00  0.00    +0.129 C 
ATOM     12  C   UNL     1      34.687 -17.849 -21.462  0.00  0.00    +0.035 C 
ATOM     13  C   UNL     1      34.746 -18.026 -23.860  0.00  0.00    +0.077 C 
ATOM     14  C   UNL     1      34.995 -19.380 -23.700  0.00  0.00    +0.112 C 
ATOM     15  H   UNL     1      34.924 -19.227 -19.337  0.00  0.00    +0.148 HD
BRANCH   8  16
ATOM     16  C   UNL     1      35.296 -21.212 -19.912  0.00  0.00    +0.070 C 
ATOM     17  C   UNL     1      36.458 -21.375 -18.942  0.00  0.00    +0.021 C 
ATOM     18  C   UNL     1      34.033 -21.878 -19.383  0.00  0.00    +0.021 C 
ENDBRANCH   8  16
ENDBRANCH   2  10
BRANCH   3  21
ATOM     19  O   UNL     1      33.527 -12.497 -25.423  0.00  0.00    -0.269 OA
ATOM     20  N   UNL     1      33.986 -11.300 -23.517  0.00  0.00    -0.295 N 
ATOM     21  C   UNL     1      33.804 -12.522 -24.199  0.00  0.00    +0.260 C 
ATOM     22  H   UNL     1      34.202 -11.332 -22.557  0.00  0.00    +0.150 HD
BRANCH  20  23
ATOM     23  CA  UNL     1      33.876 -10.005 -24.149  0.00  0.00    +0.124 C 
BRANCH  23  25
ATOM     24 CL   UNL     1      31.516  -9.018 -19.622  0.00  0.00    -0.082 Cl
ATOM     25  C   UNL     1      33.272  -8.994 -23.198  0.00  0.00    -0.001 C 
ATOM     26  C   UNL     1      32.739  -9.430 -21.998  0.00  0.00    +0.009 C 
ATOM     27  C   UNL     1      33.270  -7.655 -23.548  0.00  0.00    -0.003 C 
ATOM     28  C   UNL     1      32.186  -8.499 -21.120  0.00  0.00    +0.057 C 
ATOM     29  C   UNL     1      32.716  -6.723 -22.670  0.00  0.00    +0.001 C 
ATOM     30  C   UNL     1      32.173  -7.145 -21.457  0.00  0.00    +0.011 C 
ENDBRANCH  23  25
BRANCH  23  31
ATOM     31  C   UNL     1      35.231  -9.554 -24.701  0.00  0.00    +0.161 C 
BRANCH  31  32
ATOM     32  O   UNL     1      35.509 -10.267 -25.901  0.00  0.00    -0.380 OA
ATOM     33  H   UNL     1      36.349  -9.958 -26.274  0.00  0.00    +0.211 HD
ENDBRANCH  31  32
ENDBRANCH  23  31
ENDBRANCH  20  23
ENDBRANCH   3  21
TORSDOF 7
ENDMDL
MODEL 4
REMARK VINA RESULT:     -10.6      5.536     12.073
REMARK  Name = 11719003
REMARK  7 active torsions:
REMARK  status: ('A' for Active; 'I' for Inactive)
REMARK    1  A    between atoms: C_2  and  C_10
REMARK    2  A    between atoms: CA_3  and  C_21
REMARK    3  A    between atoms: N_8  and  C_16
REMARK    4  A    between atoms: N_20  and  CA_23
REMARK    5  A    between atoms: CA_23  and  C_25
REMARK    6  A    between atoms: CA_23  and  C_31
REMARK    7  A    between atoms: C_31  and  O_32
REMARK                            x       y       z     vdW  Elec       q    Type
REMARK                         _______ _______ _______ _____ _____    ______ ____
ROOT
ATOM      1  N   UNL     1      36.094 -20.519 -19.848  0.00  0.00    -0.308 N 
ATOM      2  C   UNL     1      34.850 -19.261 -21.183  0.00  0.00    +0.017 C 
ATOM      3  CA  UNL     1      34.845 -21.083 -19.868  0.00  0.00    +0.102 C 
ATOM      4  C   UNL     1      34.049 -20.318 -20.693  0.00  0.00    +0.021 C 
ATOM      5  C   UNL     1      36.108 -19.406 -20.648  0.00  0.00    +0.062 C 
ATOM      6  H   UNL     1      36.863 -20.860 -19.337  0.00  0.00    +0.152 HD
ENDROOT
BRANCH   2  10
ATOM      7 CL   UNL     1      35.306 -19.703 -24.214  0.00  0.00    -0.081 Cl
ATOM      8  N   UNL     1      33.135 -14.800 -21.832  0.00  0.00    -0.320 N 
ATOM      9  N   UNL     1      33.810 -16.053 -23.743  0.00  0.00    -0.229 NA
ATOM     10  C   UNL     1      34.504 -18.186 -22.076  0.00  0.00    +0.016 C 
ATOM     11  C   UNL     1      33.647 -15.959 -22.388  0.00  0.00    +0.129 C 
ATOM     12  C   UNL     1      33.989 -17.016 -21.532  0.00  0.00    +0.035 C 
ATOM     13  C   UNL     1      34.674 -18.292 -23.451  0.00  0.00    +0.077 C 
ATOM     14  C   UNL     1      34.315 -17.207 -24.234  0.00  0.00    +0.112 C 
ATOM     15  H   UNL     1      33.026 -14.760 -20.855  0.00  0.00    +0.148 HD
BRANCH   8  16
ATOM     16  C   UNL     1      32.747 -13.643 -22.611  0.00  0.00    +0.070 C 
ATOM     17  C   UNL     1      31.984 -12.666 -21.726  0.00  0.00    +0.021 C 
ATOM     18  C   UNL     1      33.993 -12.999 -23.204  0.00  0.00    +0.021 C 
ENDBRANCH   8  16
ENDBRANCH   2  10
BRANCH   3  21
ATOM     19  O   UNL     1      34.112 -23.327 -19.672  0.00  0.00    -0.269 OA
ATOM     20  N   UNL     1      34.555 -22.185 -17.729  0.00  0.00    -0.295 N 
ATOM     21  C   UNL     1      34.492 -22.258 -19.137  0.00  0.00    +0.260 C 
ATOM     22  H   UNL     1      34.855 -21.342 -17.320  0.00  0.00    +0.150 HD
BRANCH  20  23
ATOM     23  CA  UNL     1      34.201 -23.281 -16.854  0.00  0.00    +0.124 C 
BRANCH  23  25
ATOM     24 CL   UNL     1      35.176 -24.633 -11.929  0.00  0.00    -0.082 Cl
ATOM     25  C   UNL     1      35.193 -23.400 -15.717  0.00  0.00    -0.001 C 
ATOM     26  C   UNL     1      34.768 -23.901 -14.500  0.00  0.00    +0.009 C 
ATOM     27  C   UNL     1      36.505 -23.009 -15.922  0.00  0.00    -0.003 C 
ATOM     28  C   UNL     1      35.682 -24.014 -13.452  0.00  0.00    +0.057 C 
ATOM     29  C   UNL     1      37.419 -23.121 -14.875  0.00  0.00    +0.001 C 
ATOM     30  C   UNL     1      37.008 -23.623 -13.640  0.00  0.00    +0.011 C 
ENDBRANCH  23  25
BRANCH  23  31
ATOM     31  C   UNL     1      32.760 -23.135 -16.360  0.00  0.00    +0.161 C 
BRANCH  31  32
ATOM     32  O   UNL     1      31.927 -22.754 -17.450  0.00  0.00    -0.380 OA
ATOM     33  H   UNL     1      32.368 -22.970 -18.286  0.00  0.00    +0.211 HD
ENDBRANCH  31  32
ENDBRANCH  23  31
ENDBRANCH  20  23
ENDBRANCH   3  21
TORSDOF 7
ENDMDL
MODEL 5
REMARK VINA RESULT:     -10.6      2.258      3.309
REMARK  Name = 11719003
REMARK  7 active torsions:
REMARK  status: ('A' for Active; 'I' for Inactive)
REMARK    1  A    between atoms: C_2  and  C_10
REMARK    2  A    between atoms: CA_3  and  C_21
REMARK    3  A    between atoms: N_8  and  C_16
REMARK    4  A    between atoms: N_20  and  CA_23
REMARK    5  A    between atoms: CA_23  and  C_25
REMARK    6  A    between atoms: CA_23  and  C_31
REMARK    7  A    between atoms: C_31  and  O_32
REMARK                            x       y       z     vdW  Elec       q    Type
REMARK                         _______ _______ _______ _____ _____    ______ ____
ROOT
ATOM      1  N   UNL     1      33.855 -10.745 -24.783  0.00  0.00    -0.308 N 
ATOM      2  C   UNL     1      33.688 -12.874 -24.192  0.00  0.00    +0.017 C 
ATOM      3  CA  UNL     1      33.151 -10.773 -23.608  0.00  0.00    +0.102 C 
ATOM      4  C   UNL     1      33.032 -12.089 -23.217  0.00  0.00    +0.021 C 
ATOM      5  C   UNL     1      34.189 -12.023 -25.148  0.00  0.00    +0.062 C 
ATOM      6  H   UNL     1      34.086  -9.932 -25.288  0.00  0.00    +0.152 HD
ENDROOT
BRANCH   2  10
ATOM      7 CL   UNL     1      32.977 -14.283 -26.856  0.00  0.00    -0.081 Cl
ATOM      8  N   UNL     1      34.949 -17.008 -22.050  0.00  0.00    -0.320 N 
ATOM      9  N   UNL     1      34.198 -17.076 -24.310  0.00  0.00    -0.229 NA
ATOM     10  C   UNL     1      33.853 -14.303 -24.259  0.00  0.00    +0.016 C 
ATOM     11  C   UNL     1      34.484 -16.359 -23.180  0.00  0.00    +0.129 C 
ATOM     12  C   UNL     1      34.319 -14.968 -23.131  0.00  0.00    +0.035 C 
ATOM     13  C   UNL     1      33.559 -15.021 -25.412  0.00  0.00    +0.077 C 
ATOM     14  C   UNL     1      33.746 -16.394 -25.386  0.00  0.00    +0.112 C 
ATOM     15  H   UNL     1      35.148 -16.468 -21.252  0.00  0.00    +0.148 HD
BRANCH   8  16
ATOM     16  C   UNL     1      35.159 -18.439 -21.977  0.00  0.00    +0.070 C 
ATOM     17  C   UNL     1      36.477 -18.725 -21.272  0.00  0.00    +0.021 C 
ATOM     18  C   UNL     1      33.987 -19.080 -21.246  0.00  0.00    +0.021 C 
ENDBRANCH   8  16
ENDBRANCH   2  10
BRANCH   3  21
ATOM     19  O   UNL     1      31.436  -9.403 -22.715  0.00  0.00    -0.269 OA
ATOM     20  N   UNL     1      33.592  -8.620 -22.586  0.00  0.00    -0.295 N 
ATOM     21  C   UNL     1      32.652  -9.605 -22.954  0.00  0.00    +0.260 C 
ATOM     22  H   UNL     1      34.543  -8.789 -22.778  0.00  0.00    +0.150 HD
BRANCH  20  23
ATOM     23  CA  UNL     1      33.237  -7.373 -21.945  0.00  0.00    +0.124 C 
BRANCH  23  25
ATOM     24 CL   UNL     1      33.236  -5.198 -26.668  0.00  0.00    -0.082 Cl
ATOM     25  C   UNL     1      32.589  -6.428 -22.934  0.00  0.00    -0.001 C 
ATOM     26  C   UNL     1      33.151  -6.274 -24.189  0.00  0.00    +0.009 C 
ATOM     27  C   UNL     1      31.448  -5.739 -22.562  0.00  0.00    -0.003 C 
ATOM     28  C   UNL     1      32.554  -5.405 -25.101  0.00  0.00    +0.057 C 
ATOM     29  C   UNL     1      30.850  -4.870 -23.474  0.00  0.00    +0.001 C 
ATOM     30  C   UNL     1      31.404  -4.702 -24.744  0.00  0.00    +0.011 C 
ENDBRANCH  23  25
BRANCH  23  31
ATOM     31  C   UNL     1      32.359  -7.627 -20.717  0.00  0.00    +0.161 C 
BRANCH  31  32
ATOM     32  O   UNL     1      33.106  -7.342 -19.540  0.00  0.00    -0.380 OA
ATOM     33  H   UNL     1      32.875  -7.980 -18.847  0.00  0.00    +0.211 HD
ENDBRANCH  31  32
ENDBRANCH  23  31
ENDBRANCH  20  23
ENDBRANCH   3  21
TORSDOF 7
ENDMDL
MODEL 6
REMARK VINA RESULT:     -10.6      5.022      8.871
REMARK  Name = 11719003
REMARK  7 active torsions:
REMARK  status: ('A' for Active; 'I' for Inactive)
REMARK    1  A    between atoms: C_2  and  C_10
REMARK    2  A    between atoms: CA_3  and  C_21
REMARK    3  A    between atoms: N_8  and  C_16
REMARK    4  A    between atoms: N_20  and  CA_23
REMARK    5  A    between atoms: CA_23  and  C_25
REMARK    6  A    between atoms: CA_23  and  C_31
REMARK    7  A    between atoms: C_31  and  O_32
REMARK                            x       y       z     vdW  Elec       q    Type
REMARK                         _______ _______ _______ _____ _____    ______ ____
ROOT
ATOM      1  N   UNL     1      36.318 -20.776 -19.757  0.00  0.00    -0.308 N 
ATOM      2  C   UNL     1      35.466 -21.952 -18.083  0.00  0.00    +0.017 C 
ATOM      3  CA  UNL     1      34.955 -20.708 -19.883  0.00  0.00    +0.102 C 
ATOM      4  C   UNL     1      34.399 -21.433 -18.852  0.00  0.00    +0.021 C 
ATOM      5  C   UNL     1      36.641 -21.533 -18.661  0.00  0.00    +0.062 C 
ATOM      6  H   UNL     1      36.967 -20.348 -20.361  0.00  0.00    +0.152 HD
ENDROOT
BRANCH   2  10
ATOM      7 CL   UNL     1      32.746 -23.186 -17.269  0.00  0.00    -0.081 Cl
ATOM      8  N   UNL     1      37.778 -23.953 -14.352  0.00  0.00    -0.320 N 
ATOM      9  N   UNL     1      35.443 -24.359 -14.600  0.00  0.00    -0.229 NA
ATOM     10  C   UNL     1      35.431 -22.775 -16.903  0.00  0.00    +0.016 C 
ATOM     11  C   UNL     1      36.594 -23.768 -15.045  0.00  0.00    +0.129 C 
ATOM     12  C   UNL     1      36.612 -22.969 -16.197  0.00  0.00    +0.035 C 
ATOM     13  C   UNL     1      34.256 -23.371 -16.460  0.00  0.00    +0.077 C 
ATOM     14  C   UNL     1      34.315 -24.146 -15.313  0.00  0.00    +0.112 C 
ATOM     15  H   UNL     1      38.591 -23.517 -14.695  0.00  0.00    +0.148 HD
BRANCH   8  16
ATOM     16  C   UNL     1      37.885 -24.753 -13.151  0.00  0.00    +0.070 C 
ATOM     17  C   UNL     1      39.051 -25.723 -13.288  0.00  0.00    +0.021 C 
ATOM     18  C   UNL     1      38.067 -23.833 -11.951  0.00  0.00    +0.021 C 
ENDBRANCH   8  16
ENDBRANCH   2  10
BRANCH   3  21
ATOM     19  O   UNL     1      33.094 -20.191 -21.254  0.00  0.00    -0.269 OA
ATOM     20  N   UNL     1      35.043 -19.038 -21.637  0.00  0.00    -0.295 N 
ATOM     21  C   UNL     1      34.289 -19.996 -20.926  0.00  0.00    +0.260 C 
ATOM     22  H   UNL     1      35.979 -18.892 -21.371  0.00  0.00    +0.150 HD
BRANCH  20  23
ATOM     23  CA  UNL     1      34.517 -18.260 -22.736  0.00  0.00    +0.124 C 
BRANCH  23  25
ATOM     24 CL   UNL     1      33.850 -13.325 -24.234  0.00  0.00    -0.082 Cl
ATOM     25  C   UNL     1      34.436 -16.795 -22.365  0.00  0.00    -0.001 C 
ATOM     26  C   UNL     1      34.208 -15.858 -23.358  0.00  0.00    +0.009 C 
ATOM     27  C   UNL     1      34.588 -16.424 -21.040  0.00  0.00    -0.003 C 
ATOM     28  C   UNL     1      34.132 -14.508 -23.016  0.00  0.00    +0.057 C 
ATOM     29  C   UNL     1      34.511 -15.075 -20.698  0.00  0.00    +0.001 C 
ATOM     30  C   UNL     1      34.284 -14.116 -21.686  0.00  0.00    +0.011 C 
ENDBRANCH  23  25
BRANCH  23  31
ATOM     31  C   UNL     1      35.335 -18.497 -24.008  0.00  0.00    +0.161 C 
BRANCH  31  32
ATOM     32  O   UNL     1      34.485 -19.023 -25.022  0.00  0.00    -0.380 OA
ATOM     33  H   UNL     1      33.848 -19.636 -24.624  0.00  0.00    +0.211 HD
ENDBRANCH  31  32
ENDBRANCH  23  31
ENDBRANCH  20  23
ENDBRANCH   3  21
TORSDOF 7
ENDMDL
MODEL 7
REMARK VINA RESULT:     -10.5      4.002      7.099
REMARK  Name = 11719003
REMARK  7 active torsions:
REMARK  status: ('A' for Active; 'I' for Inactive)
REMARK    1  A    between atoms: C_2  and  C_10
REMARK    2  A    between atoms: CA_3  and  C_21
REMARK    3  A    between atoms: N_8  and  C_16
REMARK    4  A    between atoms: N_20  and  CA_23
REMARK    5  A    between atoms: CA_23  and  C_25
REMARK    6  A    between atoms: CA_23  and  C_31
REMARK    7  A    between atoms: C_31  and  O_32
REMARK                            x       y       z     vdW  Elec       q    Type
REMARK                         _______ _______ _______ _____ _____    ______ ____
ROOT
ATOM      1  N   UNL     1      36.737 -19.381 -21.018  0.00  0.00    -0.308 N 
ATOM      2  C   UNL     1      35.700 -20.774 -19.642  0.00  0.00    +0.017 C 
ATOM      3  CA  UNL     1      35.438 -19.464 -21.448  0.00  0.00    +0.102 C 
ATOM      4  C   UNL     1      34.769 -20.326 -20.607  0.00  0.00    +0.021 C 
ATOM      5  C   UNL     1      36.907 -20.177 -19.916  0.00  0.00    +0.062 C 
ATOM      6  H   UNL     1      37.440 -18.834 -21.437  0.00  0.00    +0.152 HD
ENDROOT
BRANCH   2  10
ATOM      7 CL   UNL     1      32.876 -21.973 -19.225  0.00  0.00    -0.081 Cl
ATOM      8  N   UNL     1      37.538 -23.135 -15.858  0.00  0.00    -0.320 N 
ATOM      9  N   UNL     1      35.235 -23.441 -16.386  0.00  0.00    -0.229 NA
ATOM     10  C   UNL     1      35.515 -21.684 -18.542  0.00  0.00    +0.016 C 
ATOM     11  C   UNL     1      36.443 -22.858 -16.657  0.00  0.00    +0.129 C 
ATOM     12  C   UNL     1      36.607 -21.973 -17.732  0.00  0.00    +0.035 C 
ATOM     13  C   UNL     1      34.283 -22.272 -18.276  0.00  0.00    +0.077 C 
ATOM     14  C   UNL     1      34.197 -23.135 -17.196  0.00  0.00    +0.112 C 
ATOM     15  H   UNL     1      38.395 -22.703 -16.077  0.00  0.00    +0.148 HD
BRANCH   8  16
ATOM     16  C   UNL     1      37.493 -24.030 -14.721  0.00  0.00    +0.070 C 
ATOM     17  C   UNL     1      38.787 -24.830 -14.651  0.00  0.00    +0.021 C 
ATOM     18  C   UNL     1      37.275 -23.216 -13.453  0.00  0.00    +0.021 C 
ENDBRANCH   8  16
ENDBRANCH   2  10
BRANCH   3  21
ATOM     19  O   UNL     1      34.764 -19.271 -23.710  0.00  0.00    -0.269 OA
ATOM     20  N   UNL     1      34.626 -17.389 -22.401  0.00  0.00    -0.295 N 
ATOM     21  C   UNL     1      34.929 -18.755 -22.579  0.00  0.00    +0.260 C 
ATOM     22  H   UNL     1      34.759 -16.995 -21.509  0.00  0.00    +0.150 HD
BRANCH  20  23
ATOM     23  CA  UNL     1      34.132 -16.534 -23.458  0.00  0.00    +0.124 C 
BRANCH  23  25
ATOM     24 CL   UNL     1      33.371 -11.411 -23.912  0.00  0.00    -0.082 Cl
ATOM     25  C   UNL     1      33.555 -15.257 -22.888  0.00  0.00    -0.001 C 
ATOM     26  C   UNL     1      33.716 -14.073 -23.586  0.00  0.00    +0.009 C 
ATOM     27  C   UNL     1      32.875 -15.301 -21.684  0.00  0.00    -0.003 C 
ATOM     28  C   UNL     1      33.182 -12.896 -23.062  0.00  0.00    +0.057 C 
ATOM     29  C   UNL     1      32.341 -14.124 -21.160  0.00  0.00    +0.001 C 
ATOM     30  C   UNL     1      32.495 -12.921 -21.849  0.00  0.00    +0.011 C 
ENDBRANCH  23  25
BRANCH  23  31
ATOM     31  C   UNL     1      35.226 -16.271 -24.496  0.00  0.00    +0.161 C 
BRANCH  31  32
ATOM     32  O   UNL     1      34.833 -16.831 -25.744  0.00  0.00    -0.380 OA
ATOM     33  H   UNL     1      35.081 -17.768 -25.771  0.00  0.00    +0.211 HD
ENDBRANCH  31  32
ENDBRANCH  23  31
ENDBRANCH  20  23
ENDBRANCH   3  21
TORSDOF 7
ENDMDL
MODEL 8
REMARK VINA RESULT:     -10.4      2.346      3.690
REMARK  Name = 11719003
REMARK  7 active torsions:
REMARK  status: ('A' for Active; 'I' for Inactive)
REMARK    1  A    between atoms: C_2  and  C_10
REMARK    2  A    between atoms: CA_3  and  C_21
REMARK    3  A    between atoms: N_8  and  C_16
REMARK    4  A    between atoms: N_20  and  CA_23
REMARK    5  A    between atoms: CA_23  and  C_25
REMARK    6  A    between atoms: CA_23  and  C_31
REMARK    7  A    between atoms: C_31  and  O_32
REMARK                            x       y       z     vdW  Elec       q    Type
REMARK                         _______ _______ _______ _____ _____    ______ ____
ROOT
ATOM      1  N   UNL     1      34.541 -17.430 -24.882  0.00  0.00    -0.308 N 
ATOM      2  C   UNL     1      34.738 -18.182 -22.807  0.00  0.00    +0.017 C 
ATOM      3  CA  UNL     1      34.066 -16.442 -24.059  0.00  0.00    +0.102 C 
ATOM      4  C   UNL     1      34.178 -16.884 -22.759  0.00  0.00    +0.021 C 
ATOM      5  C   UNL     1      34.954 -18.497 -24.127  0.00  0.00    +0.062 C 
ATOM      6  H   UNL     1      34.579 -17.382 -25.864  0.00  0.00    +0.152 HD
ENDROOT
BRANCH   2  10
ATOM      7 CL   UNL     1      37.711 -18.440 -21.978  0.00  0.00    -0.081 Cl
ATOM      8  N   UNL     1      33.273 -21.355 -19.482  0.00  0.00    -0.320 N 
ATOM      9  N   UNL     1      35.597 -20.850 -19.634  0.00  0.00    -0.229 NA
ATOM     10  C   UNL     1      35.058 -19.082 -21.730  0.00  0.00    +0.016 C 
ATOM     11  C   UNL     1      34.315 -20.664 -20.075  0.00  0.00    +0.129 C 
ATOM     12  C   UNL     1      34.021 -19.783 -21.125  0.00  0.00    +0.035 C 
ATOM     13  C   UNL     1      36.364 -19.264 -21.289  0.00  0.00    +0.077 C 
ATOM     14  C   UNL     1      36.578 -20.152 -20.247  0.00  0.00    +0.112 C 
ATOM     15  H   UNL     1      32.361 -21.200 -19.818  0.00  0.00    +0.148 HD
BRANCH   8  16
ATOM     16  C   UNL     1      33.451 -22.291 -18.393  0.00  0.00    +0.070 C 
ATOM     17  C   UNL     1      32.147 -22.423 -17.617  0.00  0.00    +0.021 C 
ATOM     18  C   UNL     1      33.900 -23.633 -18.955  0.00  0.00    +0.021 C 
ENDBRANCH   8  16
ENDBRANCH   2  10
BRANCH   3  21
ATOM     19  O   UNL     1      33.212 -14.982 -25.718  0.00  0.00    -0.269 OA
ATOM     20  N   UNL     1      33.468 -14.139 -23.597  0.00  0.00    -0.295 N 
ATOM     21  C   UNL     1      33.557 -15.194 -24.530  0.00  0.00    +0.260 C 
ATOM     22  H   UNL     1      33.740 -14.317 -22.667  0.00  0.00    +0.150 HD
BRANCH  20  23
ATOM     23  CA  UNL     1      33.000 -12.812 -23.929  0.00  0.00    +0.124 C 
BRANCH  23  25
ATOM     24 CL   UNL     1      31.774  -8.354 -21.550  0.00  0.00    -0.082 Cl
ATOM     25  C   UNL     1      32.477 -12.104 -22.698  0.00  0.00    -0.001 C 
ATOM     26  C   UNL     1      32.383 -10.724 -22.702  0.00  0.00    +0.009 C 
ATOM     27  C   UNL     1      32.100 -12.853 -21.597  0.00  0.00    -0.003 C 
ATOM     28  C   UNL     1      31.899 -10.071 -21.569  0.00  0.00    +0.057 C 
ATOM     29  C   UNL     1      31.616 -12.200 -20.464  0.00  0.00    +0.001 C 
ATOM     30  C   UNL     1      31.516 -10.809 -20.449  0.00  0.00    +0.011 C 
ENDBRANCH  23  25
BRANCH  23  31
ATOM     31  C   UNL     1      34.096 -12.015 -24.642  0.00  0.00    +0.161 C 
BRANCH  31  32
ATOM     32  O   UNL     1      33.793 -11.938 -26.030  0.00  0.00    -0.380 OA
ATOM     33  H   UNL     1      34.526 -12.314 -26.543  0.00  0.00    +0.211 HD
ENDBRANCH  31  32
ENDBRANCH  23  31
ENDBRANCH  20  23
ENDBRANCH   3  21
TORSDOF 7
ENDMDL
MODEL 9
REMARK VINA RESULT:     -10.3      6.788     12.999
REMARK  Name = 11719003
REMARK  7 active torsions:
REMARK  status: ('A' for Active; 'I' for Inactive)
REMARK    1  A    between atoms: C_2  and  C_10
REMARK    2  A    between atoms: CA_3  and  C_21
REMARK    3  A    between atoms: N_8  and  C_16
REMARK    4  A    between atoms: N_20  and  CA_23
REMARK    5  A    between atoms: CA_23  and  C_25
REMARK    6  A    between atoms: CA_23  and  C_31
REMARK    7  A    between atoms: C_31  and  O_32
REMARK                            x       y       z     vdW  Elec       q    Type
REMARK                         _______ _______ _______ _____ _____    ______ ____
ROOT
ATOM      1  N   UNL     1      32.571 -21.745 -18.960  0.00  0.00    -0.308 N 
ATOM      2  C   UNL     1      34.251 -20.677 -19.934  0.00  0.00    +0.017 C 
ATOM      3  CA  UNL     1      33.723 -22.348 -18.529  0.00  0.00    +0.102 C 
ATOM      4  C   UNL     1      34.786 -21.702 -19.121  0.00  0.00    +0.021 C 
ATOM      5  C   UNL     1      32.882 -20.723 -19.819  0.00  0.00    +0.062 C 
ATOM      6  H   UNL     1      31.659 -22.005 -18.695  0.00  0.00    +0.152 HD
ENDROOT
BRANCH   2  10
ATOM      7 CL   UNL     1      37.343 -20.805 -20.051  0.00  0.00    -0.081 Cl
ATOM      8  N   UNL     1      34.037 -16.935 -22.970  0.00  0.00    -0.320 N 
ATOM      9  N   UNL     1      36.174 -17.822 -22.399  0.00  0.00    -0.229 NA
ATOM     10  C   UNL     1      34.930 -19.718 -20.765  0.00  0.00    +0.016 C 
ATOM     11  C   UNL     1      34.811 -17.851 -22.279  0.00  0.00    +0.129 C 
ATOM     12  C   UNL     1      34.165 -18.792 -21.465  0.00  0.00    +0.035 C 
ATOM     13  C   UNL     1      36.315 -19.698 -20.881  0.00  0.00    +0.077 C 
ATOM     14  C   UNL     1      36.883 -18.737 -21.703  0.00  0.00    +0.112 C 
ATOM     15  H   UNL     1      33.060 -16.979 -22.866  0.00  0.00    +0.148 HD
BRANCH   8  16
ATOM     16  C   UNL     1      34.587 -15.916 -23.838  0.00  0.00    +0.070 C 
ATOM     17  C   UNL     1      34.015 -16.077 -25.240  0.00  0.00    +0.021 C 
ATOM     18  C   UNL     1      34.269 -14.542 -23.263  0.00  0.00    +0.021 C 
ENDBRANCH   8  16
ENDBRANCH   2  10
BRANCH   3  21
ATOM     19  O   UNL     1      33.616 -24.650 -17.976  0.00  0.00    -0.269 OA
ATOM     20  N   UNL     1      33.908 -23.160 -16.252  0.00  0.00    -0.295 N 
ATOM     21  C   UNL     1      33.749 -23.453 -17.623  0.00  0.00    +0.260 C 
ATOM     22  H   UNL     1      34.013 -22.217 -15.987  0.00  0.00    +0.150 HD
BRANCH  20  23
ATOM     23  CA  UNL     1      33.925 -24.166 -15.215  0.00  0.00    +0.124 C 
BRANCH  23  25
ATOM     24 CL   UNL     1      37.582 -22.694 -11.824  0.00  0.00    -0.082 Cl
ATOM     25  C   UNL     1      35.323 -24.343 -14.661  0.00  0.00    -0.001 C 
ATOM     26  C   UNL     1      35.746 -23.530 -13.625  0.00  0.00    +0.009 C 
ATOM     27  C   UNL     1      36.145 -25.315 -15.203  0.00  0.00    -0.003 C 
ATOM     28  C   UNL     1      37.033 -23.694 -13.113  0.00  0.00    +0.057 C 
ATOM     29  C   UNL     1      37.432 -25.479 -14.691  0.00  0.00    +0.001 C 
ATOM     30  C   UNL     1      37.877 -24.668 -13.647  0.00  0.00    +0.011 C 
ENDBRANCH  23  25
BRANCH  23  31
ATOM     31  C   UNL     1      32.901 -23.837 -14.125  0.00  0.00    +0.161 C 
BRANCH  31  32
ATOM     32  O   UNL     1      32.646 -25.005 -13.353  0.00  0.00    -0.380 OA
ATOM     33  H   UNL     1      32.588 -25.775 -13.940  0.00  0.00    +0.211 HD
ENDBRANCH  31  32
ENDBRANCH  23  31
ENDBRANCH  20  23
ENDBRANCH   3  21
TORSDOF 7
ENDMDL
