MODEL 1
REMARK VINA RESULT:      -8.6      0.000      0.000
REMARK  Name = 324690
REMARK  2 active torsions:
REMARK  status: ('A' for Active; 'I' for Inactive)
REMARK    1  A    between atoms: C_1  and  C_11
REMARK    2  A    between atoms: C_4  and  S_7
REMARK                            x       y       z     vdW  Elec       q    Type
REMARK                         _______ _______ _______ _____ _____    ______ ____
ROOT
ATOM      1  C   UNL     1      34.764 -19.553 -21.173  0.00  0.00    -0.023 C 
ATOM      2  C   UNL     1      35.784 -20.245 -20.568  0.00  0.00    -0.003 C 
ATOM      3  C   UNL     1      33.437 -19.811 -20.943  0.00  0.00    -0.003 C 
ATOM      4  C   UNL     1      34.113 -21.556 -19.415  0.00  0.00    +0.112 C 
ATOM      5  C   UNL     1      35.452 -21.264 -19.675  0.00  0.00    +0.019 C 
ATOM      6  C   UNL     1      33.105 -20.829 -20.049  0.00  0.00    +0.019 C 
ENDROOT
BRANCH   4   7
ATOM      7  S   UNL     1      33.698 -22.830 -18.295  0.00  0.00    +0.042 S 
ATOM      8  O   UNL     1      33.794 -24.212 -19.163  0.00  0.00    -0.065 OA
ATOM      9  O   UNL     1      34.739 -22.893 -17.279  0.00  0.00    -0.065 OA
ATOM     10  O   UNL     1      32.307 -22.628 -17.920  0.00  0.00    -0.065 OA
ENDBRANCH   4   7
BRANCH   1  11
ATOM     11  C   UNL     1      35.130 -18.431 -22.160  0.00  0.00    +0.019 C 
ATOM     12  C   UNL     1      36.663 -18.250 -22.196  0.00  0.00    +0.004 C 
ATOM     13  C   UNL     1      34.474 -17.108 -21.708  0.00  0.00    +0.004 C 
ATOM     14  C   UNL     1      34.667 -18.699 -23.609  0.00  0.00    +0.004 C 
ENDBRANCH   1  11
TORSDOF 2
ENDMDL
MODEL 2
REMARK VINA RESULT:      -8.5      0.131      2.096
REMARK  Name = 324690
REMARK  2 active torsions:
REMARK  status: ('A' for Active; 'I' for Inactive)
REMARK    1  A    between atoms: C_1  and  C_11
REMARK    2  A    between atoms: C_4  and  S_7
REMARK                            x       y       z     vdW  Elec       q    Type
REMARK                         _______ _______ _______ _____ _____    ______ ____
ROOT
ATOM      1  C   UNL     1      34.763 -19.591 -21.095  0.00  0.00    -0.023 C 
ATOM      2  C   UNL     1      33.426 -19.808 -20.872  0.00  0.00    -0.003 C 
ATOM      3  C   UNL     1      35.756 -20.346 -20.524  0.00  0.00    -0.003 C 
ATOM      4  C   UNL     1      34.039 -21.641 -19.421  0.00  0.00    +0.112 C 
ATOM      5  C   UNL     1      33.059 -20.850 -20.020  0.00  0.00    +0.019 C 
ATOM      6  C   UNL     1      35.388 -21.389 -19.673  0.00  0.00    +0.019 C 
ENDROOT
BRANCH   4   7
ATOM      7  S   UNL     1      33.579 -22.946 -18.357  0.00  0.00    +0.042 S 
ATOM      8  O   UNL     1      34.660 -22.901 -17.132  0.00  0.00    -0.065 OA
ATOM      9  O   UNL     1      32.278 -22.624 -17.787  0.00  0.00    -0.065 OA
ATOM     10  O   UNL     1      33.781 -24.184 -19.093  0.00  0.00    -0.065 OA
ENDBRANCH   4   7
BRANCH   1  11
ATOM     11  C   UNL     1      35.168 -18.441 -22.032  0.00  0.00    +0.019 C 
ATOM     12  C   UNL     1      34.650 -18.725 -23.458  0.00  0.00    +0.004 C 
ATOM     13  C   UNL     1      36.707 -18.317 -22.068  0.00  0.00    +0.004 C 
ATOM     14  C   UNL     1      34.609 -17.064 -21.610  0.00  0.00    +0.004 C 
ENDBRANCH   1  11
TORSDOF 2
ENDMDL
MODEL 3
REMARK VINA RESULT:      -8.4      0.169      1.655
REMARK  Name = 324690
REMARK  2 active torsions:
REMARK  status: ('A' for Active; 'I' for Inactive)
REMARK    1  A    between atoms: C_1  and  C_11
REMARK    2  A    between atoms: C_4  and  S_7
REMARK                            x       y       z     vdW  Elec       q    Type
REMARK                         _______ _______ _______ _____ _____    ______ ____
ROOT
ATOM      1  C   UNL     1      34.848 -19.618 -21.063  0.00  0.00    -0.023 C 
ATOM      2  C   UNL     1      35.867 -20.362 -20.521  0.00  0.00    -0.003 C 
ATOM      3  C   UNL     1      33.522 -19.852 -20.804  0.00  0.00    -0.003 C 
ATOM      4  C   UNL     1      34.197 -21.681 -19.375  0.00  0.00    +0.112 C 
ATOM      5  C   UNL     1      35.535 -21.411 -19.664  0.00  0.00    +0.019 C 
ATOM      6  C   UNL     1      33.190 -20.901 -19.945  0.00  0.00    +0.019 C 
ENDROOT
BRANCH   4   7
ATOM      7  S   UNL     1      33.782 -22.993 -18.301  0.00  0.00    +0.042 S 
ATOM      8  O   UNL     1      32.245 -22.694 -17.832  0.00  0.00    -0.065 OA
ATOM      9  O   UNL     1      33.758 -24.222 -19.081  0.00  0.00    -0.065 OA
ATOM     10  O   UNL     1      34.642 -22.872 -17.133  0.00  0.00    -0.065 OA
ENDBRANCH   4   7
BRANCH   1  11
ATOM     11  C   UNL     1      35.214 -18.462 -22.010  0.00  0.00    +0.019 C 
ATOM     12  C   UNL     1      34.631 -18.736 -23.413  0.00  0.00    +0.004 C 
ATOM     13  C   UNL     1      36.750 -18.342 -22.114  0.00  0.00    +0.004 C 
ATOM     14  C   UNL     1      34.678 -17.087 -21.552  0.00  0.00    +0.004 C 
ENDBRANCH   1  11
TORSDOF 2
ENDMDL
MODEL 4
REMARK VINA RESULT:      -6.9      6.343      7.569
REMARK  Name = 324690
REMARK  2 active torsions:
REMARK  status: ('A' for Active; 'I' for Inactive)
REMARK    1  A    between atoms: C_1  and  C_11
REMARK    2  A    between atoms: C_4  and  S_7
REMARK                            x       y       z     vdW  Elec       q    Type
REMARK                         _______ _______ _______ _____ _____    ______ ____
ROOT
ATOM      1  C   UNL     1      33.294 -23.593 -14.884  0.00  0.00    -0.023 C 
ATOM      2  C   UNL     1      32.380 -23.624 -13.860  0.00  0.00    -0.003 C 
ATOM      3  C   UNL     1      32.953 -23.367 -16.193  0.00  0.00    -0.003 C 
ATOM      4  C   UNL     1      30.649 -23.186 -15.487  0.00  0.00    +0.112 C 
ATOM      5  C   UNL     1      31.035 -23.418 -14.167  0.00  0.00    +0.019 C 
ATOM      6  C   UNL     1      31.607 -23.160 -16.500  0.00  0.00    +0.019 C 
ENDROOT
BRANCH   4   7
ATOM      7  S   UNL     1      28.965 -22.927 -15.872  0.00  0.00    +0.042 S 
ATOM      8  O   UNL     1      28.490 -21.694 -14.908  0.00  0.00    -0.065 OA
ATOM      9  O   UNL     1      28.886 -22.448 -17.244  0.00  0.00    -0.065 OA
ATOM     10  O   UNL     1      28.248 -24.123 -15.461  0.00  0.00    -0.065 OA
ENDBRANCH   4   7
BRANCH   1  11
ATOM     11  C   UNL     1      34.777 -23.821 -14.545  0.00  0.00    +0.019 C 
ATOM     12  C   UNL     1      34.958 -23.869 -13.013  0.00  0.00    +0.004 C 
ATOM     13  C   UNL     1      35.625 -22.666 -15.120  0.00  0.00    +0.004 C 
ATOM     14  C   UNL     1      35.351 -25.138 -15.114  0.00  0.00    +0.004 C 
ENDBRANCH   1  11
TORSDOF 2
ENDMDL
MODEL 5
REMARK VINA RESULT:      -6.9      6.241      7.444
REMARK  Name = 324690
REMARK  2 active torsions:
REMARK  status: ('A' for Active; 'I' for Inactive)
REMARK    1  A    between atoms: C_1  and  C_11
REMARK    2  A    between atoms: C_4  and  S_7
REMARK                            x       y       z     vdW  Elec       q    Type
REMARK                         _______ _______ _______ _____ _____    ______ ____
ROOT
ATOM      1  C   UNL     1      33.431 -23.560 -14.922  0.00  0.00    -0.023 C 
ATOM      2  C   UNL     1      32.521 -23.531 -13.895  0.00  0.00    -0.003 C 
ATOM      3  C   UNL     1      33.094 -23.360 -16.236  0.00  0.00    -0.003 C 
ATOM      4  C   UNL     1      30.800 -23.078 -15.531  0.00  0.00    +0.112 C 
ATOM      5  C   UNL     1      31.183 -23.287 -14.206  0.00  0.00    +0.019 C 
ATOM      6  C   UNL     1      31.756 -23.115 -16.546  0.00  0.00    +0.019 C 
ENDROOT
BRANCH   4   7
ATOM      7  S   UNL     1      29.125 -22.771 -15.918  0.00  0.00    +0.042 S 
ATOM      8  O   UNL     1      28.355 -24.187 -15.646  0.00  0.00    -0.065 OA
ATOM      9  O   UNL     1      28.608 -21.813 -14.952  0.00  0.00    -0.065 OA
ATOM     10  O   UNL     1      29.065 -22.492 -17.345  0.00  0.00    -0.065 OA
ENDBRANCH   4   7
BRANCH   1  11
ATOM     11  C   UNL     1      34.906 -23.831 -14.580  0.00  0.00    +0.019 C 
ATOM     12  C   UNL     1      35.087 -23.864 -13.047  0.00  0.00    +0.004 C 
ATOM     13  C   UNL     1      35.790 -22.711 -15.171  0.00  0.00    +0.004 C 
ATOM     14  C   UNL     1      35.439 -25.172 -15.132  0.00  0.00    +0.004 C 
ENDBRANCH   1  11
TORSDOF 2
ENDMDL
MODEL 6
REMARK VINA RESULT:      -6.8      8.564     10.393
REMARK  Name = 324690
REMARK  2 active torsions:
REMARK  status: ('A' for Active; 'I' for Inactive)
REMARK    1  A    between atoms: C_1  and  C_11
REMARK    2  A    between atoms: C_4  and  S_7
REMARK                            x       y       z     vdW  Elec       q    Type
REMARK                         _______ _______ _______ _____ _____    ______ ____
ROOT
ATOM      1  C   UNL     1      32.741  -9.720 -23.104  0.00  0.00    -0.023 C 
ATOM      2  C   UNL     1      33.665 -10.236 -23.978  0.00  0.00    -0.003 C 
ATOM      3  C   UNL     1      31.942 -10.498 -22.304  0.00  0.00    -0.003 C 
ATOM      4  C   UNL     1      33.005 -12.446 -23.259  0.00  0.00    +0.112 C 
ATOM      5  C   UNL     1      33.798 -11.622 -24.057  0.00  0.00    +0.019 C 
ATOM      6  C   UNL     1      32.077 -11.884 -22.382  0.00  0.00    +0.019 C 
ENDROOT
BRANCH   4   7
ATOM      7  S   UNL     1      33.173 -14.182 -23.357  0.00  0.00    +0.042 S 
ATOM      8  O   UNL     1      34.729 -14.485 -22.957  0.00  0.00    -0.065 OA
ATOM      9  O   UNL     1      32.345 -14.773 -22.316  0.00  0.00    -0.065 OA
ATOM     10  O   UNL     1      32.986 -14.547 -24.752  0.00  0.00    -0.065 OA
ENDBRANCH   4   7
BRANCH   1  11
ATOM     11  C   UNL     1      32.592  -8.192 -23.018  0.00  0.00    +0.019 C 
ATOM     12  C   UNL     1      31.362  -7.742 -23.836  0.00  0.00    +0.004 C 
ATOM     13  C   UNL     1      33.856  -7.514 -23.591  0.00  0.00    +0.004 C 
ATOM     14  C   UNL     1      32.402  -7.663 -21.579  0.00  0.00    +0.004 C 
ENDBRANCH   1  11
TORSDOF 2
ENDMDL
MODEL 7
REMARK VINA RESULT:      -6.8      8.563     10.375
REMARK  Name = 324690
REMARK  2 active torsions:
REMARK  status: ('A' for Active; 'I' for Inactive)
REMARK    1  A    between atoms: C_1  and  C_11
REMARK    2  A    between atoms: C_4  and  S_7
REMARK                            x       y       z     vdW  Elec       q    Type
REMARK                         _______ _______ _______ _____ _____    ______ ____
ROOT
ATOM      1  C   UNL     1      32.760  -9.715 -23.126  0.00  0.00    -0.023 C 
ATOM      2  C   UNL     1      31.961 -10.482 -22.316  0.00  0.00    -0.003 C 
ATOM      3  C   UNL     1      33.678 -10.241 -23.999  0.00  0.00    -0.003 C 
ATOM      4  C   UNL     1      33.013 -12.443 -23.257  0.00  0.00    +0.112 C 
ATOM      5  C   UNL     1      32.091 -11.870 -22.382  0.00  0.00    +0.019 C 
ATOM      6  C   UNL     1      33.807 -11.629 -24.066  0.00  0.00    +0.019 C 
ENDROOT
BRANCH   4   7
ATOM      7  S   UNL     1      33.175 -14.180 -23.342  0.00  0.00    +0.042 S 
ATOM      8  O   UNL     1      34.727 -14.487 -22.928  0.00  0.00    -0.065 OA
ATOM      9  O   UNL     1      32.336 -14.760 -22.303  0.00  0.00    -0.065 OA
ATOM     10  O   UNL     1      32.996 -14.555 -24.735  0.00  0.00    -0.065 OA
ENDBRANCH   4   7
BRANCH   1  11
ATOM     11  C   UNL     1      32.617  -8.185 -23.052  0.00  0.00    +0.019 C 
ATOM     12  C   UNL     1      33.909  -7.517 -23.571  0.00  0.00    +0.004 C 
ATOM     13  C   UNL     1      32.379  -7.756 -21.588  0.00  0.00    +0.004 C 
ATOM     14  C   UNL     1      31.445  -7.625 -23.888  0.00  0.00    +0.004 C 
ENDBRANCH   1  11
TORSDOF 2
ENDMDL
MODEL 8
REMARK VINA RESULT:      -6.8      6.915      8.351
REMARK  Name = 324690
REMARK  2 active torsions:
REMARK  status: ('A' for Active; 'I' for Inactive)
REMARK    1  A    between atoms: C_1  and  C_11
REMARK    2  A    between atoms: C_4  and  S_7
REMARK                            x       y       z     vdW  Elec       q    Type
REMARK                         _______ _______ _______ _____ _____    ______ ____
ROOT
ATOM      1  C   UNL     1      33.696 -23.693 -14.298  0.00  0.00    -0.023 C 
ATOM      2  C   UNL     1      34.768 -23.223 -15.015  0.00  0.00    -0.003 C 
ATOM      3  C   UNL     1      33.804 -24.226 -13.039  0.00  0.00    -0.003 C 
ATOM      4  C   UNL     1      36.185 -23.827 -13.153  0.00  0.00    +0.112 C 
ATOM      5  C   UNL     1      36.034 -23.292 -14.432  0.00  0.00    +0.019 C 
ATOM      6  C   UNL     1      35.070 -24.294 -12.456  0.00  0.00    +0.019 C 
ENDROOT
BRANCH   4   7
ATOM      7  S   UNL     1      37.769 -23.912 -12.423  0.00  0.00    +0.042 S 
ATOM      8  O   UNL     1      38.080 -22.397 -11.896  0.00  0.00    -0.065 OA
ATOM      9  O   UNL     1      37.676 -24.762 -11.245  0.00  0.00    -0.065 OA
ATOM     10  O   UNL     1      38.710 -24.222 -13.489  0.00  0.00    -0.065 OA
ENDBRANCH   4   7
BRANCH   1  11
ATOM     11  C   UNL     1      32.300 -23.618 -14.941  0.00  0.00    +0.019 C 
ATOM     12  C   UNL     1      31.529 -24.926 -14.663  0.00  0.00    +0.004 C 
ATOM     13  C   UNL     1      32.441 -23.428 -16.467  0.00  0.00    +0.004 C 
ATOM     14  C   UNL     1      31.432 -22.454 -14.414  0.00  0.00    +0.004 C 
ENDBRANCH   1  11
TORSDOF 2
ENDMDL
MODEL 9
REMARK VINA RESULT:      -6.7      5.608      7.437
REMARK  Name = 324690
REMARK  2 active torsions:
REMARK  status: ('A' for Active; 'I' for Inactive)
REMARK    1  A    between atoms: C_1  and  C_11
REMARK    2  A    between atoms: C_4  and  S_7
REMARK                            x       y       z     vdW  Elec       q    Type
REMARK                         _______ _______ _______ _____ _____    ______ ____
ROOT
ATOM      1  C   UNL     1      30.958 -23.577 -15.578  0.00  0.00    -0.023 C 
ATOM      2  C   UNL     1      31.620 -23.148 -16.701  0.00  0.00    -0.003 C 
ATOM      3  C   UNL     1      31.598 -23.992 -14.438  0.00  0.00    -0.003 C 
ATOM      4  C   UNL     1      33.701 -23.549 -15.542  0.00  0.00    +0.112 C 
ATOM      5  C   UNL     1      33.015 -23.135 -16.683  0.00  0.00    +0.019 C 
ATOM      6  C   UNL     1      32.993 -23.978 -14.419  0.00  0.00    +0.019 C 
ENDROOT
BRANCH   4   7
ATOM      7  S   UNL     1      35.447 -23.531 -15.519  0.00  0.00    +0.042 S 
ATOM      8  O   UNL     1      35.894 -25.102 -15.602  0.00  0.00    -0.065 OA
ATOM      9  O   UNL     1      35.907 -22.893 -16.744  0.00  0.00    -0.065 OA
ATOM     10  O   UNL     1      35.848 -23.016 -14.219  0.00  0.00    -0.065 OA
ENDBRANCH   4   7
BRANCH   1  11
ATOM     11  C   UNL     1      29.420 -23.593 -15.599  0.00  0.00    +0.019 C 
ATOM     12  C   UNL     1      28.879 -22.274 -15.007  0.00  0.00    +0.004 C 
ATOM     13  C   UNL     1      28.902 -24.778 -14.755  0.00  0.00    +0.004 C 
ATOM     14  C   UNL     1      28.817 -23.741 -17.014  0.00  0.00    +0.004 C 
ENDBRANCH   1  11
TORSDOF 2
ENDMDL
