MODEL 1
REMARK VINA RESULT:      -8.4      0.000      0.000
REMARK  Name = 444475
REMARK  4 active torsions:
REMARK  status: ('A' for Active; 'I' for Inactive)
REMARK    1  A    between atoms: C_7  and  C_16
REMARK    2  A    between atoms: C_16  and  O_17
REMARK    3  A    between atoms: C_16  and  C_19
REMARK    4  A    between atoms: C_19  and  O_21
REMARK                            x       y       z     vdW  Elec       q    Type
REMARK                         _______ _______ _______ _____ _____    ______ ____
ROOT
ATOM      1  O   UNL     1      36.845 -21.680 -18.883  0.00  0.00    -0.206 OA
ATOM      2  N   UNL     1      35.480 -20.168 -20.610  0.00  0.00    -0.391 NA
ATOM      3  N   UNL     1      32.681 -20.384 -20.612  0.00  0.00    -0.246 NA
ATOM      4  N   UNL     1      32.862 -22.016 -18.859  0.00  0.00    -0.259 N 
ATOM      5  N   UNL     1      34.978 -22.673 -17.984  0.00  0.00    -0.300 NA
ATOM      6  N   UNL     1      32.969 -23.582 -17.185  0.00  0.00    -0.320 N 
ATOM      7  C   UNL     1      34.712 -19.444 -21.445  0.00  0.00    +0.141 C 
ATOM      8  C   UNL     1      34.814 -20.997 -19.782  0.00  0.00    +0.255 C 
ATOM      9  C   UNL     1      33.434 -21.120 -19.766  0.00  0.00    +0.173 C 
ATOM     10  C   UNL     1      33.338 -19.551 -21.446  0.00  0.00    +0.183 C 
ATOM     11  C   UNL     1      35.626 -21.810 -18.849  0.00  0.00    +0.240 C 
ATOM     12  C   UNL     1      33.671 -22.746 -18.016  0.00  0.00    +0.249 C 
ATOM     13  H   UNL     1      31.885 -22.127 -18.824  0.00  0.00    +0.157 HD
ATOM     14  H   UNL     1      31.987 -23.614 -17.233  0.00  0.00    +0.146 HD
ATOM     15  H   UNL     1      33.448 -24.151 -16.539  0.00  0.00    +0.146 HD
ENDROOT
BRANCH   7  16
ATOM     16  C   UNL     1      35.399 -18.511 -22.380  0.00  0.00    +0.187 C 
BRANCH  16  17
ATOM     17  O   UNL     1      36.802 -18.455 -22.071  0.00  0.00    -0.376 OA
ATOM     18  H   UNL     1      37.303 -18.913 -22.763  0.00  0.00    +0.211 HD
ENDBRANCH  16  17
BRANCH  16  19
ATOM     19  C   UNL     1      34.848 -17.062 -22.415  0.00  0.00    +0.144 C 
ATOM     20  C   UNL     1      34.823 -16.398 -21.045  0.00  0.00    +0.035 C 
BRANCH  19  21
ATOM     21  O   UNL     1      35.627 -16.250 -23.292  0.00  0.00    -0.382 OA
ATOM     22  H   UNL     1      35.043 -15.809 -23.927  0.00  0.00    +0.210 HD
ENDBRANCH  19  21
ENDBRANCH  16  19
ENDBRANCH   7  16
TORSDOF 4
ENDMDL
MODEL 2
REMARK VINA RESULT:      -8.3      7.311      8.836
REMARK  Name = 444475
REMARK  4 active torsions:
REMARK  status: ('A' for Active; 'I' for Inactive)
REMARK    1  A    between atoms: C_7  and  C_16
REMARK    2  A    between atoms: C_16  and  O_17
REMARK    3  A    between atoms: C_16  and  C_19
REMARK    4  A    between atoms: C_19  and  O_21
REMARK                            x       y       z     vdW  Elec       q    Type
REMARK                         _______ _______ _______ _____ _____    ______ ____
ROOT
ATOM      1  O   UNL     1      36.048 -25.374 -11.343  0.00  0.00    -0.206 OA
ATOM      2  N   UNL     1      34.512 -24.344 -13.268  0.00  0.00    -0.391 NA
ATOM      3  N   UNL     1      35.569 -24.227 -15.866  0.00  0.00    -0.246 NA
ATOM      4  N   UNL     1      37.588 -25.222 -15.027  0.00  0.00    -0.259 N 
ATOM      5  N   UNL     1      37.830 -25.803 -12.730  0.00  0.00    -0.300 NA
ATOM      6  N   UNL     1      39.544 -26.169 -14.288  0.00  0.00    -0.320 N 
ATOM      7  C   UNL     1      33.809 -23.841 -14.300  0.00  0.00    +0.141 C 
ATOM      8  C   UNL     1      35.750 -24.783 -13.569  0.00  0.00    +0.255 C 
ATOM      9  C   UNL     1      36.292 -24.734 -14.844  0.00  0.00    +0.173 C 
ATOM     10  C   UNL     1      34.328 -23.784 -15.575  0.00  0.00    +0.183 C 
ATOM     11  C   UNL     1      36.553 -25.342 -12.460  0.00  0.00    +0.240 C 
ATOM     12  C   UNL     1      38.287 -25.731 -13.954  0.00  0.00    +0.249 C 
ATOM     13  H   UNL     1      38.002 -25.202 -15.921  0.00  0.00    +0.157 HD
ATOM     14  H   UNL     1      39.859 -26.101 -15.218  0.00  0.00    +0.146 HD
ATOM     15  H   UNL     1      40.131 -26.553 -13.597  0.00  0.00    +0.146 HD
ENDROOT
BRANCH   7  16
ATOM     16  C   UNL     1      32.434 -23.343 -14.021  0.00  0.00    +0.187 C 
BRANCH  16  17
ATOM     17  O   UNL     1      32.368 -22.813 -12.685  0.00  0.00    -0.376 OA
ATOM     18  H   UNL     1      33.025 -22.107 -12.586  0.00  0.00    +0.211 HD
ENDBRANCH  16  17
BRANCH  16  19
ATOM     19  C   UNL     1      31.292 -24.377 -14.192  0.00  0.00    +0.144 C 
ATOM     20  C   UNL     1      30.586 -24.273 -15.537  0.00  0.00    +0.035 C 
BRANCH  19  21
ATOM     21  O   UNL     1      31.791 -25.706 -14.051  0.00  0.00    -0.382 OA
ATOM     22  H   UNL     1      32.760 -25.692 -14.088  0.00  0.00    +0.210 HD
ENDBRANCH  19  21
ENDBRANCH  16  19
ENDBRANCH   7  16
TORSDOF 4
ENDMDL
MODEL 3
REMARK VINA RESULT:      -8.2      4.844      7.493
REMARK  Name = 444475
REMARK  4 active torsions:
REMARK  status: ('A' for Active; 'I' for Inactive)
REMARK    1  A    between atoms: C_7  and  C_16
REMARK    2  A    between atoms: C_16  and  O_17
REMARK    3  A    between atoms: C_16  and  C_19
REMARK    4  A    between atoms: C_19  and  O_21
REMARK                            x       y       z     vdW  Elec       q    Type
REMARK                         _______ _______ _______ _____ _____    ______ ____
ROOT
ATOM      1  O   UNL     1      34.557 -22.899 -18.536  0.00  0.00    -0.206 OA
ATOM      2  N   UNL     1      35.575 -23.575 -16.162  0.00  0.00    -0.391 NA
ATOM      3  N   UNL     1      33.801 -23.830 -14.001  0.00  0.00    -0.246 NA
ATOM      4  N   UNL     1      32.002 -23.252 -15.484  0.00  0.00    -0.259 N 
ATOM      5  N   UNL     1      32.388 -22.779 -17.785  0.00  0.00    -0.300 NA
ATOM      6  N   UNL     1      30.240 -22.704 -16.849  0.00  0.00    -0.320 N 
ATOM      7  C   UNL     1      35.999 -23.911 -14.930  0.00  0.00    +0.141 C 
ATOM      8  C   UNL     1      34.248 -23.370 -16.282  0.00  0.00    +0.255 C 
ATOM      9  C   UNL     1      33.355 -23.490 -15.230  0.00  0.00    +0.173 C 
ATOM     10  C   UNL     1      35.128 -24.037 -13.870  0.00  0.00    +0.183 C 
ATOM     11  C   UNL     1      33.745 -22.998 -17.622  0.00  0.00    +0.240 C 
ATOM     12  C   UNL     1      31.594 -22.908 -16.754  0.00  0.00    +0.249 C 
ATOM     13  H   UNL     1      31.342 -23.329 -14.757  0.00  0.00    +0.157 HD
ATOM     14  H   UNL     1      29.669 -22.809 -16.054  0.00  0.00    +0.146 HD
ATOM     15  H   UNL     1      29.839 -22.454 -17.713  0.00  0.00    +0.146 HD
ENDROOT
BRANCH   7  16
ATOM     16  C   UNL     1      37.457 -24.149 -14.743  0.00  0.00    +0.187 C 
BRANCH  16  17
ATOM     17  O   UNL     1      38.200 -23.452 -15.758  0.00  0.00    -0.376 OA
ATOM     18  H   UNL     1      38.666 -24.094 -16.315  0.00  0.00    +0.211 HD
ENDBRANCH  16  17
BRANCH  16  19
ATOM     19  C   UNL     1      37.906 -25.633 -14.743  0.00  0.00    +0.144 C 
ATOM     20  C   UNL     1      37.641 -26.339 -13.419  0.00  0.00    +0.035 C 
BRANCH  19  21
ATOM     21  O   UNL     1      37.243 -26.359 -15.776  0.00  0.00    -0.382 OA
ATOM     22  H   UNL     1      37.741 -27.167 -15.974  0.00  0.00    +0.210 HD
ENDBRANCH  19  21
ENDBRANCH  16  19
ENDBRANCH   7  16
TORSDOF 4
ENDMDL
MODEL 4
REMARK VINA RESULT:      -8.1      7.254      8.874
REMARK  Name = 444475
REMARK  4 active torsions:
REMARK  status: ('A' for Active; 'I' for Inactive)
REMARK    1  A    between atoms: C_7  and  C_16
REMARK    2  A    between atoms: C_16  and  O_17
REMARK    3  A    between atoms: C_16  and  C_19
REMARK    4  A    between atoms: C_19  and  O_21
REMARK                            x       y       z     vdW  Elec       q    Type
REMARK                         _______ _______ _______ _____ _____    ______ ____
ROOT
ATOM      1  O   UNL     1      36.434 -27.028 -15.922  0.00  0.00    -0.206 OA
ATOM      2  N   UNL     1      35.219 -25.229 -14.367  0.00  0.00    -0.391 NA
ATOM      3  N   UNL     1      36.790 -23.835 -12.503  0.00  0.00    -0.246 NA
ATOM      4  N   UNL     1      38.701 -25.065 -13.280  0.00  0.00    -0.259 N 
ATOM      5  N   UNL     1      38.518 -26.686 -15.015  0.00  0.00    -0.300 NA
ATOM      6  N   UNL     1      40.566 -26.208 -13.977  0.00  0.00    -0.320 N 
ATOM      7  C   UNL     1      34.692 -24.304 -13.543  0.00  0.00    +0.141 C 
ATOM      8  C   UNL     1      36.544 -25.436 -14.233  0.00  0.00    +0.255 C 
ATOM      9  C   UNL     1      37.338 -24.760 -13.321  0.00  0.00    +0.173 C 
ATOM     10  C   UNL     1      35.463 -23.621 -12.628  0.00  0.00    +0.183 C 
ATOM     11  C   UNL     1      37.159 -26.446 -15.123  0.00  0.00    +0.240 C 
ATOM     12  C   UNL     1      39.216 -26.016 -14.134  0.00  0.00    +0.249 C 
ATOM     13  H   UNL     1      39.292 -24.603 -12.642  0.00  0.00    +0.157 HD
ATOM     14  H   UNL     1      41.062 -25.688 -13.304  0.00  0.00    +0.146 HD
ATOM     15  H   UNL     1      41.037 -26.866 -14.537  0.00  0.00    +0.146 HD
ENDROOT
BRANCH   7  16
ATOM     16  C   UNL     1      33.231 -24.037 -13.650  0.00  0.00    +0.187 C 
BRANCH  16  17
ATOM     17  O   UNL     1      32.490 -25.147 -13.114  0.00  0.00    -0.376 OA
ATOM     18  H   UNL     1      31.659 -25.246 -13.602  0.00  0.00    +0.211 HD
ENDBRANCH  16  17
BRANCH  16  19
ATOM     19  C   UNL     1      32.701 -23.741 -15.077  0.00  0.00    +0.144 C 
ATOM     20  C   UNL     1      31.460 -22.858 -15.082  0.00  0.00    +0.035 C 
BRANCH  19  21
ATOM     21  O   UNL     1      33.705 -23.104 -15.864  0.00  0.00    -0.382 OA
ATOM     22  H   UNL     1      34.521 -23.626 -15.830  0.00  0.00    +0.210 HD
ENDBRANCH  19  21
ENDBRANCH  16  19
ENDBRANCH   7  16
TORSDOF 4
ENDMDL
MODEL 5
REMARK VINA RESULT:      -8.0      3.958      6.902
REMARK  Name = 444475
REMARK  4 active torsions:
REMARK  status: ('A' for Active; 'I' for Inactive)
REMARK    1  A    between atoms: C_7  and  C_16
REMARK    2  A    between atoms: C_16  and  O_17
REMARK    3  A    between atoms: C_16  and  C_19
REMARK    4  A    between atoms: C_19  and  O_21
REMARK                            x       y       z     vdW  Elec       q    Type
REMARK                         _______ _______ _______ _____ _____    ______ ____
ROOT
ATOM      1  O   UNL     1      34.562 -18.166 -25.705  0.00  0.00    -0.206 OA
ATOM      2  N   UNL     1      34.989 -17.840 -23.089  0.00  0.00    -0.391 NA
ATOM      3  N   UNL     1      34.341 -15.353 -21.957  0.00  0.00    -0.246 NA
ATOM      4  N   UNL     1      33.632 -14.613 -24.129  0.00  0.00    -0.259 N 
ATOM      5  N   UNL     1      33.746 -16.043 -26.031  0.00  0.00    -0.300 NA
ATOM      6  N   UNL     1      32.939 -13.846 -26.179  0.00  0.00    -0.320 N 
ATOM      7  C   UNL     1      35.169 -17.586 -21.780  0.00  0.00    +0.141 C 
ATOM      8  C   UNL     1      34.479 -16.822 -23.812  0.00  0.00    +0.255 C 
ATOM      9  C   UNL     1      34.153 -15.587 -23.274  0.00  0.00    +0.173 C 
ATOM     10  C   UNL     1      34.852 -16.365 -21.225  0.00  0.00    +0.183 C 
ATOM     11  C   UNL     1      34.267 -17.064 -25.256  0.00  0.00    +0.240 C 
ATOM     12  C   UNL     1      33.457 -14.898 -25.466  0.00  0.00    +0.249 C 
ATOM     13  H   UNL     1      33.390 -13.725 -23.778  0.00  0.00    +0.157 HD
ATOM     14  H   UNL     1      32.733 -12.997 -25.724  0.00  0.00    +0.146 HD
ATOM     15  H   UNL     1      32.772 -13.940 -27.144  0.00  0.00    +0.146 HD
ENDROOT
BRANCH   7  16
ATOM     16  C   UNL     1      35.729 -18.677 -20.936  0.00  0.00    +0.187 C 
BRANCH  16  17
ATOM     17  O   UNL     1      37.110 -18.897 -21.274  0.00  0.00    -0.376 OA
ATOM     18  H   UNL     1      37.612 -18.080 -21.127  0.00  0.00    +0.211 HD
ENDBRANCH  16  17
BRANCH  16  19
ATOM     19  C   UNL     1      34.987 -20.037 -21.010  0.00  0.00    +0.144 C 
ATOM     20  C   UNL     1      35.330 -20.969 -19.855  0.00  0.00    +0.035 C 
BRANCH  19  21
ATOM     21  O   UNL     1      33.575 -19.839 -21.020  0.00  0.00    -0.382 OA
ATOM     22  H   UNL     1      33.349 -19.093 -20.444  0.00  0.00    +0.210 HD
ENDBRANCH  19  21
ENDBRANCH  16  19
ENDBRANCH   7  16
TORSDOF 4
ENDMDL
MODEL 6
REMARK VINA RESULT:      -8.0      4.908      7.880
REMARK  Name = 444475
REMARK  4 active torsions:
REMARK  status: ('A' for Active; 'I' for Inactive)
REMARK    1  A    between atoms: C_7  and  C_16
REMARK    2  A    between atoms: C_16  and  O_17
REMARK    3  A    between atoms: C_16  and  C_19
REMARK    4  A    between atoms: C_19  and  O_21
REMARK                            x       y       z     vdW  Elec       q    Type
REMARK                         _______ _______ _______ _____ _____    ______ ____
ROOT
ATOM      1  O   UNL     1      33.759 -17.211 -25.936  0.00  0.00    -0.206 OA
ATOM      2  N   UNL     1      34.125 -16.402 -23.418  0.00  0.00    -0.391 NA
ATOM      3  N   UNL     1      33.899 -13.655 -22.880  0.00  0.00    -0.246 NA
ATOM      4  N   UNL     1      33.432 -13.295 -25.208  0.00  0.00    -0.259 N 
ATOM      5  N   UNL     1      33.363 -15.102 -26.758  0.00  0.00    -0.300 NA
ATOM      6  N   UNL     1      32.981 -12.885 -27.421  0.00  0.00    -0.320 N 
ATOM      7  C   UNL     1      34.293 -15.903 -22.179  0.00  0.00    +0.141 C 
ATOM      8  C   UNL     1      33.843 -15.494 -24.374  0.00  0.00    +0.255 C 
ATOM      9  C   UNL     1      33.728 -14.134 -24.131  0.00  0.00    +0.173 C 
ATOM     10  C   UNL     1      34.182 -14.556 -21.915  0.00  0.00    +0.183 C 
ATOM     11  C   UNL     1      33.653 -16.004 -25.749  0.00  0.00    +0.240 C 
ATOM     12  C   UNL     1      33.266 -13.830 -26.467  0.00  0.00    +0.249 C 
ATOM     13  H   UNL     1      33.343 -12.325 -25.068  0.00  0.00    +0.157 HD
ATOM     14  H   UNL     1      32.915 -11.936 -27.170  0.00  0.00    +0.146 HD
ATOM     15  H   UNL     1      32.842 -13.157 -28.357  0.00  0.00    +0.146 HD
ENDROOT
BRANCH   7  16
ATOM     16  C   UNL     1      34.605 -16.865 -21.086  0.00  0.00    +0.187 C 
BRANCH  16  17
ATOM     17  O   UNL     1      35.139 -16.159 -19.952  0.00  0.00    -0.376 OA
ATOM     18  H   UNL     1      35.558 -16.791 -19.346  0.00  0.00    +0.211 HD
ENDBRANCH  16  17
BRANCH  16  19
ATOM     19  C   UNL     1      35.583 -18.011 -21.452  0.00  0.00    +0.144 C 
ATOM     20  C   UNL     1      34.886 -19.349 -21.660  0.00  0.00    +0.035 C 
BRANCH  19  21
ATOM     21  O   UNL     1      36.307 -17.694 -22.639  0.00  0.00    -0.382 OA
ATOM     22  H   UNL     1      35.705 -17.302 -23.290  0.00  0.00    +0.210 HD
ENDBRANCH  19  21
ENDBRANCH  16  19
ENDBRANCH   7  16
TORSDOF 4
ENDMDL
MODEL 7
REMARK VINA RESULT:      -7.9      6.207      8.666
REMARK  Name = 444475
REMARK  4 active torsions:
REMARK  status: ('A' for Active; 'I' for Inactive)
REMARK    1  A    between atoms: C_7  and  C_16
REMARK    2  A    between atoms: C_16  and  O_17
REMARK    3  A    between atoms: C_16  and  C_19
REMARK    4  A    between atoms: C_19  and  O_21
REMARK                            x       y       z     vdW  Elec       q    Type
REMARK                         _______ _______ _______ _____ _____    ______ ____
ROOT
ATOM      1  O   UNL     1      35.035 -23.605 -16.800  0.00  0.00    -0.206 OA
ATOM      2  N   UNL     1      36.202 -24.367 -14.522  0.00  0.00    -0.391 NA
ATOM      3  N   UNL     1      34.646 -24.351 -12.185  0.00  0.00    -0.246 NA
ATOM      4  N   UNL     1      32.791 -23.567 -13.493  0.00  0.00    -0.259 N 
ATOM      5  N   UNL     1      32.991 -23.188 -15.835  0.00  0.00    -0.300 NA
ATOM      6  N   UNL     1      30.980 -22.816 -14.687  0.00  0.00    -0.320 N 
ATOM      7  C   UNL     1      36.706 -24.736 -13.329  0.00  0.00    +0.141 C 
ATOM      8  C   UNL     1      34.907 -23.992 -14.512  0.00  0.00    +0.255 C 
ATOM      9  C   UNL     1      34.121 -23.976 -13.371  0.00  0.00    +0.173 C 
ATOM     10  C   UNL     1      35.942 -24.727 -12.183  0.00  0.00    +0.183 C 
ATOM     11  C   UNL     1      34.317 -23.580 -15.805  0.00  0.00    +0.240 C 
ATOM     12  C   UNL     1      32.299 -23.194 -14.724  0.00  0.00    +0.249 C 
ATOM     13  H   UNL     1      32.206 -23.544 -12.701  0.00  0.00    +0.157 HD
ATOM     14  H   UNL     1      30.487 -22.832 -13.835  0.00  0.00    +0.146 HD
ATOM     15  H   UNL     1      30.526 -22.531 -15.513  0.00  0.00    +0.146 HD
ENDROOT
BRANCH   7  16
ATOM     16  C   UNL     1      38.132 -25.159 -13.285  0.00  0.00    +0.187 C 
BRANCH  16  17
ATOM     17  O   UNL     1      38.902 -24.209 -12.528  0.00  0.00    -0.376 OA
ATOM     18  H   UNL     1      39.029 -24.541 -11.626  0.00  0.00    +0.211 HD
ENDBRANCH  16  17
BRANCH  16  19
ATOM     19  C   UNL     1      38.821 -25.360 -14.659  0.00  0.00    +0.144 C 
ATOM     20  C   UNL     1      40.296 -25.722 -14.543  0.00  0.00    +0.035 C 
BRANCH  19  21
ATOM     21  O   UNL     1      38.167 -26.385 -15.405  0.00  0.00    -0.382 OA
ATOM     22  H   UNL     1      38.817 -26.848 -15.956  0.00  0.00    +0.210 HD
ENDBRANCH  19  21
ENDBRANCH  16  19
ENDBRANCH   7  16
TORSDOF 4
ENDMDL
MODEL 8
REMARK VINA RESULT:      -7.9      3.866      5.655
REMARK  Name = 444475
REMARK  4 active torsions:
REMARK  status: ('A' for Active; 'I' for Inactive)
REMARK    1  A    between atoms: C_7  and  C_16
REMARK    2  A    between atoms: C_16  and  O_17
REMARK    3  A    between atoms: C_16  and  C_19
REMARK    4  A    between atoms: C_19  and  O_21
REMARK                            x       y       z     vdW  Elec       q    Type
REMARK                         _______ _______ _______ _____ _____    ______ ____
ROOT
ATOM      1  O   UNL     1      34.467 -15.334 -20.744  0.00  0.00    -0.206 OA
ATOM      2  N   UNL     1      34.078 -15.594 -23.374  0.00  0.00    -0.391 NA
ATOM      3  N   UNL     1      34.932 -17.974 -24.594  0.00  0.00    -0.246 NA
ATOM      4  N   UNL     1      35.697 -18.734 -22.448  0.00  0.00    -0.259 N 
ATOM      5  N   UNL     1      35.461 -17.392 -20.495  0.00  0.00    -0.300 NA
ATOM      6  N   UNL     1      36.450 -19.517 -20.426  0.00  0.00    -0.320 N 
ATOM      7  C   UNL     1      33.923 -15.812 -24.693  0.00  0.00    +0.141 C 
ATOM      8  C   UNL     1      34.669 -16.593 -22.687  0.00  0.00    +0.255 C 
ATOM      9  C   UNL     1      35.099 -17.774 -23.269  0.00  0.00    +0.173 C 
ATOM     10  C   UNL     1      34.343 -16.980 -25.291  0.00  0.00    +0.183 C 
ATOM     11  C   UNL     1      34.857 -16.389 -21.234  0.00  0.00    +0.240 C 
ATOM     12  C   UNL     1      35.845 -18.486 -21.101  0.00  0.00    +0.249 C 
ATOM     13  H   UNL     1      36.013 -19.584 -22.831  0.00  0.00    +0.157 HD
ATOM     14  H   UNL     1      36.728 -20.327 -20.911  0.00  0.00    +0.146 HD
ATOM     15  H   UNL     1      36.605 -19.446 -19.456  0.00  0.00    +0.146 HD
ENDROOT
BRANCH   7  16
ATOM     16  C   UNL     1      33.275 -14.740 -25.497  0.00  0.00    +0.187 C 
BRANCH  16  17
ATOM     17  O   UNL     1      33.567 -14.932 -26.892  0.00  0.00    -0.376 OA
ATOM     18  H   UNL     1      34.139 -15.707 -26.999  0.00  0.00    +0.211 HD
ENDBRANCH  16  17
BRANCH  16  19
ATOM     19  C   UNL     1      33.653 -13.286 -25.115  0.00  0.00    +0.144 C 
ATOM     20  C   UNL     1      33.409 -12.289 -26.240  0.00  0.00    +0.035 C 
BRANCH  19  21
ATOM     21  O   UNL     1      32.915 -12.858 -23.972  0.00  0.00    -0.382 OA
ATOM     22  H   UNL     1      33.201 -13.363 -23.196  0.00  0.00    +0.210 HD
ENDBRANCH  19  21
ENDBRANCH  16  19
ENDBRANCH   7  16
TORSDOF 4
ENDMDL
MODEL 9
REMARK VINA RESULT:      -7.9      6.987      8.721
REMARK  Name = 444475
REMARK  4 active torsions:
REMARK  status: ('A' for Active; 'I' for Inactive)
REMARK    1  A    between atoms: C_7  and  C_16
REMARK    2  A    between atoms: C_16  and  O_17
REMARK    3  A    between atoms: C_16  and  C_19
REMARK    4  A    between atoms: C_19  and  O_21
REMARK                            x       y       z     vdW  Elec       q    Type
REMARK                         _______ _______ _______ _____ _____    ______ ____
ROOT
ATOM      1  O   UNL     1      32.120 -24.658 -13.145  0.00  0.00    -0.206 OA
ATOM      2  N   UNL     1      34.737 -24.700 -13.673  0.00  0.00    -0.391 NA
ATOM      3  N   UNL     1      35.593 -23.643 -16.129  0.00  0.00    -0.246 NA
ATOM      4  N   UNL     1      33.302 -23.148 -16.651  0.00  0.00    -0.259 N 
ATOM      5  N   UNL     1      31.540 -23.665 -15.135  0.00  0.00    -0.300 NA
ATOM      6  N   UNL     1      31.131 -22.650 -17.209  0.00  0.00    -0.320 N 
ATOM      7  C   UNL     1      36.036 -24.678 -14.024  0.00  0.00    +0.141 C 
ATOM      8  C   UNL     1      33.884 -24.182 -14.580  0.00  0.00    +0.255 C 
ATOM      9  C   UNL     1      34.284 -23.656 -15.797  0.00  0.00    +0.173 C 
ATOM     10  C   UNL     1      36.456 -24.160 -15.229  0.00  0.00    +0.183 C 
ATOM     11  C   UNL     1      32.446 -24.188 -14.229  0.00  0.00    +0.240 C 
ATOM     12  C   UNL     1      31.978 -23.182 -16.269  0.00  0.00    +0.249 C 
ATOM     13  H   UNL     1      33.554 -22.767 -17.523  0.00  0.00    +0.157 HD
ATOM     14  H   UNL     1      31.493 -22.295 -18.053  0.00  0.00    +0.146 HD
ATOM     15  H   UNL     1      30.162 -22.623 -17.039  0.00  0.00    +0.146 HD
ENDROOT
BRANCH   7  16
ATOM     16  C   UNL     1      37.020 -25.238 -13.057  0.00  0.00    +0.187 C 
BRANCH  16  17
ATOM     17  O   UNL     1      36.835 -26.659 -12.938  0.00  0.00    -0.376 OA
ATOM     18  H   UNL     1      36.599 -26.879 -12.023  0.00  0.00    +0.211 HD
ENDBRANCH  16  17
BRANCH  16  19
ATOM     19  C   UNL     1      36.997 -24.622 -11.635  0.00  0.00    +0.144 C 
ATOM     20  C   UNL     1      37.091 -23.102 -11.639  0.00  0.00    +0.035 C 
BRANCH  19  21
ATOM     21  O   UNL     1      35.805 -24.995 -10.945  0.00  0.00    -0.382 OA
ATOM     22  H   UNL     1      35.242 -25.519 -11.534  0.00  0.00    +0.210 HD
ENDBRANCH  19  21
ENDBRANCH  16  19
ENDBRANCH   7  16
TORSDOF 4
ENDMDL
