MODEL 1
REMARK VINA RESULT:      -7.3      0.000      0.000
REMARK  Name = 160556
REMARK  15 active torsions:
REMARK  status: ('A' for Active; 'I' for Inactive)
REMARK    1  A    between atoms: N_1  and  CE_4
REMARK    2  A    between atoms: N_1  and  CA_17
REMARK    3  A    between atoms: CE_4  and  CD_5
REMARK    4  A    between atoms: CD_5  and  CG_6
REMARK    5  A    between atoms: CG_6  and  CB_7
REMARK    6  A    between atoms: CB_7  and  CA_8
REMARK    7  A    between atoms: CA_8  and  N_9
REMARK    8  A    between atoms: CA_8  and  C_14
REMARK    9  A    between atoms: C_14  and  O_15
REMARK   10  A    between atoms: CA_17  and  C_19
REMARK   11  A    between atoms: CA_17  and  CB_22
REMARK   12  A    between atoms: C_19  and  O_20
REMARK   13  A    between atoms: CB_22  and  CG_23
REMARK   14  A    between atoms: CG_23  and  CD_25
REMARK   15  A    between atoms: CD_25  and  OE1_26
REMARK                            x       y       z     vdW  Elec       q    Type
REMARK                         _______ _______ _______ _____ _____    ______ ____
ROOT
ATOM      1  N   LYS A   1      32.187 -23.202 -14.891  0.00  0.00    +0.392 N 
ATOM      2  H1  LYS A   1      32.431 -22.260 -14.584  0.00  0.00    -0.084 HD
ATOM      3  H2  LYS A   1      32.687 -23.898 -14.337  0.00  0.00    -0.084 HD
ENDROOT
BRANCH   1   4
ATOM      4  CE  LYS A   1      32.565 -23.361 -16.290  0.00  0.00    -0.081 C 
BRANCH   4   5
ATOM      5  CD  LYS A   1      34.087 -23.327 -16.437  0.00  0.00    -0.023 C 
BRANCH   5   6
ATOM      6  CG  LYS A   1      34.776 -23.541 -15.087  0.00  0.00    -0.004 C 
BRANCH   6   7
ATOM      7  CB  LYS A   1      35.239 -24.986 -14.857  0.00  0.00    -0.011 C 
BRANCH   7   8
ATOM      8  CA  LYS A   1      36.754 -25.153 -14.680  0.00  0.00    +0.036 C 
BRANCH   8   9
ATOM      9  N   LYS A   1      37.494 -24.157 -15.456  0.00  0.00    +0.389 N 
ATOM     10  H1  LYS A   1      36.876 -23.379 -15.686  0.00  0.00    -0.088 HD
ATOM     11  H2  LYS A   1      37.838 -24.584 -16.317  0.00  0.00    -0.088 HD
ATOM     12  H3  LYS A   1      38.283 -23.816 -14.907  0.00  0.00    -0.088 HD
ENDBRANCH   8   9
BRANCH   8  14
ATOM     13  OXT LYS A   1      38.140 -27.120 -14.496  0.00  0.00    -0.253 OA
ATOM     14  C   LYS A   1      37.251 -26.522 -15.094  0.00  0.00    +0.293 C 
BRANCH  14  15
ATOM     15  O   LYS A   1      36.642 -27.025 -16.195  0.00  0.00    -0.482 OA
ATOM     16  H   LYS A   1      36.452 -26.467 -16.923  0.00  0.00    +0.295 HD
ENDBRANCH  14  15
ENDBRANCH   8  14
ENDBRANCH   7   8
ENDBRANCH   6   7
ENDBRANCH   5   6
ENDBRANCH   4   5
ENDBRANCH   1   4
BRANCH   1  17
ATOM     17  CA  LYS A   1      30.757 -23.406 -14.713  0.00  0.00    +0.040 C 
BRANCH  17  19
ATOM     18  OXT LYS A   1      30.281 -25.788 -14.963  0.00  0.00    -0.253 OA
ATOM     19  C   LYS A   1      30.539 -24.833 -14.242  0.00  0.00    +0.293 C 
BRANCH  19  20
ATOM     20  O   LYS A   1      30.664 -24.947 -12.893  0.00  0.00    -0.482 OA
ATOM     21  H   LYS A   1      30.625 -24.183 -12.352  0.00  0.00    +0.295 HD
ENDBRANCH  19  20
ENDBRANCH  17  19
BRANCH  17  22
ATOM     22  CB  LYS A   1      29.962 -23.090 -15.991  0.00  0.00    +0.001 C 
BRANCH  22  23
ATOM     23  CG  LYS A   1      28.562 -22.504 -15.789  0.00  0.00    +0.108 C 
BRANCH  23  25
ATOM     24  OE2 LYS A   1      27.511 -23.630 -17.649  0.00  0.00    -0.250 OA
ATOM     25  CD  LYS A   1      27.676 -22.602 -17.006  0.00  0.00    +0.314 C 
BRANCH  25  26
ATOM     26  OE1 LYS A   1      27.067 -21.429 -17.307  0.00  0.00    -0.480 OA
ATOM     27  HE1 LYS A   1      26.190 -21.428 -17.636  0.00  0.00    +0.295 HD
ENDBRANCH  25  26
ENDBRANCH  23  25
ENDBRANCH  22  23
ENDBRANCH  17  22
ENDBRANCH   1  17
TORSDOF 15
ENDMDL
MODEL 2
REMARK VINA RESULT:      -7.2      2.390      7.781
REMARK  Name = 160556
REMARK  15 active torsions:
REMARK  status: ('A' for Active; 'I' for Inactive)
REMARK    1  A    between atoms: N_1  and  CE_4
REMARK    2  A    between atoms: N_1  and  CA_17
REMARK    3  A    between atoms: CE_4  and  CD_5
REMARK    4  A    between atoms: CD_5  and  CG_6
REMARK    5  A    between atoms: CG_6  and  CB_7
REMARK    6  A    between atoms: CB_7  and  CA_8
REMARK    7  A    between atoms: CA_8  and  N_9
REMARK    8  A    between atoms: CA_8  and  C_14
REMARK    9  A    between atoms: C_14  and  O_15
REMARK   10  A    between atoms: CA_17  and  C_19
REMARK   11  A    between atoms: CA_17  and  CB_22
REMARK   12  A    between atoms: C_19  and  O_20
REMARK   13  A    between atoms: CB_22  and  CG_23
REMARK   14  A    between atoms: CG_23  and  CD_25
REMARK   15  A    between atoms: CD_25  and  OE1_26
REMARK                            x       y       z     vdW  Elec       q    Type
REMARK                         _______ _______ _______ _____ _____    ______ ____
ROOT
ATOM      1  N   LYS A   1      35.115 -25.425 -14.360  0.00  0.00    +0.392 N 
ATOM      2  H1  LYS A   1      34.845 -26.334 -14.736  0.00  0.00    -0.084 HD
ATOM      3  H2  LYS A   1      34.902 -25.375 -13.363  0.00  0.00    -0.084 HD
ENDROOT
BRANCH   1   4
ATOM      4  CE  LYS A   1      34.366 -24.382 -15.050  0.00  0.00    -0.081 C 
BRANCH   4   5
ATOM      5  CD  LYS A   1      32.987 -24.208 -14.414  0.00  0.00    -0.023 C 
BRANCH   5   6
ATOM      6  CG  LYS A   1      32.223 -23.050 -15.063  0.00  0.00    -0.004 C 
BRANCH   6   7
ATOM      7  CB  LYS A   1      31.168 -23.505 -16.081  0.00  0.00    -0.011 C 
BRANCH   7   8
ATOM      8  CA  LYS A   1      29.721 -23.440 -15.576  0.00  0.00    +0.036 C 
BRANCH   8   9
ATOM      9  N   LYS A   1      29.317 -24.700 -14.951  0.00  0.00    +0.389 N 
ATOM     10  H1  LYS A   1      29.611 -24.703 -13.974  0.00  0.00    -0.088 HD
ATOM     11  H2  LYS A   1      29.755 -25.479 -15.441  0.00  0.00    -0.088 HD
ATOM     12  H3  LYS A   1      28.302 -24.793 -15.001  0.00  0.00    -0.088 HD
ENDBRANCH   8   9
BRANCH   8  14
ATOM     13  OXT LYS A   1      28.518 -21.995 -17.090  0.00  0.00    -0.253 OA
ATOM     14  C   LYS A   1      28.724 -23.130 -16.673  0.00  0.00    +0.293 C 
BRANCH  14  15
ATOM     15  O   LYS A   1      28.063 -24.215 -17.145  0.00  0.00    -0.482 OA
ATOM     16  H   LYS A   1      27.154 -24.153 -17.362  0.00  0.00    +0.295 HD
ENDBRANCH  14  15
ENDBRANCH   8  14
ENDBRANCH   7   8
ENDBRANCH   6   7
ENDBRANCH   5   6
ENDBRANCH   4   5
ENDBRANCH   1   4
BRANCH   1  17
ATOM     17  CA  LYS A   1      36.548 -25.241 -14.540  0.00  0.00    +0.040 C 
BRANCH  17  19
ATOM     18  OXT LYS A   1      36.594 -27.117 -16.101  0.00  0.00    -0.253 OA
ATOM     19  C   LYS A   1      37.109 -26.499 -15.179  0.00  0.00    +0.293 C 
BRANCH  19  20
ATOM     20  O   LYS A   1      38.280 -26.882 -14.604  0.00  0.00    -0.482 OA
ATOM     21  H   LYS A   1      38.444 -26.689 -13.702  0.00  0.00    +0.295 HD
ENDBRANCH  19  20
ENDBRANCH  17  19
BRANCH  17  22
ATOM     22  CB  LYS A   1      37.258 -24.895 -13.220  0.00  0.00    +0.001 C 
BRANCH  22  23
ATOM     23  CG  LYS A   1      36.620 -23.786 -12.379  0.00  0.00    +0.108 C 
BRANCH  23  25
ATOM     24  OE2 LYS A   1      36.293 -24.044 -10.000  0.00  0.00    -0.250 OA
ATOM     25  CD  LYS A   1      35.920 -24.285 -11.140  0.00  0.00    +0.314 C 
BRANCH  25  26
ATOM     26  OE1 LYS A   1      34.818 -25.024 -11.422  0.00  0.00    -0.480 OA
ATOM     27  HE1 LYS A   1      34.293 -24.814 -12.170  0.00  0.00    +0.295 HD
ENDBRANCH  25  26
ENDBRANCH  23  25
ENDBRANCH  22  23
ENDBRANCH  17  22
ENDBRANCH   1  17
TORSDOF 15
ENDMDL
MODEL 3
REMARK VINA RESULT:      -7.2      4.426      7.336
REMARK  Name = 160556
REMARK  15 active torsions:
REMARK  status: ('A' for Active; 'I' for Inactive)
REMARK    1  A    between atoms: N_1  and  CE_4
REMARK    2  A    between atoms: N_1  and  CA_17
REMARK    3  A    between atoms: CE_4  and  CD_5
REMARK    4  A    between atoms: CD_5  and  CG_6
REMARK    5  A    between atoms: CG_6  and  CB_7
REMARK    6  A    between atoms: CB_7  and  CA_8
REMARK    7  A    between atoms: CA_8  and  N_9
REMARK    8  A    between atoms: CA_8  and  C_14
REMARK    9  A    between atoms: C_14  and  O_15
REMARK   10  A    between atoms: CA_17  and  C_19
REMARK   11  A    between atoms: CA_17  and  CB_22
REMARK   12  A    between atoms: C_19  and  O_20
REMARK   13  A    between atoms: CB_22  and  CG_23
REMARK   14  A    between atoms: CG_23  and  CD_25
REMARK   15  A    between atoms: CD_25  and  OE1_26
REMARK                            x       y       z     vdW  Elec       q    Type
REMARK                         _______ _______ _______ _____ _____    ______ ____
ROOT
ATOM      1  N   LYS A   1      36.923 -24.118 -14.410  0.00  0.00    +0.392 N 
ATOM      2  H1  LYS A   1      36.261 -24.785 -14.807  0.00  0.00    -0.084 HD
ATOM      3  H2  LYS A   1      36.449 -23.491 -13.759  0.00  0.00    -0.084 HD
ENDROOT
BRANCH   1   4
ATOM      4  CE  LYS A   1      37.503 -23.322 -15.485  0.00  0.00    -0.081 C 
BRANCH   4   5
ATOM      5  CD  LYS A   1      36.591 -22.143 -15.825  0.00  0.00    -0.023 C 
BRANCH   5   6
ATOM      6  CG  LYS A   1      35.766 -22.430 -17.082  0.00  0.00    -0.004 C 
BRANCH   6   7
ATOM      7  CB  LYS A   1      36.333 -21.777 -18.350  0.00  0.00    -0.011 C 
BRANCH   7   8
ATOM      8  CA  LYS A   1      35.371 -21.760 -19.546  0.00  0.00    +0.036 C 
BRANCH   8   9
ATOM      9  N   LYS A   1      35.040 -20.391 -19.944  0.00  0.00    +0.389 N 
ATOM     10  H1  LYS A   1      35.890 -19.828 -19.961  0.00  0.00    -0.088 HD
ATOM     11  H2  LYS A   1      34.381 -19.992 -19.277  0.00  0.00    -0.088 HD
ATOM     12  H3  LYS A   1      34.620 -20.400 -20.874  0.00  0.00    -0.088 HD
ENDBRANCH   8   9
BRANCH   8  14
ATOM     13  OXT LYS A   1      33.963 -23.707 -19.316  0.00  0.00    -0.253 OA
ATOM     14  C   LYS A   1      34.071 -22.486 -19.271  0.00  0.00    +0.293 C 
BRANCH  14  15
ATOM     15  O   LYS A   1      33.027 -21.669 -18.988  0.00  0.00    -0.482 OA
ATOM     16  H   LYS A   1      32.274 -21.659 -19.544  0.00  0.00    +0.295 HD
ENDBRANCH  14  15
ENDBRANCH   8  14
ENDBRANCH   7   8
ENDBRANCH   6   7
ENDBRANCH   5   6
ENDBRANCH   4   5
ENDBRANCH   1   4
BRANCH   1  17
ATOM     17  CA  LYS A   1      37.956 -24.845 -13.686  0.00  0.00    +0.040 C 
BRANCH  17  19
ATOM     18  OXT LYS A   1      38.407 -27.006 -14.728  0.00  0.00    -0.253 OA
ATOM     19  C   LYS A   1      37.757 -26.328 -13.944  0.00  0.00    +0.293 C 
BRANCH  19  20
ATOM     20  O   LYS A   1      36.751 -26.844 -13.189  0.00  0.00    -0.482 OA
ATOM     21  H   LYS A   1      36.038 -26.298 -12.922  0.00  0.00    +0.295 HD
ENDBRANCH  19  20
ENDBRANCH  17  19
BRANCH  17  22
ATOM     22  CB  LYS A   1      37.957 -24.513 -12.185  0.00  0.00    +0.001 C 
BRANCH  22  23
ATOM     23  CG  LYS A   1      36.813 -23.624 -11.688  0.00  0.00    +0.108 C 
BRANCH  23  25
ATOM     24  OE2 LYS A   1      35.502 -24.502  -9.860  0.00  0.00    -0.250 OA
ATOM     25  CD  LYS A   1      35.671 -24.389 -11.066  0.00  0.00    +0.314 C 
BRANCH  25  26
ATOM     26  OE1 LYS A   1      34.839 -24.931 -11.990  0.00  0.00    -0.480 OA
ATOM     27  HE1 LYS A   1      34.909 -25.840 -12.206  0.00  0.00    +0.295 HD
ENDBRANCH  25  26
ENDBRANCH  23  25
ENDBRANCH  22  23
ENDBRANCH  17  22
ENDBRANCH   1  17
TORSDOF 15
ENDMDL
MODEL 4
REMARK VINA RESULT:      -7.2      2.480      7.226
REMARK  Name = 160556
REMARK  15 active torsions:
REMARK  status: ('A' for Active; 'I' for Inactive)
REMARK    1  A    between atoms: N_1  and  CE_4
REMARK    2  A    between atoms: N_1  and  CA_17
REMARK    3  A    between atoms: CE_4  and  CD_5
REMARK    4  A    between atoms: CD_5  and  CG_6
REMARK    5  A    between atoms: CG_6  and  CB_7
REMARK    6  A    between atoms: CB_7  and  CA_8
REMARK    7  A    between atoms: CA_8  and  N_9
REMARK    8  A    between atoms: CA_8  and  C_14
REMARK    9  A    between atoms: C_14  and  O_15
REMARK   10  A    between atoms: CA_17  and  C_19
REMARK   11  A    between atoms: CA_17  and  CB_22
REMARK   12  A    between atoms: C_19  and  O_20
REMARK   13  A    between atoms: CB_22  and  CG_23
REMARK   14  A    between atoms: CG_23  and  CD_25
REMARK   15  A    between atoms: CD_25  and  OE1_26
REMARK                            x       y       z     vdW  Elec       q    Type
REMARK                         _______ _______ _______ _____ _____    ______ ____
ROOT
ATOM      1  N   LYS A   1      36.267 -24.406 -14.372  0.00  0.00    +0.392 N 
ATOM      2  H1  LYS A   1      35.773 -25.238 -14.695  0.00  0.00    -0.084 HD
ATOM      3  H2  LYS A   1      35.770 -23.978 -13.589  0.00  0.00    -0.084 HD
ENDROOT
BRANCH   1   4
ATOM      4  CE  LYS A   1      36.339 -23.439 -15.461  0.00  0.00    -0.081 C 
BRANCH   4   5
ATOM      5  CD  LYS A   1      34.942 -23.155 -16.013  0.00  0.00    -0.023 C 
BRANCH   5   6
ATOM      6  CG  LYS A   1      33.867 -23.863 -15.184  0.00  0.00    -0.004 C 
BRANCH   6   7
ATOM      7  CB  LYS A   1      32.435 -23.490 -15.590  0.00  0.00    -0.011 C 
BRANCH   7   8
ATOM      8  CA  LYS A   1      31.451 -23.359 -14.420  0.00  0.00    +0.036 C 
BRANCH   8   9
ATOM      9  N   LYS A   1      32.098 -22.779 -13.242  0.00  0.00    +0.389 N 
ATOM     10  H1  LYS A   1      32.761 -23.450 -12.854  0.00  0.00    -0.088 HD
ATOM     11  H2  LYS A   1      31.391 -22.555 -12.541  0.00  0.00    -0.088 HD
ATOM     12  H3  LYS A   1      32.593 -21.928 -13.511  0.00  0.00    -0.088 HD
ENDBRANCH   8   9
BRANCH   8  14
ATOM     13  OXT LYS A   1      30.647 -25.605 -14.791  0.00  0.00    -0.253 OA
ATOM     14  C   LYS A   1      30.844 -24.683 -14.006  0.00  0.00    +0.293 C 
BRANCH  14  15
ATOM     15  O   LYS A   1      30.517 -24.758 -12.692  0.00  0.00    -0.482 OA
ATOM     16  H   LYS A   1      30.852 -25.456 -12.165  0.00  0.00    +0.295 HD
ENDBRANCH  14  15
ENDBRANCH   8  14
ENDBRANCH   7   8
ENDBRANCH   6   7
ENDBRANCH   5   6
ENDBRANCH   4   5
ENDBRANCH   1   4
BRANCH   1  17
ATOM     17  CA  LYS A   1      37.599 -24.785 -13.925  0.00  0.00    +0.040 C 
BRANCH  17  19
ATOM     18  OXT LYS A   1      38.448 -26.955 -14.652  0.00  0.00    -0.253 OA
ATOM     19  C   LYS A   1      37.691 -26.301 -13.948  0.00  0.00    +0.293 C 
BRANCH  19  20
ATOM     20  O   LYS A   1      36.818 -26.876 -13.080  0.00  0.00    -0.482 OA
ATOM     21  H   LYS A   1      35.926 -27.013 -13.333  0.00  0.00    +0.295 HD
ENDBRANCH  19  20
ENDBRANCH  17  19
BRANCH  17  22
ATOM     22  CB  LYS A   1      37.934 -24.206 -12.540  0.00  0.00    +0.001 C 
BRANCH  22  23
ATOM     23  CG  LYS A   1      36.824 -23.402 -11.857  0.00  0.00    +0.108 C 
BRANCH  23  25
ATOM     24  OE2 LYS A   1      34.975 -24.927 -11.557  0.00  0.00    -0.250 OA
ATOM     25  CD  LYS A   1      35.862 -24.247 -11.059  0.00  0.00    +0.314 C 
BRANCH  25  26
ATOM     26  OE1 LYS A   1      36.092 -24.184  -9.724  0.00  0.00    -0.480 OA
ATOM     27  HE1 LYS A   1      36.702 -23.560  -9.383  0.00  0.00    +0.295 HD
ENDBRANCH  25  26
ENDBRANCH  23  25
ENDBRANCH  22  23
ENDBRANCH  17  22
ENDBRANCH   1  17
TORSDOF 15
ENDMDL
MODEL 5
REMARK VINA RESULT:      -7.1      2.720      7.620
REMARK  Name = 160556
REMARK  15 active torsions:
REMARK  status: ('A' for Active; 'I' for Inactive)
REMARK    1  A    between atoms: N_1  and  CE_4
REMARK    2  A    between atoms: N_1  and  CA_17
REMARK    3  A    between atoms: CE_4  and  CD_5
REMARK    4  A    between atoms: CD_5  and  CG_6
REMARK    5  A    between atoms: CG_6  and  CB_7
REMARK    6  A    between atoms: CB_7  and  CA_8
REMARK    7  A    between atoms: CA_8  and  N_9
REMARK    8  A    between atoms: CA_8  and  C_14
REMARK    9  A    between atoms: C_14  and  O_15
REMARK   10  A    between atoms: CA_17  and  C_19
REMARK   11  A    between atoms: CA_17  and  CB_22
REMARK   12  A    between atoms: C_19  and  O_20
REMARK   13  A    between atoms: CB_22  and  CG_23
REMARK   14  A    between atoms: CG_23  and  CD_25
REMARK   15  A    between atoms: CD_25  and  OE1_26
REMARK                            x       y       z     vdW  Elec       q    Type
REMARK                         _______ _______ _______ _____ _____    ______ ____
ROOT
ATOM      1  N   LYS A   1      35.297 -25.029 -13.919  0.00  0.00    +0.392 N 
ATOM      2  H1  LYS A   1      35.077 -26.002 -14.133  0.00  0.00    -0.084 HD
ATOM      3  H2  LYS A   1      34.483 -24.559 -13.521  0.00  0.00    -0.084 HD
ENDROOT
BRANCH   1   4
ATOM      4  CE  LYS A   1      35.678 -24.344 -15.148  0.00  0.00    -0.081 C 
BRANCH   4   5
ATOM      5  CD  LYS A   1      34.676 -23.234 -15.469  0.00  0.00    -0.023 C 
BRANCH   5   6
ATOM      6  CG  LYS A   1      33.375 -23.813 -16.031  0.00  0.00    -0.004 C 
BRANCH   6   7
ATOM      7  CB  LYS A   1      32.129 -22.998 -15.659  0.00  0.00    -0.011 C 
BRANCH   7   8
ATOM      8  CA  LYS A   1      31.490 -23.381 -14.318  0.00  0.00    +0.036 C 
BRANCH   8   9
ATOM      9  N   LYS A   1      32.156 -22.714 -13.199  0.00  0.00    +0.389 N 
ATOM     10  H1  LYS A   1      32.005 -23.252 -12.346  0.00  0.00    -0.088 HD
ATOM     11  H2  LYS A   1      31.771 -21.777 -13.083  0.00  0.00    -0.088 HD
ATOM     12  H3  LYS A   1      33.157 -22.650 -13.389  0.00  0.00    -0.088 HD
ENDBRANCH   8   9
BRANCH   8  14
ATOM     13  OXT LYS A   1      30.754 -25.665 -14.584  0.00  0.00    -0.253 OA
ATOM     14  C   LYS A   1      31.523 -24.872 -14.051  0.00  0.00    +0.293 C 
BRANCH  14  15
ATOM     15  O   LYS A   1      32.467 -25.255 -13.156  0.00  0.00    -0.482 OA
ATOM     16  H   LYS A   1      32.366 -25.044 -12.249  0.00  0.00    +0.295 HD
ENDBRANCH  14  15
ENDBRANCH   8  14
ENDBRANCH   7   8
ENDBRANCH   6   7
ENDBRANCH   5   6
ENDBRANCH   4   5
ENDBRANCH   1   4
BRANCH   1  17
ATOM     17  CA  LYS A   1      36.379 -24.988 -12.945  0.00  0.00    +0.040 C 
BRANCH  17  19
ATOM     18  OXT LYS A   1      36.455 -24.201 -10.635  0.00  0.00    -0.253 OA
ATOM     19  C   LYS A   1      35.876 -24.259 -11.711  0.00  0.00    +0.293 C 
BRANCH  19  20
ATOM     20  O   LYS A   1      34.676 -23.659 -11.931  0.00  0.00    -0.482 OA
ATOM     21  H   LYS A   1      33.882 -24.102 -11.706  0.00  0.00    +0.295 HD
ENDBRANCH  19  20
ENDBRANCH  17  19
BRANCH  17  22
ATOM     22  CB  LYS A   1      37.652 -24.344 -13.519  0.00  0.00    +0.001 C 
BRANCH  22  23
ATOM     23  CG  LYS A   1      38.980 -24.982 -13.101  0.00  0.00    +0.108 C 
BRANCH  23  25
ATOM     24  OE2 LYS A   1      39.337 -26.643 -14.817  0.00  0.00    -0.250 OA
ATOM     25  CD  LYS A   1      39.726 -25.640 -14.235  0.00  0.00    +0.314 C 
BRANCH  25  26
ATOM     26  OE1 LYS A   1      40.874 -24.992 -14.553  0.00  0.00    -0.480 OA
ATOM     27  HE1 LYS A   1      41.590 -24.984 -13.948  0.00  0.00    +0.295 HD
ENDBRANCH  25  26
ENDBRANCH  23  25
ENDBRANCH  22  23
ENDBRANCH  17  22
ENDBRANCH   1  17
TORSDOF 15
ENDMDL
MODEL 6
REMARK VINA RESULT:      -7.1      2.386      7.727
REMARK  Name = 160556
REMARK  15 active torsions:
REMARK  status: ('A' for Active; 'I' for Inactive)
REMARK    1  A    between atoms: N_1  and  CE_4
REMARK    2  A    between atoms: N_1  and  CA_17
REMARK    3  A    between atoms: CE_4  and  CD_5
REMARK    4  A    between atoms: CD_5  and  CG_6
REMARK    5  A    between atoms: CG_6  and  CB_7
REMARK    6  A    between atoms: CB_7  and  CA_8
REMARK    7  A    between atoms: CA_8  and  N_9
REMARK    8  A    between atoms: CA_8  and  C_14
REMARK    9  A    between atoms: C_14  and  O_15
REMARK   10  A    between atoms: CA_17  and  C_19
REMARK   11  A    between atoms: CA_17  and  CB_22
REMARK   12  A    between atoms: C_19  and  O_20
REMARK   13  A    between atoms: CB_22  and  CG_23
REMARK   14  A    between atoms: CG_23  and  CD_25
REMARK   15  A    between atoms: CD_25  and  OE1_26
REMARK                            x       y       z     vdW  Elec       q    Type
REMARK                         _______ _______ _______ _____ _____    ______ ____
ROOT
ATOM      1  N   LYS A   1      34.313 -23.668 -12.943  0.00  0.00    +0.392 N 
ATOM      2  H1  LYS A   1      33.829 -23.675 -12.045  0.00  0.00    -0.084 HD
ATOM      3  H2  LYS A   1      34.515 -22.710 -13.231  0.00  0.00    -0.084 HD
ENDROOT
BRANCH   1   4
ATOM      4  CE  LYS A   1      33.462 -24.288 -13.950  0.00  0.00    -0.081 C 
BRANCH   4   5
ATOM      5  CD  LYS A   1      32.569 -23.238 -14.612  0.00  0.00    -0.023 C 
BRANCH   5   6
ATOM      6  CG  LYS A   1      31.135 -23.321 -14.083  0.00  0.00    -0.004 C 
BRANCH   6   7
ATOM      7  CB  LYS A   1      30.090 -22.750 -15.051  0.00  0.00    -0.011 C 
BRANCH   7   8
ATOM      8  CA  LYS A   1      29.068 -23.772 -15.564  0.00  0.00    +0.036 C 
BRANCH   8   9
ATOM      9  N   LYS A   1      29.703 -25.053 -15.873  0.00  0.00    +0.389 N 
ATOM     10  H1  LYS A   1      29.069 -25.814 -15.628  0.00  0.00    -0.088 HD
ATOM     11  H2  LYS A   1      30.566 -25.144 -15.336  0.00  0.00    -0.088 HD
ATOM     12  H3  LYS A   1      29.916 -25.096 -16.870  0.00  0.00    -0.088 HD
ENDBRANCH   8   9
BRANCH   8  14
ATOM     13  OXT LYS A   1      27.717 -24.068 -17.544  0.00  0.00    -0.253 OA
ATOM     14  C   LYS A   1      28.340 -23.308 -16.809  0.00  0.00    +0.293 C 
BRANCH  14  15
ATOM     15  O   LYS A   1      28.452 -21.979 -17.055  0.00  0.00    -0.482 OA
ATOM     16  H   LYS A   1      29.169 -21.495 -16.697  0.00  0.00    +0.295 HD
ENDBRANCH  14  15
ENDBRANCH   8  14
ENDBRANCH   7   8
ENDBRANCH   6   7
ENDBRANCH   5   6
ENDBRANCH   4   5
ENDBRANCH   1   4
BRANCH   1  17
ATOM     17  CA  LYS A   1      35.572 -24.388 -12.812  0.00  0.00    +0.040 C 
BRANCH  17  19
ATOM     18  OXT LYS A   1      36.961 -23.587 -10.971  0.00  0.00    -0.253 OA
ATOM     19  C   LYS A   1      36.031 -24.276 -11.369  0.00  0.00    +0.293 C 
BRANCH  19  20
ATOM     20  O   LYS A   1      35.281 -25.045 -10.536  0.00  0.00    -0.482 OA
ATOM     21  H   LYS A   1      34.395 -24.805 -10.347  0.00  0.00    +0.295 HD
ENDBRANCH  19  20
ENDBRANCH  17  19
BRANCH  17  22
ATOM     22  CB  LYS A   1      36.636 -23.883 -13.800  0.00  0.00    +0.001 C 
BRANCH  22  23
ATOM     23  CG  LYS A   1      37.523 -24.952 -14.444  0.00  0.00    +0.108 C 
BRANCH  23  25
ATOM     24  OE2 LYS A   1      36.080 -26.455 -15.666  0.00  0.00    -0.250 OA
ATOM     25  CD  LYS A   1      36.814 -26.257 -14.706  0.00  0.00    +0.314 C 
BRANCH  25  26
ATOM     26  OE1 LYS A   1      37.085 -27.199 -13.769  0.00  0.00    -0.480 OA
ATOM     27  HE1 LYS A   1      37.232 -28.088 -14.028  0.00  0.00    +0.295 HD
ENDBRANCH  25  26
ENDBRANCH  23  25
ENDBRANCH  22  23
ENDBRANCH  17  22
ENDBRANCH   1  17
TORSDOF 15
ENDMDL
MODEL 7
REMARK VINA RESULT:      -7.1      3.600      4.681
REMARK  Name = 160556
REMARK  15 active torsions:
REMARK  status: ('A' for Active; 'I' for Inactive)
REMARK    1  A    between atoms: N_1  and  CE_4
REMARK    2  A    between atoms: N_1  and  CA_17
REMARK    3  A    between atoms: CE_4  and  CD_5
REMARK    4  A    between atoms: CD_5  and  CG_6
REMARK    5  A    between atoms: CG_6  and  CB_7
REMARK    6  A    between atoms: CB_7  and  CA_8
REMARK    7  A    between atoms: CA_8  and  N_9
REMARK    8  A    between atoms: CA_8  and  C_14
REMARK    9  A    between atoms: C_14  and  O_15
REMARK   10  A    between atoms: CA_17  and  C_19
REMARK   11  A    between atoms: CA_17  and  CB_22
REMARK   12  A    between atoms: C_19  and  O_20
REMARK   13  A    between atoms: CB_22  and  CG_23
REMARK   14  A    between atoms: CG_23  and  CD_25
REMARK   15  A    between atoms: CD_25  and  OE1_26
REMARK                            x       y       z     vdW  Elec       q    Type
REMARK                         _______ _______ _______ _____ _____    ______ ____
ROOT
ATOM      1  N   LYS A   1      34.829 -23.566 -13.334  0.00  0.00    +0.392 N 
ATOM      2  H1  LYS A   1      35.525 -22.855 -13.558  0.00  0.00    -0.084 HD
ATOM      3  H2  LYS A   1      34.063 -23.159 -12.797  0.00  0.00    -0.084 HD
ENDROOT
BRANCH   1   4
ATOM      4  CE  LYS A   1      35.455 -24.611 -12.532  0.00  0.00    -0.081 C 
BRANCH   4   5
ATOM      5  CD  LYS A   1      36.584 -24.025 -11.682  0.00  0.00    -0.023 C 
BRANCH   5   6
ATOM      6  CG  LYS A   1      37.851 -23.819 -12.516  0.00  0.00    -0.004 C 
BRANCH   6   7
ATOM      7  CB  LYS A   1      38.633 -25.114 -12.774  0.00  0.00    -0.011 C 
BRANCH   7   8
ATOM      8  CA  LYS A   1      38.750 -25.508 -14.252  0.00  0.00    +0.036 C 
BRANCH   8   9
ATOM      9  N   LYS A   1      38.331 -26.893 -14.469  0.00  0.00    +0.389 N 
ATOM     10  H1  LYS A   1      37.467 -27.070 -13.957  0.00  0.00    -0.088 HD
ATOM     11  H2  LYS A   1      39.059 -27.526 -14.137  0.00  0.00    -0.088 HD
ATOM     12  H3  LYS A   1      38.174 -27.048 -15.466  0.00  0.00    -0.088 HD
ENDBRANCH   8   9
BRANCH   8  14
ATOM     13  OXT LYS A   1      41.039 -24.740 -14.211  0.00  0.00    -0.253 OA
ATOM     14  C   LYS A   1      40.157 -25.363 -14.794  0.00  0.00    +0.293 C 
BRANCH  14  15
ATOM     15  O   LYS A   1      40.356 -25.966 -15.991  0.00  0.00    -0.482 OA
ATOM     16  H   LYS A   1      39.844 -25.715 -16.734  0.00  0.00    +0.295 HD
ENDBRANCH  14  15
ENDBRANCH   8  14
ENDBRANCH   7   8
ENDBRANCH   6   7
ENDBRANCH   5   6
ENDBRANCH   4   5
ENDBRANCH   1   4
BRANCH   1  17
ATOM     17  CA  LYS A   1      34.291 -24.114 -14.571  0.00  0.00    +0.040 C 
BRANCH  17  19
ATOM     18  OXT LYS A   1      35.566 -25.979 -15.497  0.00  0.00    -0.253 OA
ATOM     19  C   LYS A   1      35.429 -24.775 -15.328  0.00  0.00    +0.293 C 
BRANCH  19  20
ATOM     20  O   LYS A   1      36.311 -23.862 -15.817  0.00  0.00    -0.482 OA
ATOM     21  H   LYS A   1      36.442 -23.050 -15.369  0.00  0.00    +0.295 HD
ENDBRANCH  19  20
ENDBRANCH  17  19
BRANCH  17  22
ATOM     22  CB  LYS A   1      33.575 -23.046 -15.415  0.00  0.00    +0.001 C 
BRANCH  22  23
ATOM     23  CG  LYS A   1      32.952 -23.530 -16.728  0.00  0.00    +0.108 C 
BRANCH  23  25
ATOM     24  OE2 LYS A   1      32.718 -22.314 -18.802  0.00  0.00    -0.250 OA
ATOM     25  CD  LYS A   1      33.450 -22.795 -17.947  0.00  0.00    +0.314 C 
BRANCH  25  26
ATOM     26  OE1 LYS A   1      34.803 -22.712 -17.993  0.00  0.00    -0.480 OA
ATOM     27  HE1 LYS A   1      35.293 -22.618 -17.199  0.00  0.00    +0.295 HD
ENDBRANCH  25  26
ENDBRANCH  23  25
ENDBRANCH  22  23
ENDBRANCH  17  22
ENDBRANCH   1  17
TORSDOF 15
ENDMDL
MODEL 8
REMARK VINA RESULT:      -6.9      8.393      9.901
REMARK  Name = 160556
REMARK  15 active torsions:
REMARK  status: ('A' for Active; 'I' for Inactive)
REMARK    1  A    between atoms: N_1  and  CE_4
REMARK    2  A    between atoms: N_1  and  CA_17
REMARK    3  A    between atoms: CE_4  and  CD_5
REMARK    4  A    between atoms: CD_5  and  CG_6
REMARK    5  A    between atoms: CG_6  and  CB_7
REMARK    6  A    between atoms: CB_7  and  CA_8
REMARK    7  A    between atoms: CA_8  and  N_9
REMARK    8  A    between atoms: CA_8  and  C_14
REMARK    9  A    between atoms: C_14  and  O_15
REMARK   10  A    between atoms: CA_17  and  C_19
REMARK   11  A    between atoms: CA_17  and  CB_22
REMARK   12  A    between atoms: C_19  and  O_20
REMARK   13  A    between atoms: CB_22  and  CG_23
REMARK   14  A    between atoms: CG_23  and  CD_25
REMARK   15  A    between atoms: CD_25  and  OE1_26
REMARK                            x       y       z     vdW  Elec       q    Type
REMARK                         _______ _______ _______ _____ _____    ______ ____
ROOT
ATOM      1  N   LYS A   1      36.005 -17.529 -22.930  0.00  0.00    +0.392 N 
ATOM      2  H1  LYS A   1      36.539 -17.861 -23.733  0.00  0.00    -0.084 HD
ATOM      3  H2  LYS A   1      36.516 -16.793 -22.441  0.00  0.00    -0.084 HD
ENDROOT
BRANCH   1   4
ATOM      4  CE  LYS A   1      35.788 -18.637 -22.008  0.00  0.00    -0.081 C 
BRANCH   4   5
ATOM      5  CD  LYS A   1      34.437 -18.491 -21.309  0.00  0.00    -0.023 C 
BRANCH   5   6
ATOM      6  CG  LYS A   1      33.650 -19.803 -21.352  0.00  0.00    -0.004 C 
BRANCH   6   7
ATOM      7  CB  LYS A   1      33.302 -20.356 -19.963  0.00  0.00    -0.011 C 
BRANCH   7   8
ATOM      8  CA  LYS A   1      33.850 -21.760 -19.677  0.00  0.00    +0.036 C 
BRANCH   8   9
ATOM      9  N   LYS A   1      32.958 -22.510 -18.792  0.00  0.00    +0.389 N 
ATOM     10  H1  LYS A   1      33.210 -22.326 -17.821  0.00  0.00    -0.088 HD
ATOM     11  H2  LYS A   1      33.050 -23.508 -18.983  0.00  0.00    -0.088 HD
ATOM     12  H3  LYS A   1      31.994 -22.219 -18.954  0.00  0.00    -0.088 HD
ENDBRANCH   8   9
BRANCH   8  14
ATOM     13  OXT LYS A   1      36.165 -21.101 -19.494  0.00  0.00    -0.253 OA
ATOM     14  C   LYS A   1      35.223 -21.740 -19.038  0.00  0.00    +0.293 C 
BRANCH  14  15
ATOM     15  O   LYS A   1      35.329 -22.507 -17.925  0.00  0.00    -0.482 OA
ATOM     16  H   LYS A   1      35.967 -23.191 -17.885  0.00  0.00    +0.295 HD
ENDBRANCH  14  15
ENDBRANCH   8  14
ENDBRANCH   7   8
ENDBRANCH   6   7
ENDBRANCH   5   6
ENDBRANCH   4   5
ENDBRANCH   1   4
BRANCH   1  17
ATOM     17  CA  LYS A   1      34.737 -16.984 -23.394  0.00  0.00    +0.040 C 
BRANCH  17  19
ATOM     18  OXT LYS A   1      34.787 -16.612 -25.806  0.00  0.00    -0.253 OA
ATOM     19  C   LYS A   1      34.572 -17.354 -24.858  0.00  0.00    +0.293 C 
BRANCH  19  20
ATOM     20  O   LYS A   1      34.147 -18.636 -25.013  0.00  0.00    -0.482 OA
ATOM     21  H   LYS A   1      34.327 -19.273 -24.350  0.00  0.00    +0.295 HD
ENDBRANCH  19  20
ENDBRANCH  17  19
BRANCH  17  22
ATOM     22  CB  LYS A   1      34.637 -15.467 -23.165  0.00  0.00    +0.001 C 
BRANCH  22  23
ATOM     23  CG  LYS A   1      33.411 -14.979 -22.389  0.00  0.00    +0.108 C 
BRANCH  23  25
ATOM     24  OE2 LYS A   1      32.661 -15.001 -20.093  0.00  0.00    -0.250 OA
ATOM     25  CD  LYS A   1      33.588 -14.997 -20.891  0.00  0.00    +0.314 C 
BRANCH  25  26
ATOM     26  OE1 LYS A   1      34.892 -15.021 -20.518  0.00  0.00    -0.480 OA
ATOM     27  HE1 LYS A   1      35.143 -14.704 -19.673  0.00  0.00    +0.295 HD
ENDBRANCH  25  26
ENDBRANCH  23  25
ENDBRANCH  22  23
ENDBRANCH  17  22
ENDBRANCH   1  17
TORSDOF 15
ENDMDL
MODEL 9
REMARK VINA RESULT:      -6.9      8.921     10.353
REMARK  Name = 160556
REMARK  15 active torsions:
REMARK  status: ('A' for Active; 'I' for Inactive)
REMARK    1  A    between atoms: N_1  and  CE_4
REMARK    2  A    between atoms: N_1  and  CA_17
REMARK    3  A    between atoms: CE_4  and  CD_5
REMARK    4  A    between atoms: CD_5  and  CG_6
REMARK    5  A    between atoms: CG_6  and  CB_7
REMARK    6  A    between atoms: CB_7  and  CA_8
REMARK    7  A    between atoms: CA_8  and  N_9
REMARK    8  A    between atoms: CA_8  and  C_14
REMARK    9  A    between atoms: C_14  and  O_15
REMARK   10  A    between atoms: CA_17  and  C_19
REMARK   11  A    between atoms: CA_17  and  CB_22
REMARK   12  A    between atoms: C_19  and  O_20
REMARK   13  A    between atoms: CB_22  and  CG_23
REMARK   14  A    between atoms: CG_23  and  CD_25
REMARK   15  A    between atoms: CD_25  and  OE1_26
REMARK                            x       y       z     vdW  Elec       q    Type
REMARK                         _______ _______ _______ _____ _____    ______ ____
ROOT
ATOM      1  N   LYS A   1      36.005 -17.864 -22.904  0.00  0.00    +0.392 N 
ATOM      2  H1  LYS A   1      36.272 -18.620 -23.534  0.00  0.00    -0.084 HD
ATOM      3  H2  LYS A   1      36.761 -17.181 -22.826  0.00  0.00    -0.084 HD
ENDROOT
BRANCH   1   4
ATOM      4  CE  LYS A   1      35.739 -18.416 -21.581  0.00  0.00    -0.081 C 
BRANCH   4   5
ATOM      5  CD  LYS A   1      34.235 -18.440 -21.307  0.00  0.00    -0.023 C 
BRANCH   5   6
ATOM      6  CG  LYS A   1      33.693 -19.871 -21.333  0.00  0.00    -0.004 C 
BRANCH   6   7
ATOM      7  CB  LYS A   1      33.259 -20.388 -19.955  0.00  0.00    -0.011 C 
BRANCH   7   8
ATOM      8  CA  LYS A   1      33.706 -21.821 -19.638  0.00  0.00    +0.036 C 
BRANCH   8   9
ATOM      9  N   LYS A   1      32.849 -22.435 -18.623  0.00  0.00    +0.389 N 
ATOM     10  H1  LYS A   1      32.355 -23.229 -19.031  0.00  0.00    -0.088 HD
ATOM     11  H2  LYS A   1      32.172 -21.749 -18.289  0.00  0.00    -0.088 HD
ATOM     12  H3  LYS A   1      33.423 -22.755 -17.842  0.00  0.00    -0.088 HD
ENDBRANCH   8   9
BRANCH   8  14
ATOM     13  OXT LYS A   1      36.092 -21.492 -19.792  0.00  0.00    -0.253 OA
ATOM     14  C   LYS A   1      35.135 -21.899 -19.142  0.00  0.00    +0.293 C 
BRANCH  14  15
ATOM     15  O   LYS A   1      35.269 -22.477 -17.923  0.00  0.00    -0.482 OA
ATOM     16  H   LYS A   1      36.037 -22.318 -17.411  0.00  0.00    +0.295 HD
ENDBRANCH  14  15
ENDBRANCH   8  14
ENDBRANCH   7   8
ENDBRANCH   6   7
ENDBRANCH   5   6
ENDBRANCH   4   5
ENDBRANCH   1   4
BRANCH   1  17
ATOM     17  CA  LYS A   1      34.826 -17.194 -23.433  0.00  0.00    +0.040 C 
BRANCH  17  19
ATOM     18  OXT LYS A   1      34.744 -16.955 -25.862  0.00  0.00    -0.253 OA
ATOM     19  C   LYS A   1      34.625 -17.656 -24.866  0.00  0.00    +0.293 C 
BRANCH  19  20
ATOM     20  O   LYS A   1      34.287 -18.971 -24.932  0.00  0.00    -0.482 OA
ATOM     21  H   LYS A   1      33.637 -19.258 -25.542  0.00  0.00    +0.295 HD
ENDBRANCH  19  20
ENDBRANCH  17  19
BRANCH  17  22
ATOM     22  CB  LYS A   1      34.931 -15.663 -23.327  0.00  0.00    +0.001 C 
BRANCH  22  23
ATOM     23  CG  LYS A   1      33.607 -14.901 -23.218  0.00  0.00    +0.108 C 
BRANCH  23  25
ATOM     24  OE2 LYS A   1      33.532 -12.738 -24.288  0.00  0.00    -0.250 OA
ATOM     25  CD  LYS A   1      33.355 -13.947 -24.358  0.00  0.00    +0.314 C 
BRANCH  25  26
ATOM     26  OE1 LYS A   1      32.923 -14.573 -25.480  0.00  0.00    -0.480 OA
ATOM     27  HE1 LYS A   1      33.503 -14.681 -26.209  0.00  0.00    +0.295 HD
ENDBRANCH  25  26
ENDBRANCH  23  25
ENDBRANCH  22  23
ENDBRANCH  17  22
ENDBRANCH   1  17
TORSDOF 15
ENDMDL
