MODEL 1
REMARK VINA RESULT:     -11.1      0.000      0.000
REMARK  Name = 24180585
REMARK  4 active torsions:
REMARK  status: ('A' for Active; 'I' for Inactive)
REMARK    1  A    between atoms: C_4  and  C_15
REMARK    2  A    between atoms: C_5  and  N_29
REMARK    3  A    between atoms: C_10  and  C_22
REMARK    4  A    between atoms: C_26  and  O_27
REMARK                            x       y       z     vdW  Elec       q    Type
REMARK                         _______ _______ _______ _____ _____    ______ ____
ROOT
ATOM      1  N   UNL     1      33.887 -15.743 -24.786  0.00  0.00    -0.298 N 
ATOM      2  N   UNL     1      34.208 -17.900 -25.661  0.00  0.00    -0.234 NA
ATOM      3  N   UNL     1      34.973 -19.663 -24.208  0.00  0.00    -0.248 NA
ATOM      4  C   UNL     1      33.733 -13.404 -24.475  0.00  0.00    +0.026 C 
ATOM      5  C   UNL     1      32.882 -13.813 -25.690  0.00  0.00    -0.040 C 
ATOM      6  C   UNL     1      33.889 -14.740 -23.722  0.00  0.00    +0.094 C 
ATOM      7  C   UNL     1      33.475 -15.176 -26.070  0.00  0.00    +0.070 C 
ATOM      8  C   UNL     1      34.250 -17.062 -24.604  0.00  0.00    +0.111 C 
ATOM      9  C   UNL     1      34.636 -17.445 -23.336  0.00  0.00    +0.106 C 
ATOM     10  C   UNL     1      34.991 -18.771 -23.196  0.00  0.00    +0.065 C 
ATOM     11  C   UNL     1      34.577 -19.167 -25.395  0.00  0.00    +0.251 C 
ENDROOT
BRANCH   4  15
ATOM     12  F   UNL     1      34.427 -10.677 -24.830  0.00  0.00    -0.204 F 
ATOM     13  F   UNL     1      30.854 -11.840 -20.856  0.00  0.00    -0.202 F 
ATOM     14  F   UNL     1      31.609  -9.252 -21.307  0.00  0.00    -0.202 F 
ATOM     15  C   UNL     1      33.165 -12.291 -23.628  0.00  0.00    +0.007 C 
ATOM     16  C   UNL     1      33.551 -10.970 -23.858  0.00  0.00    +0.138 C 
ATOM     17  C   UNL     1      32.254 -12.584 -22.614  0.00  0.00    +0.030 C 
ATOM     18  C   UNL     1      31.728 -11.558 -21.830  0.00  0.00    +0.167 C 
ATOM     19  C   UNL     1      33.025  -9.943 -23.074  0.00  0.00    +0.061 C 
ATOM     20  C   UNL     1      32.113 -10.238 -22.060  0.00  0.00    +0.170 C 
ENDBRANCH   4  15
BRANCH  10  22
ATOM     21  N   UNL     1      37.092 -19.399 -20.182  0.00  0.00    -0.210 NA
ATOM     22  C   UNL     1      35.416 -19.300 -21.921  0.00  0.00    +0.033 C 
ATOM     23  C   UNL     1      34.613 -20.181 -21.207  0.00  0.00    +0.008 C 
ATOM     24  C   UNL     1      36.636 -18.942 -21.370  0.00  0.00    +0.103 C 
ATOM     25  C   UNL     1      35.048 -20.673 -19.981  0.00  0.00    +0.058 C 
ATOM     26  C   UNL     1      36.284 -20.254 -19.517  0.00  0.00    +0.225 C 
BRANCH  26  27
ATOM     27  O   UNL     1      36.736 -20.725 -18.311  0.00  0.00    -0.456 OA
ATOM     28  C   UNL     1      36.253 -21.997 -17.899  0.00  0.00    +0.254 C 
ENDBRANCH  26  27
ENDBRANCH  10  22
BRANCH   5  29
ATOM     29  N   UNL     1      32.958 -12.861 -26.786  0.00  0.00    +0.383 N 
ATOM     30  H   UNL     1      32.067 -12.841 -27.282  0.00  0.00    -0.089 HD
ATOM     31  H   UNL     1      33.698 -13.140 -27.429  0.00  0.00    -0.089 HD
ATOM     32  H   UNL     1      33.162 -11.931 -26.417  0.00  0.00    -0.089 HD
ENDBRANCH   5  29
TORSDOF 4
ENDMDL
MODEL 2
REMARK VINA RESULT:     -10.9      4.230      8.487
REMARK  Name = 24180585
REMARK  4 active torsions:
REMARK  status: ('A' for Active; 'I' for Inactive)
REMARK    1  A    between atoms: C_4  and  C_15
REMARK    2  A    between atoms: C_5  and  N_29
REMARK    3  A    between atoms: C_10  and  C_22
REMARK    4  A    between atoms: C_26  and  O_27
REMARK                            x       y       z     vdW  Elec       q    Type
REMARK                         _______ _______ _______ _____ _____    ______ ____
ROOT
ATOM      1  N   UNL     1      34.159 -16.869 -24.328  0.00  0.00    -0.298 N 
ATOM      2  N   UNL     1      33.746 -15.322 -26.046  0.00  0.00    -0.234 NA
ATOM      3  N   UNL     1      33.016 -13.096 -25.483  0.00  0.00    -0.248 NA
ATOM      4  C   UNL     1      34.382 -18.829 -23.023  0.00  0.00    +0.026 C 
ATOM      5  C   UNL     1      35.160 -19.002 -24.339  0.00  0.00    -0.040 C 
ATOM      6  C   UNL     1      34.233 -17.298 -22.931  0.00  0.00    +0.094 C 
ATOM      7  C   UNL     1      34.518 -17.947 -25.249  0.00  0.00    +0.070 C 
ATOM      8  C   UNL     1      33.777 -15.606 -24.728  0.00  0.00    +0.111 C 
ATOM      9  C   UNL     1      33.447 -14.700 -23.741  0.00  0.00    +0.106 C 
ATOM     10  C   UNL     1      33.069 -13.448 -24.181  0.00  0.00    +0.065 C 
ATOM     11  C   UNL     1      33.363 -14.068 -26.348  0.00  0.00    +0.251 C 
ENDROOT
BRANCH   4  15
ATOM     12  F   UNL     1      37.077 -18.369 -22.269  0.00  0.00    -0.204 F 
ATOM     13  F   UNL     1      34.132 -21.698 -19.081  0.00  0.00    -0.202 F 
ATOM     14  F   UNL     1      36.744 -21.168 -18.468  0.00  0.00    -0.202 F 
ATOM     15  C   UNL     1      35.016 -19.454 -21.804  0.00  0.00    +0.007 C 
ATOM     16  C   UNL     1      36.348 -19.184 -21.492  0.00  0.00    +0.138 C 
ATOM     17  C   UNL     1      34.268 -20.303 -20.989  0.00  0.00    +0.030 C 
ATOM     18  C   UNL     1      34.851 -20.882 -19.863  0.00  0.00    +0.167 C 
ATOM     19  C   UNL     1      36.932 -19.762 -20.365  0.00  0.00    +0.061 C 
ATOM     20  C   UNL     1      36.183 -20.612 -19.550  0.00  0.00    +0.170 C 
ENDBRANCH   4  15
BRANCH  10  22
ATOM     21  N   UNL     1      32.694 -10.062 -22.671  0.00  0.00    -0.210 NA
ATOM     22  C   UNL     1      32.698 -12.408 -23.250  0.00  0.00    +0.033 C 
ATOM     23  C   UNL     1      32.013 -12.707 -22.078  0.00  0.00    +0.008 C 
ATOM     24  C   UNL     1      33.013 -11.082 -23.498  0.00  0.00    +0.103 C 
ATOM     25  C   UNL     1      31.668 -11.685 -21.201  0.00  0.00    +0.058 C 
ATOM     26  C   UNL     1      32.028 -10.390 -21.541  0.00  0.00    +0.225 C 
BRANCH  26  27
ATOM     27  O   UNL     1      31.700  -9.365 -20.693  0.00  0.00    -0.456 OA
ATOM     28  C   UNL     1      32.551  -8.226 -20.705  0.00  0.00    +0.254 C 
ENDBRANCH  26  27
ENDBRANCH  10  22
BRANCH   5  29
ATOM     29  N   UNL     1      35.051 -20.341 -24.895  0.00  0.00    +0.383 N 
ATOM     30  H   UNL     1      35.553 -20.384 -25.782  0.00  0.00    -0.089 HD
ATOM     31  H   UNL     1      34.068 -20.567 -25.050  0.00  0.00    -0.089 HD
ATOM     32  H   UNL     1      35.454 -21.016 -24.244  0.00  0.00    -0.089 HD
ENDBRANCH   5  29
TORSDOF 4
ENDMDL
MODEL 3
REMARK VINA RESULT:     -10.6      0.717      1.535
REMARK  Name = 24180585
REMARK  4 active torsions:
REMARK  status: ('A' for Active; 'I' for Inactive)
REMARK    1  A    between atoms: C_4  and  C_15
REMARK    2  A    between atoms: C_5  and  N_29
REMARK    3  A    between atoms: C_10  and  C_22
REMARK    4  A    between atoms: C_26  and  O_27
REMARK                            x       y       z     vdW  Elec       q    Type
REMARK                         _______ _______ _______ _____ _____    ______ ____
ROOT
ATOM      1  N   UNL     1      33.904 -15.795 -24.719  0.00  0.00    -0.298 N 
ATOM      2  N   UNL     1      34.265 -17.932 -25.626  0.00  0.00    -0.234 NA
ATOM      3  N   UNL     1      35.023 -19.713 -24.191  0.00  0.00    -0.248 NA
ATOM      4  C   UNL     1      33.718 -13.464 -24.369  0.00  0.00    +0.026 C 
ATOM      5  C   UNL     1      32.895 -13.860 -25.607  0.00  0.00    -0.040 C 
ATOM      6  C   UNL     1      33.875 -14.811 -23.637  0.00  0.00    +0.094 C 
ATOM      7  C   UNL     1      33.510 -15.210 -26.000  0.00  0.00    +0.070 C 
ATOM      8  C   UNL     1      34.278 -17.113 -24.554  0.00  0.00    +0.111 C 
ATOM      9  C   UNL     1      34.644 -17.515 -23.286  0.00  0.00    +0.106 C 
ATOM     10  C   UNL     1      35.012 -18.839 -23.163  0.00  0.00    +0.065 C 
ATOM     11  C   UNL     1      34.643 -19.200 -25.376  0.00  0.00    +0.251 C 
ENDROOT
BRANCH   4  15
ATOM     12  F   UNL     1      31.935 -13.974 -22.223  0.00  0.00    -0.204 F 
ATOM     13  F   UNL     1      33.203  -8.748 -23.218  0.00  0.00    -0.202 F 
ATOM     14  F   UNL     1      31.497  -9.380 -21.178  0.00  0.00    -0.202 F 
ATOM     15  C   UNL     1      33.122 -12.372 -23.513  0.00  0.00    +0.007 C 
ATOM     16  C   UNL     1      32.251 -12.695 -22.472  0.00  0.00    +0.138 C 
ATOM     17  C   UNL     1      33.444 -11.039 -23.764  0.00  0.00    +0.030 C 
ATOM     18  C   UNL     1      32.895 -10.028 -22.976  0.00  0.00    +0.167 C 
ATOM     19  C   UNL     1      31.702 -11.685 -21.683  0.00  0.00    +0.061 C 
ATOM     20  C   UNL     1      32.025 -10.351 -21.935  0.00  0.00    +0.170 C 
ENDBRANCH   4  15
BRANCH  10  22
ATOM     21  N   UNL     1      37.064 -19.499 -20.122  0.00  0.00    -0.210 NA
ATOM     22  C   UNL     1      35.418 -19.386 -21.889  0.00  0.00    +0.033 C 
ATOM     23  C   UNL     1      34.612 -20.289 -21.207  0.00  0.00    +0.008 C 
ATOM     24  C   UNL     1      36.624 -19.027 -21.310  0.00  0.00    +0.103 C 
ATOM     25  C   UNL     1      35.029 -20.798 -19.982  0.00  0.00    +0.058 C 
ATOM     26  C   UNL     1      36.252 -20.375 -19.487  0.00  0.00    +0.225 C 
BRANCH  26  27
ATOM     27  O   UNL     1      36.686 -20.862 -18.282  0.00  0.00    -0.456 OA
ATOM     28  C   UNL     1      36.006 -22.001 -17.768  0.00  0.00    +0.254 C 
ENDBRANCH  26  27
ENDBRANCH  10  22
BRANCH   5  29
ATOM     29  N   UNL     1      32.980 -12.888 -26.684  0.00  0.00    +0.383 N 
ATOM     30  H   UNL     1      32.567 -13.279 -27.531  0.00  0.00    -0.089 HD
ATOM     31  H   UNL     1      33.958 -12.658 -26.859  0.00  0.00    -0.089 HD
ATOM     32  H   UNL     1      32.475 -12.041 -26.420  0.00  0.00    -0.089 HD
ENDBRANCH   5  29
TORSDOF 4
ENDMDL
MODEL 4
REMARK VINA RESULT:     -10.2      4.633      7.748
REMARK  Name = 24180585
REMARK  4 active torsions:
REMARK  status: ('A' for Active; 'I' for Inactive)
REMARK    1  A    between atoms: C_4  and  C_15
REMARK    2  A    between atoms: C_5  and  N_29
REMARK    3  A    between atoms: C_10  and  C_22
REMARK    4  A    between atoms: C_26  and  O_27
REMARK                            x       y       z     vdW  Elec       q    Type
REMARK                         _______ _______ _______ _____ _____    ______ ____
ROOT
ATOM      1  N   UNL     1      31.953  -8.853 -22.286  0.00  0.00    -0.298 N 
ATOM      2  N   UNL     1      31.722 -10.498 -20.626  0.00  0.00    -0.234 NA
ATOM      3  N   UNL     1      32.173 -12.801 -21.171  0.00  0.00    -0.248 NA
ATOM      4  C   UNL     1      31.727  -6.930 -23.644  0.00  0.00    +0.026 C 
ATOM      5  C   UNL     1      31.938  -6.499 -22.182  0.00  0.00    -0.040 C 
ATOM      6  C   UNL     1      32.255  -8.378 -23.637  0.00  0.00    +0.094 C 
ATOM      7  C   UNL     1      31.547  -7.762 -21.402  0.00  0.00    +0.070 C 
ATOM      8  C   UNL     1      32.023 -10.175 -21.901  0.00  0.00    +0.111 C 
ATOM      9  C   UNL     1      32.403 -11.097 -22.855  0.00  0.00    +0.106 C 
ATOM     10  C   UNL     1      32.460 -12.408 -22.430  0.00  0.00    +0.065 C 
ATOM     11  C   UNL     1      31.817 -11.809 -20.334  0.00  0.00    +0.251 C 
ENDROOT
BRANCH   4  15
ATOM     12  F   UNL     1      30.416  -4.723 -24.851  0.00  0.00    -0.204 F 
ATOM     13  F   UNL     1      35.549  -5.744 -26.440  0.00  0.00    -0.202 F 
ATOM     14  F   UNL     1      34.170  -3.646 -27.522  0.00  0.00    -0.202 F 
ATOM     15  C   UNL     1      32.379  -6.049 -24.682  0.00  0.00    +0.007 C 
ATOM     16  C   UNL     1      31.675  -4.979 -25.235  0.00  0.00    +0.138 C 
ATOM     17  C   UNL     1      33.688  -6.307 -25.089  0.00  0.00    +0.030 C 
ATOM     18  C   UNL     1      34.293  -5.496 -26.048  0.00  0.00    +0.167 C 
ATOM     19  C   UNL     1      32.280  -4.167 -26.194  0.00  0.00    +0.061 C 
ATOM     20  C   UNL     1      33.589  -4.426 -26.601  0.00  0.00    +0.170 C 
ENDBRANCH   4  15
BRANCH  10  22
ATOM     21  N   UNL     1      33.762 -15.684 -23.640  0.00  0.00    -0.210 NA
ATOM     22  C   UNL     1      32.843 -13.470 -23.331  0.00  0.00    +0.033 C 
ATOM     23  C   UNL     1      32.677 -13.338 -24.705  0.00  0.00    +0.008 C 
ATOM     24  C   UNL     1      33.384 -14.652 -22.853  0.00  0.00    +0.103 C 
ATOM     25  C   UNL     1      33.053 -14.378 -25.548  0.00  0.00    +0.058 C 
ATOM     26  C   UNL     1      33.586 -15.520 -24.970  0.00  0.00    +0.225 C 
BRANCH  26  27
ATOM     27  O   UNL     1      33.965 -16.559 -25.780  0.00  0.00    -0.456 OA
ATOM     28  C   UNL     1      34.506 -17.707 -25.138  0.00  0.00    +0.254 C 
ENDBRANCH  26  27
ENDBRANCH  10  22
BRANCH   5  29
ATOM     29  N   UNL     1      31.129  -5.352 -21.802  0.00  0.00    +0.383 N 
ATOM     30  H   UNL     1      31.699  -4.694 -21.271  0.00  0.00    -0.089 HD
ATOM     31  H   UNL     1      30.345  -5.663 -21.229  0.00  0.00    -0.089 HD
ATOM     32  H   UNL     1      30.774  -4.892 -22.642  0.00  0.00    -0.089 HD
ENDBRANCH   5  29
TORSDOF 4
ENDMDL
MODEL 5
REMARK VINA RESULT:      -9.8      4.588      7.566
REMARK  Name = 24180585
REMARK  4 active torsions:
REMARK  status: ('A' for Active; 'I' for Inactive)
REMARK    1  A    between atoms: C_4  and  C_15
REMARK    2  A    between atoms: C_5  and  N_29
REMARK    3  A    between atoms: C_10  and  C_22
REMARK    4  A    between atoms: C_26  and  O_27
REMARK                            x       y       z     vdW  Elec       q    Type
REMARK                         _______ _______ _______ _____ _____    ______ ____
ROOT
ATOM      1  N   UNL     1      32.072  -8.985 -22.324  0.00  0.00    -0.298 N 
ATOM      2  N   UNL     1      31.742 -10.614 -20.664  0.00  0.00    -0.234 NA
ATOM      3  N   UNL     1      32.157 -12.930 -21.181  0.00  0.00    -0.248 NA
ATOM      4  C   UNL     1      31.941  -7.065 -23.699  0.00  0.00    +0.026 C 
ATOM      5  C   UNL     1      32.109  -6.631 -22.233  0.00  0.00    -0.040 C 
ATOM      6  C   UNL     1      32.434  -8.525 -23.665  0.00  0.00    +0.094 C 
ATOM      7  C   UNL     1      31.661  -7.879 -21.461  0.00  0.00    +0.070 C 
ATOM      8  C   UNL     1      32.097 -10.306 -21.929  0.00  0.00    +0.111 C 
ATOM      9  C   UNL     1      32.489 -11.242 -22.864  0.00  0.00    +0.106 C 
ATOM     10  C   UNL     1      32.499 -12.552 -22.430  0.00  0.00    +0.065 C 
ATOM     11  C   UNL     1      31.795 -11.925 -20.362  0.00  0.00    +0.251 C 
ENDROOT
BRANCH   4  15
ATOM     12  F   UNL     1      34.666  -7.423 -24.400  0.00  0.00    -0.204 F 
ATOM     13  F   UNL     1      31.953  -3.398 -26.921  0.00  0.00    -0.202 F 
ATOM     14  F   UNL     1      34.585  -3.853 -27.504  0.00  0.00    -0.202 F 
ATOM     15  C   UNL     1      32.651  -6.206 -24.717  0.00  0.00    +0.007 C 
ATOM     16  C   UNL     1      33.994  -6.438 -25.015  0.00  0.00    +0.138 C 
ATOM     17  C   UNL     1      31.962  -5.179 -25.362  0.00  0.00    +0.030 C 
ATOM     18  C   UNL     1      32.615  -4.384 -26.303  0.00  0.00    +0.167 C 
ATOM     19  C   UNL     1      34.648  -5.644 -25.956  0.00  0.00    +0.061 C 
ATOM     20  C   UNL     1      33.958  -4.616 -26.601  0.00  0.00    +0.170 C 
ENDBRANCH   4  15
BRANCH  10  22
ATOM     21  N   UNL     1      33.796 -15.852 -23.577  0.00  0.00    -0.210 NA
ATOM     22  C   UNL     1      32.889 -13.627 -23.312  0.00  0.00    +0.033 C 
ATOM     23  C   UNL     1      32.747 -13.512 -24.690  0.00  0.00    +0.008 C 
ATOM     24  C   UNL     1      33.414 -14.807 -22.809  0.00  0.00    +0.103 C 
ATOM     25  C   UNL     1      33.129 -14.566 -25.513  0.00  0.00    +0.058 C 
ATOM     26  C   UNL     1      33.643 -15.704 -24.912  0.00  0.00    +0.225 C 
BRANCH  26  27
ATOM     27  O   UNL     1      34.028 -16.756 -25.702  0.00  0.00    -0.456 OA
ATOM     28  C   UNL     1      34.528 -17.909 -25.035  0.00  0.00    +0.254 C 
ENDBRANCH  26  27
ENDBRANCH  10  22
BRANCH   5  29
ATOM     29  N   UNL     1      31.315  -5.462 -21.889  0.00  0.00    +0.383 N 
ATOM     30  H   UNL     1      31.920  -4.743 -21.494  0.00  0.00    -0.089 HD
ATOM     31  H   UNL     1      30.605  -5.723 -21.204  0.00  0.00    -0.089 HD
ATOM     32  H   UNL     1      30.859  -5.100 -22.727  0.00  0.00    -0.089 HD
ENDBRANCH   5  29
TORSDOF 4
ENDMDL
MODEL 6
REMARK VINA RESULT:      -9.4      5.858     11.195
REMARK  Name = 24180585
REMARK  4 active torsions:
REMARK  status: ('A' for Active; 'I' for Inactive)
REMARK    1  A    between atoms: C_4  and  C_15
REMARK    2  A    between atoms: C_5  and  N_29
REMARK    3  A    between atoms: C_10  and  C_22
REMARK    4  A    between atoms: C_26  and  O_27
REMARK                            x       y       z     vdW  Elec       q    Type
REMARK                         _______ _______ _______ _____ _____    ______ ____
ROOT
ATOM      1  N   UNL     1      32.330  -9.882 -22.485  0.00  0.00    -0.298 N 
ATOM      2  N   UNL     1      31.502  -7.804 -21.769  0.00  0.00    -0.234 NA
ATOM      3  N   UNL     1      31.955  -5.834 -23.082  0.00  0.00    -0.248 NA
ATOM      4  C   UNL     1      33.193 -12.081 -22.599  0.00  0.00    +0.026 C 
ATOM      5  C   UNL     1      31.910 -12.080 -21.750  0.00  0.00    -0.040 C 
ATOM      6  C   UNL     1      33.058 -10.768 -23.394  0.00  0.00    +0.094 C 
ATOM      7  C   UNL     1      31.780 -10.607 -21.341  0.00  0.00    +0.070 C 
ATOM      8  C   UNL     1      32.198  -8.522 -22.675  0.00  0.00    +0.111 C 
ATOM      9  C   UNL     1      32.792  -7.976 -23.794  0.00  0.00    +0.106 C 
ATOM     10  C   UNL     1      32.637  -6.614 -23.948  0.00  0.00    +0.065 C 
ATOM     11  C   UNL     1      31.421  -6.486 -22.032  0.00  0.00    +0.251 C 
ENDROOT
BRANCH   4  15
ATOM     12  F   UNL     1      34.761 -14.305 -21.800  0.00  0.00    -0.204 F 
ATOM     13  F   UNL     1      32.421 -14.551 -26.738  0.00  0.00    -0.202 F 
ATOM     14  F   UNL     1      33.959 -16.628 -25.844  0.00  0.00    -0.202 F 
ATOM     15  C   UNL     1      33.399 -13.300 -23.466  0.00  0.00    +0.007 C 
ATOM     16  C   UNL     1      34.183 -14.359 -23.010  0.00  0.00    +0.138 C 
ATOM     17  C   UNL     1      32.804 -13.365 -24.725  0.00  0.00    +0.030 C 
ATOM     18  C   UNL     1      32.992 -14.489 -25.529  0.00  0.00    +0.167 C 
ATOM     19  C   UNL     1      34.372 -15.484 -23.812  0.00  0.00    +0.061 C 
ATOM     20  C   UNL     1      33.777 -15.548 -25.073  0.00  0.00    +0.170 C 
ENDBRANCH   4  15
BRANCH  10  22
ATOM     21  N   UNL     1      32.976  -4.251 -26.810  0.00  0.00    -0.210 NA
ATOM     22  C   UNL     1      33.211  -5.919 -25.076  0.00  0.00    +0.033 C 
ATOM     23  C   UNL     1      34.495  -6.211 -25.520  0.00  0.00    +0.008 C 
ATOM     24  C   UNL     1      32.498  -4.939 -25.749  0.00  0.00    +0.103 C 
ATOM     25  C   UNL     1      35.021  -5.524 -26.609  0.00  0.00    +0.058 C 
ATOM     26  C   UNL     1      34.228  -4.561 -27.213  0.00  0.00    +0.225 C 
BRANCH  26  27
ATOM     27  O   UNL     1      34.724  -3.871 -28.288  0.00  0.00    -0.456 OA
ATOM     28  C   UNL     1      34.000  -3.977 -29.507  0.00  0.00    +0.254 C 
ENDBRANCH  26  27
ENDBRANCH  10  22
BRANCH   5  29
ATOM     29  N   UNL     1      31.988 -12.962 -20.595  0.00  0.00    +0.383 N 
ATOM     30  H   UNL     1      32.750 -12.660 -19.988  0.00  0.00    -0.089 HD
ATOM     31  H   UNL     1      32.161 -13.917 -20.908  0.00  0.00    -0.089 HD
ATOM     32  H   UNL     1      31.108 -12.927 -20.079  0.00  0.00    -0.089 HD
ENDBRANCH   5  29
TORSDOF 4
ENDMDL
MODEL 7
REMARK VINA RESULT:      -9.1      6.482     10.780
REMARK  Name = 24180585
REMARK  4 active torsions:
REMARK  status: ('A' for Active; 'I' for Inactive)
REMARK    1  A    between atoms: C_4  and  C_15
REMARK    2  A    between atoms: C_5  and  N_29
REMARK    3  A    between atoms: C_10  and  C_22
REMARK    4  A    between atoms: C_26  and  O_27
REMARK                            x       y       z     vdW  Elec       q    Type
REMARK                         _______ _______ _______ _____ _____    ______ ____
ROOT
ATOM      1  N   UNL     1      33.641 -22.828 -16.965  0.00  0.00    -0.298 N 
ATOM      2  N   UNL     1      35.971 -22.658 -17.209  0.00  0.00    -0.234 NA
ATOM      3  N   UNL     1      36.879 -21.326 -18.999  0.00  0.00    -0.248 NA
ATOM      4  C   UNL     1      31.439 -23.560 -16.510  0.00  0.00    +0.026 C 
ATOM      5  C   UNL     1      32.300 -23.719 -15.245  0.00  0.00    -0.040 C 
ATOM      6  C   UNL     1      32.254 -22.544 -17.334  0.00  0.00    +0.094 C 
ATOM      7  C   UNL     1      33.726 -23.719 -15.810  0.00  0.00    +0.070 C 
ATOM      8  C   UNL     1      34.736 -22.329 -17.640  0.00  0.00    +0.111 C 
ATOM      9  C   UNL     1      34.495 -21.515 -18.728  0.00  0.00    +0.106 C 
ATOM     10  C   UNL     1      35.616 -21.038 -19.376  0.00  0.00    +0.065 C 
ATOM     11  C   UNL     1      36.982 -22.129 -17.924  0.00  0.00    +0.251 C 
ENDROOT
BRANCH   4  15
ATOM     12  F   UNL     1      30.533 -22.425 -14.074  0.00  0.00    -0.204 F 
ATOM     13  F   UNL     1      26.826 -23.095 -18.040  0.00  0.00    -0.202 F 
ATOM     14  F   UNL     1      26.087 -22.011 -15.641  0.00  0.00    -0.202 F 
ATOM     15  C   UNL     1      30.007 -23.144 -16.275  0.00  0.00    +0.007 C 
ATOM     16  C   UNL     1      29.630 -22.592 -15.052  0.00  0.00    +0.138 C 
ATOM     17  C   UNL     1      29.059 -23.314 -17.285  0.00  0.00    +0.030 C 
ATOM     18  C   UNL     1      27.736 -22.931 -17.071  0.00  0.00    +0.167 C 
ATOM     19  C   UNL     1      28.306 -22.208 -14.837  0.00  0.00    +0.061 C 
ATOM     20  C   UNL     1      27.359 -22.378 -15.847  0.00  0.00    +0.170 C 
ENDBRANCH   4  15
BRANCH  10  22
ATOM     21  N   UNL     1      36.529 -18.570 -22.015  0.00  0.00    -0.210 NA
ATOM     22  C   UNL     1      35.502 -20.176 -20.529  0.00  0.00    +0.033 C 
ATOM     23  C   UNL     1      34.320 -20.106 -21.258  0.00  0.00    +0.008 C 
ATOM     24  C   UNL     1      36.568 -19.395 -20.945  0.00  0.00    +0.103 C 
ATOM     25  C   UNL     1      34.241 -19.269 -22.365  0.00  0.00    +0.058 C 
ATOM     26  C   UNL     1      35.364 -18.528 -22.699  0.00  0.00    +0.225 C 
BRANCH  26  27
ATOM     27  O   UNL     1      35.310 -17.694 -23.786  0.00  0.00    -0.456 OA
ATOM     28  C   UNL     1      34.531 -18.132 -24.892  0.00  0.00    +0.254 C 
ENDBRANCH  26  27
ENDBRANCH  10  22
BRANCH   5  29
ATOM     29  N   UNL     1      32.006 -24.935 -14.504  0.00  0.00    +0.383 N 
ATOM     30  H   UNL     1      32.367 -25.741 -15.014  0.00  0.00    -0.089 HD
ATOM     31  H   UNL     1      30.997 -25.029 -14.389  0.00  0.00    -0.089 HD
ATOM     32  H   UNL     1      32.449 -24.889 -13.585  0.00  0.00    -0.089 HD
ENDBRANCH   5  29
TORSDOF 4
ENDMDL
MODEL 8
REMARK VINA RESULT:      -9.1      5.317     10.383
REMARK  Name = 24180585
REMARK  4 active torsions:
REMARK  status: ('A' for Active; 'I' for Inactive)
REMARK    1  A    between atoms: C_4  and  C_15
REMARK    2  A    between atoms: C_5  and  N_29
REMARK    3  A    between atoms: C_10  and  C_22
REMARK    4  A    between atoms: C_26  and  O_27
REMARK                            x       y       z     vdW  Elec       q    Type
REMARK                         _______ _______ _______ _____ _____    ______ ____
ROOT
ATOM      1  N   UNL     1      32.537 -11.656 -21.870  0.00  0.00    -0.298 N 
ATOM      2  N   UNL     1      31.551  -9.774 -20.868  0.00  0.00    -0.234 NA
ATOM      3  N   UNL     1      31.807  -7.613 -21.903  0.00  0.00    -0.248 NA
ATOM      4  C   UNL     1      33.580 -13.736 -22.292  0.00  0.00    +0.026 C 
ATOM      5  C   UNL     1      32.320 -13.962 -21.439  0.00  0.00    -0.040 C 
ATOM      6  C   UNL     1      33.318 -12.343 -22.899  0.00  0.00    +0.094 C 
ATOM      7  C   UNL     1      32.075 -12.575 -20.831  0.00  0.00    +0.070 C 
ATOM      8  C   UNL     1      32.286 -10.300 -21.870  0.00  0.00    +0.111 C 
ATOM      9  C   UNL     1      32.807  -9.557 -22.910  0.00  0.00    +0.106 C 
ATOM     10  C   UNL     1      32.534  -8.205 -22.873  0.00  0.00    +0.065 C 
ATOM     11  C   UNL     1      31.353  -8.445 -20.946  0.00  0.00    +0.251 C 
ENDROOT
BRANCH   4  15
ATOM     12  F   UNL     1      35.142 -16.038 -21.740  0.00  0.00    -0.204 F 
ATOM     13  F   UNL     1      33.139 -15.544 -26.806  0.00  0.00    -0.202 F 
ATOM     14  F   UNL     1      34.661 -17.715 -26.138  0.00  0.00    -0.202 F 
ATOM     15  C   UNL     1      33.871 -14.802 -23.320  0.00  0.00    +0.007 C 
ATOM     16  C   UNL     1      34.647 -15.910 -22.980  0.00  0.00    +0.138 C 
ATOM     17  C   UNL     1      33.361 -14.679 -24.613  0.00  0.00    +0.030 C 
ATOM     18  C   UNL     1      33.628 -15.663 -25.565  0.00  0.00    +0.167 C 
ATOM     19  C   UNL     1      34.914 -16.895 -23.931  0.00  0.00    +0.061 C 
ATOM     20  C   UNL     1      34.404 -16.770 -25.224  0.00  0.00    +0.170 C 
ENDBRANCH   4  15
BRANCH  10  22
ATOM     21  N   UNL     1      32.570  -5.552 -25.491  0.00  0.00    -0.210 NA
ATOM     22  C   UNL     1      33.023  -7.316 -23.901  0.00  0.00    +0.033 C 
ATOM     23  C   UNL     1      34.355  -7.340 -24.296  0.00  0.00    +0.008 C 
ATOM     24  C   UNL     1      32.178  -6.412 -24.524  0.00  0.00    +0.103 C 
ATOM     25  C   UNL     1      34.797  -6.471 -25.287  0.00  0.00    +0.058 C 
ATOM     26  C   UNL     1      33.873  -5.604 -25.848  0.00  0.00    +0.225 C 
BRANCH  26  27
ATOM     27  O   UNL     1      34.283  -4.737 -26.828  0.00  0.00    -0.456 OA
ATOM     28  C   UNL     1      35.591  -4.936 -27.351  0.00  0.00    +0.254 C 
ENDBRANCH  26  27
ENDBRANCH  10  22
BRANCH   5  29
ATOM     29  N   UNL     1      32.498 -14.981 -20.417  0.00  0.00    +0.383 N 
ATOM     30  H   UNL     1      33.407 -14.861 -19.970  0.00  0.00    -0.089 HD
ATOM     31  H   UNL     1      32.450 -15.906 -20.846  0.00  0.00    -0.089 HD
ATOM     32  H   UNL     1      31.761 -14.894 -19.717  0.00  0.00    -0.089 HD
ENDBRANCH   5  29
TORSDOF 4
ENDMDL
MODEL 9
REMARK VINA RESULT:      -9.0      4.372      8.570
REMARK  Name = 24180585
REMARK  4 active torsions:
REMARK  status: ('A' for Active; 'I' for Inactive)
REMARK    1  A    between atoms: C_4  and  C_15
REMARK    2  A    between atoms: C_5  and  N_29
REMARK    3  A    between atoms: C_10  and  C_22
REMARK    4  A    between atoms: C_26  and  O_27
REMARK                            x       y       z     vdW  Elec       q    Type
REMARK                         _______ _______ _______ _____ _____    ______ ____
ROOT
ATOM      1  N   UNL     1      33.978 -16.709 -23.878  0.00  0.00    -0.298 N 
ATOM      2  N   UNL     1      33.712 -14.970 -25.434  0.00  0.00    -0.234 NA
ATOM      3  N   UNL     1      32.979 -12.804 -24.674  0.00  0.00    -0.248 NA
ATOM      4  C   UNL     1      34.077 -18.807 -22.792  0.00  0.00    +0.026 C 
ATOM      5  C   UNL     1      34.944 -18.850 -24.062  0.00  0.00    -0.040 C 
ATOM      6  C   UNL     1      33.947 -17.293 -22.537  0.00  0.00    +0.094 C 
ATOM      7  C   UNL     1      34.384 -17.685 -24.888  0.00  0.00    +0.070 C 
ATOM      8  C   UNL     1      33.645 -15.400 -24.157  0.00  0.00    +0.111 C 
ATOM      9  C   UNL     1      33.261 -14.602 -23.099  0.00  0.00    +0.106 C 
ATOM     10  C   UNL     1      32.935 -13.301 -23.420  0.00  0.00    +0.065 C 
ATOM     11  C   UNL     1      33.371 -13.681 -25.618  0.00  0.00    +0.251 C 
ENDROOT
BRANCH   4  15
ATOM     12  F   UNL     1      32.466 -20.498 -21.183  0.00  0.00    -0.204 F 
ATOM     13  F   UNL     1      37.755 -20.091 -19.849  0.00  0.00    -0.202 F 
ATOM     14  F   UNL     1      36.089 -21.688 -18.382  0.00  0.00    -0.202 F 
ATOM     15  C   UNL     1      34.613 -19.580 -21.611  0.00  0.00    +0.007 C 
ATOM     16  C   UNL     1      33.764 -20.394 -20.862  0.00  0.00    +0.138 C 
ATOM     17  C   UNL     1      35.962 -19.478 -21.269  0.00  0.00    +0.030 C 
ATOM     18  C   UNL     1      36.460 -20.190 -20.178  0.00  0.00    +0.167 C 
ATOM     19  C   UNL     1      34.262 -21.107 -19.772  0.00  0.00    +0.061 C 
ATOM     20  C   UNL     1      35.611 -21.004 -19.430  0.00  0.00    +0.170 C 
ENDBRANCH   4  15
BRANCH  10  22
ATOM     21  N   UNL     1      31.943 -11.943 -20.094  0.00  0.00    -0.210 NA
ATOM     22  C   UNL     1      32.515 -12.364 -22.405  0.00  0.00    +0.033 C 
ATOM     23  C   UNL     1      32.283 -11.028 -22.713  0.00  0.00    +0.008 C 
ATOM     24  C   UNL     1      32.333 -12.767 -21.092  0.00  0.00    +0.103 C 
ATOM     25  C   UNL     1      31.881 -10.149 -21.714  0.00  0.00    +0.058 C 
ATOM     26  C   UNL     1      31.727 -10.652 -20.432  0.00  0.00    +0.225 C 
BRANCH  26  27
ATOM     27  O   UNL     1      31.331  -9.805 -19.429  0.00  0.00    -0.456 OA
ATOM     28  C   UNL     1      30.558 -10.373 -18.379  0.00  0.00    +0.254 C 
ENDBRANCH  26  27
ENDBRANCH  10  22
BRANCH   5  29
ATOM     29  N   UNL     1      34.853 -20.116 -24.773  0.00  0.00    +0.383 N 
ATOM     30  H   UNL     1      33.879 -20.415 -24.813  0.00  0.00    -0.089 HD
ATOM     31  H   UNL     1      35.405 -20.821 -24.285  0.00  0.00    -0.089 HD
ATOM     32  H   UNL     1      35.212 -20.001 -25.722  0.00  0.00    -0.089 HD
ENDBRANCH   5  29
TORSDOF 4
ENDMDL
