MODEL 1
REMARK VINA RESULT:      -8.6      0.000      0.000
REMARK  Name = 6436055
REMARK  9 active torsions:
REMARK  status: ('A' for Active; 'I' for Inactive)
REMARK    1  A    between atoms: CA_5  and  N_11
REMARK    2  A    between atoms: CA_7  and  C_27
REMARK    3  A    between atoms: C_8  and  C_30
REMARK    4  A    between atoms: C_12  and  C_14
REMARK    5  A    between atoms: C_14  and  C_19
REMARK    6  A    between atoms: C_15  and  C_24
REMARK    7  A    between atoms: C_27  and  O_28
REMARK    8  A    between atoms: C_30  and  O_31
REMARK    9  A    between atoms: O_31  and  C_34
REMARK                            x       y       z     vdW  Elec       q    Type
REMARK                         _______ _______ _______ _____ _____    ______ ____
ROOT
ATOM      1  S   UNL     1      33.558 -13.558 -24.690  0.00  0.00    -0.114 S 
ATOM      2  O   UNL     1      32.665 -13.876 -20.140  0.00  0.00    -0.273 OA
ATOM      3  N   UNL     1      33.067 -14.661 -22.326  0.00  0.00    -0.242 N 
ATOM      4  C   UNL     1      32.357 -14.040 -23.430  0.00  0.00    +0.155 C 
ATOM      5  CA  UNL     1      31.944 -12.946 -22.421  0.00  0.00    +0.179 C 
ATOM      6  C   UNL     1      32.570 -13.877 -21.345  0.00  0.00    +0.251 C 
ATOM      7  CA  UNL     1      33.925 -15.704 -22.472  0.00  0.00    +0.127 C 
ATOM      8  C   UNL     1      34.409 -16.057 -23.687  0.00  0.00    +0.030 C 
ATOM      9  C   UNL     1      34.124 -15.271 -24.965  0.00  0.00    +0.086 C 
ENDROOT
BRANCH   5  11
ATOM     10  O   UNL     1      30.636 -10.410 -22.666  0.00  0.00    -0.270 OA
ATOM     11  N   UNL     1      32.587 -11.635 -22.506  0.00  0.00    -0.293 N 
ATOM     12  C   UNL     1      31.865 -10.448 -22.625  0.00  0.00    +0.248 C 
ATOM     13  H   UNL     1      33.570 -11.589 -22.479  0.00  0.00    +0.150 HD
BRANCH  12  14
ATOM     14  C   UNL     1      32.701  -9.191 -22.704  0.00  0.00    +0.075 C 
ATOM     15  C   UNL     1      33.697  -9.212 -23.615  0.00  0.00    -0.019 C 
BRANCH  14  19
ATOM     16  S   UNL     1      32.249  -6.442 -19.918  0.00  0.00    -0.060 S 
ATOM     17  N   UNL     1      31.642  -7.026 -22.362  0.00  0.00    -0.385 NA
ATOM     18  N   UNL     1      30.802  -4.957 -21.584  0.00  0.00    -0.328 N 
ATOM     19  C   UNL     1      32.402  -8.064 -21.860  0.00  0.00    +0.127 C 
ATOM     20  C   UNL     1      32.822  -7.927 -20.554  0.00  0.00    +0.125 C 
ATOM     21  C   UNL     1      31.498  -6.114 -21.425  0.00  0.00    +0.204 C 
ATOM     22  H   UNL     1      30.733  -4.318 -20.838  0.00  0.00    +0.145 HD
ATOM     23  H   UNL     1      30.366  -4.759 -22.444  0.00  0.00    +0.145 HD
ENDBRANCH  14  19
BRANCH  15  24
ATOM     24  C   UNL     1      34.062 -10.354 -24.526  0.00  0.00    +0.026 C 
ATOM     25  C   UNL     1      35.369 -10.084 -25.255  0.00  0.00    +0.005 C 
ENDBRANCH  15  24
ENDBRANCH  12  14
ENDBRANCH   5  11
BRANCH   7  27
ATOM     26  OXT UNL     1      34.106 -17.552 -20.988  0.00  0.00    -0.244 OA
ATOM     27  C   UNL     1      34.354 -16.391 -21.245  0.00  0.00    +0.352 C 
BRANCH  27  28
ATOM     28  O   UNL     1      35.054 -15.534 -20.475  0.00  0.00    -0.476 OA
ATOM     29  H   UNL     1      35.025 -14.615 -20.652  0.00  0.00    +0.295 HD
ENDBRANCH  27  28
ENDBRANCH   7  27
BRANCH   8  30
ATOM     30  C   UNL     1      35.299 -17.250 -23.941  0.00  0.00    +0.235 C 
BRANCH  30  31
ATOM     31  O   UNL     1      34.579 -18.222 -24.670  0.00  0.00    -0.430 OA
BRANCH  31  34
ATOM     32  O   UNL     1      34.899 -20.465 -25.077  0.00  0.00    -0.227 OA
ATOM     33  N   UNL     1      34.793 -19.655 -22.928  0.00  0.00    -0.295 N 
ATOM     34  C   UNL     1      34.768 -19.530 -24.296  0.00  0.00    +0.399 C 
ATOM     35  H   UNL     1      34.682 -18.859 -22.359  0.00  0.00    +0.148 HD
ATOM     36  H   UNL     1      34.921 -20.541 -22.517  0.00  0.00    +0.148 HD
ENDBRANCH  31  34
ENDBRANCH  30  31
ENDBRANCH   8  30
TORSDOF 9
ENDMDL
MODEL 2
REMARK VINA RESULT:      -8.5      1.815      2.846
REMARK  Name = 6436055
REMARK  9 active torsions:
REMARK  status: ('A' for Active; 'I' for Inactive)
REMARK    1  A    between atoms: CA_5  and  N_11
REMARK    2  A    between atoms: CA_7  and  C_27
REMARK    3  A    between atoms: C_8  and  C_30
REMARK    4  A    between atoms: C_12  and  C_14
REMARK    5  A    between atoms: C_14  and  C_19
REMARK    6  A    between atoms: C_15  and  C_24
REMARK    7  A    between atoms: C_27  and  O_28
REMARK    8  A    between atoms: C_30  and  O_31
REMARK    9  A    between atoms: O_31  and  C_34
REMARK                            x       y       z     vdW  Elec       q    Type
REMARK                         _______ _______ _______ _____ _____    ______ ____
ROOT
ATOM      1  S   UNL     1      33.600 -13.337 -24.273  0.00  0.00    -0.114 S 
ATOM      2  O   UNL     1      32.372 -14.324 -19.900  0.00  0.00    -0.273 OA
ATOM      3  N   UNL     1      32.964 -14.778 -22.137  0.00  0.00    -0.242 N 
ATOM      4  C   UNL     1      32.322 -14.019 -23.194  0.00  0.00    +0.155 C 
ATOM      5  CA  UNL     1      31.800 -13.089 -22.076  0.00  0.00    +0.179 C 
ATOM      6  C   UNL     1      32.370 -14.154 -21.096  0.00  0.00    +0.251 C 
ATOM      7  CA  UNL     1      33.861 -15.773 -22.360  0.00  0.00    +0.127 C 
ATOM      8  C   UNL     1      34.447 -15.938 -23.570  0.00  0.00    +0.030 C 
ATOM      9  C   UNL     1      34.237 -14.981 -24.742  0.00  0.00    +0.086 C 
ENDROOT
BRANCH   5  11
ATOM     10  O   UNL     1      30.470 -10.560 -22.266  0.00  0.00    -0.270 OA
ATOM     11  N   UNL     1      32.408 -11.768 -21.922  0.00  0.00    -0.293 N 
ATOM     12  C   UNL     1      31.677 -10.585 -22.032  0.00  0.00    +0.248 C 
ATOM     13  H   UNL     1      33.372 -11.711 -21.732  0.00  0.00    +0.150 HD
BRANCH  12  14
ATOM     14  C   UNL     1      32.476  -9.315 -21.847  0.00  0.00    +0.075 C 
ATOM     15  C   UNL     1      32.326  -8.702 -20.654  0.00  0.00    -0.019 C 
BRANCH  14  19
ATOM     16  S   UNL     1      34.670  -7.395 -24.498  0.00  0.00    -0.060 S 
ATOM     17  N   UNL     1      34.010  -9.759 -23.685  0.00  0.00    -0.385 NA
ATOM     18  N   UNL     1      35.523  -9.706 -25.502  0.00  0.00    -0.328 N 
ATOM     19  C   UNL     1      33.344  -8.843 -22.894  0.00  0.00    +0.127 C 
ATOM     20  C   UNL     1      33.575  -7.516 -23.184  0.00  0.00    +0.125 C 
ATOM     21  C   UNL     1      34.739  -9.109 -24.565  0.00  0.00    +0.204 C 
ATOM     22  H   UNL     1      36.043  -9.157 -26.132  0.00  0.00    +0.145 HD
ATOM     23  H   UNL     1      35.570 -10.689 -25.550  0.00  0.00    +0.145 HD
ENDBRANCH  14  19
BRANCH  15  24
ATOM     24  C   UNL     1      31.438  -9.141 -19.520  0.00  0.00    +0.026 C 
ATOM     25  C   UNL     1      31.982 -10.388 -18.843  0.00  0.00    +0.005 C 
ENDBRANCH  15  24
ENDBRANCH  12  14
ENDBRANCH   5  11
BRANCH   7  27
ATOM     26  OXT UNL     1      33.809 -17.754 -21.047  0.00  0.00    -0.244 OA
ATOM     27  C   UNL     1      34.216 -16.621 -21.213  0.00  0.00    +0.352 C 
BRANCH  27  28
ATOM     28  O   UNL     1      35.051 -15.945 -20.399  0.00  0.00    -0.476 OA
ATOM     29  H   UNL     1      35.252 -15.048 -20.575  0.00  0.00    +0.295 HD
ENDBRANCH  27  28
ENDBRANCH   7  27
BRANCH   8  30
ATOM     30  C   UNL     1      35.389 -17.065 -23.920  0.00  0.00    +0.235 C 
BRANCH  30  31
ATOM     31  O   UNL     1      34.711 -18.009 -24.721  0.00  0.00    -0.430 OA
BRANCH  31  34
ATOM     32  O   UNL     1      34.875 -20.268 -25.136  0.00  0.00    -0.227 OA
ATOM     33  N   UNL     1      34.920 -19.453 -22.986  0.00  0.00    -0.295 N 
ATOM     34  C   UNL     1      34.838 -19.327 -24.352  0.00  0.00    +0.399 C 
ATOM     35  H   UNL     1      34.883 -18.651 -22.415  0.00  0.00    +0.148 HD
ATOM     36  H   UNL     1      35.013 -20.344 -22.580  0.00  0.00    +0.148 HD
ENDBRANCH  31  34
ENDBRANCH  30  31
ENDBRANCH   8  30
TORSDOF 9
ENDMDL
MODEL 3
REMARK VINA RESULT:      -8.4      6.971     11.694
REMARK  Name = 6436055
REMARK  9 active torsions:
REMARK  status: ('A' for Active; 'I' for Inactive)
REMARK    1  A    between atoms: CA_5  and  N_11
REMARK    2  A    between atoms: CA_7  and  C_27
REMARK    3  A    between atoms: C_8  and  C_30
REMARK    4  A    between atoms: C_12  and  C_14
REMARK    5  A    between atoms: C_14  and  C_19
REMARK    6  A    between atoms: C_15  and  C_24
REMARK    7  A    between atoms: C_27  and  O_28
REMARK    8  A    between atoms: C_30  and  O_31
REMARK    9  A    between atoms: O_31  and  C_34
REMARK                            x       y       z     vdW  Elec       q    Type
REMARK                         _______ _______ _______ _____ _____    ______ ____
ROOT
ATOM      1  S   UNL     1      32.617 -20.126 -20.055  0.00  0.00    -0.114 S 
ATOM      2  O   UNL     1      36.651 -22.175 -18.995  0.00  0.00    -0.273 OA
ATOM      3  N   UNL     1      35.171 -20.825 -20.237  0.00  0.00    -0.242 N 
ATOM      4  C   UNL     1      33.853 -21.346 -20.552  0.00  0.00    +0.155 C 
ATOM      5  CA  UNL     1      34.159 -22.466 -19.534  0.00  0.00    +0.179 C 
ATOM      6  C   UNL     1      35.599 -21.880 -19.511  0.00  0.00    +0.251 C 
ATOM      7  CA  UNL     1      35.623 -19.615 -20.655  0.00  0.00    +0.127 C 
ATOM      8  C   UNL     1      34.780 -18.677 -21.147  0.00  0.00    +0.030 C 
ATOM      9  C   UNL     1      33.263 -18.847 -21.185  0.00  0.00    +0.086 C 
ENDROOT
BRANCH   5  11
ATOM     10  O   UNL     1      33.662 -24.695 -17.806  0.00  0.00    -0.270 OA
ATOM     11  N   UNL     1      33.493 -22.432 -18.232  0.00  0.00    -0.293 N 
ATOM     12  C   UNL     1      33.294 -23.575 -17.457  0.00  0.00    +0.248 C 
ATOM     13  H   UNL     1      33.172 -21.567 -17.888  0.00  0.00    +0.150 HD
BRANCH  12  14
ATOM     14  C   UNL     1      32.583 -23.346 -16.143  0.00  0.00    +0.075 C 
ATOM     15  C   UNL     1      33.374 -23.002 -15.105  0.00  0.00    -0.019 C 
BRANCH  14  19
ATOM     16  S   UNL     1      28.796 -24.166 -15.425  0.00  0.00    -0.060 S 
ATOM     17  N   UNL     1      30.353 -22.702 -16.880  0.00  0.00    -0.385 NA
ATOM     18  N   UNL     1      28.040 -22.401 -17.266  0.00  0.00    -0.328 N 
ATOM     19  C   UNL     1      31.152 -23.474 -16.059  0.00  0.00    +0.127 C 
ATOM     20  C   UNL     1      30.488 -24.327 -15.203  0.00  0.00    +0.125 C 
ATOM     21  C   UNL     1      29.093 -22.982 -16.632  0.00  0.00    +0.204 C 
ATOM     22  H   UNL     1      27.120 -22.659 -17.031  0.00  0.00    +0.145 HD
ATOM     23  H   UNL     1      28.198 -21.721 -17.961  0.00  0.00    +0.145 HD
ENDBRANCH  14  19
BRANCH  15  24
ATOM     24  C   UNL     1      34.872 -22.851 -15.125  0.00  0.00    +0.026 C 
ATOM     25  C   UNL     1      35.556 -24.028 -14.447  0.00  0.00    +0.005 C 
ENDBRANCH  15  24
ENDBRANCH  12  14
ENDBRANCH   5  11
BRANCH   7  27
ATOM     26  OXT UNL     1      37.817 -19.080 -21.398  0.00  0.00    -0.244 OA
ATOM     27  C   UNL     1      37.059 -19.345 -20.486  0.00  0.00    +0.352 C 
BRANCH  27  28
ATOM     28  O   UNL     1      37.381 -19.438 -19.181  0.00  0.00    -0.476 OA
ATOM     29  H   UNL     1      37.436 -18.665 -18.656  0.00  0.00    +0.295 HD
ENDBRANCH  27  28
ENDBRANCH   7  27
BRANCH   8  30
ATOM     30  C   UNL     1      35.215 -17.342 -21.706  0.00  0.00    +0.235 C 
BRANCH  30  31
ATOM     31  O   UNL     1      35.366 -17.449 -23.105  0.00  0.00    -0.430 OA
BRANCH  31  34
ATOM     32  O   UNL     1      34.988 -15.205 -23.459  0.00  0.00    -0.227 OA
ATOM     33  N   UNL     1      34.511 -16.758 -25.087  0.00  0.00    -0.295 N 
ATOM     34  C   UNL     1      34.958 -16.367 -23.848  0.00  0.00    +0.399 C 
ATOM     35  H   UNL     1      34.514 -17.712 -25.333  0.00  0.00    +0.148 HD
ATOM     36  H   UNL     1      34.185 -16.085 -25.727  0.00  0.00    +0.148 HD
ENDBRANCH  31  34
ENDBRANCH  30  31
ENDBRANCH   8  30
TORSDOF 9
ENDMDL
MODEL 4
REMARK VINA RESULT:      -8.4      6.922     11.788
REMARK  Name = 6436055
REMARK  9 active torsions:
REMARK  status: ('A' for Active; 'I' for Inactive)
REMARK    1  A    between atoms: CA_5  and  N_11
REMARK    2  A    between atoms: CA_7  and  C_27
REMARK    3  A    between atoms: C_8  and  C_30
REMARK    4  A    between atoms: C_12  and  C_14
REMARK    5  A    between atoms: C_14  and  C_19
REMARK    6  A    between atoms: C_15  and  C_24
REMARK    7  A    between atoms: C_27  and  O_28
REMARK    8  A    between atoms: C_30  and  O_31
REMARK    9  A    between atoms: O_31  and  C_34
REMARK                            x       y       z     vdW  Elec       q    Type
REMARK                         _______ _______ _______ _____ _____    ______ ____
ROOT
ATOM      1  S   UNL     1      32.634 -20.178 -20.075  0.00  0.00    -0.114 S 
ATOM      2  O   UNL     1      36.694 -22.154 -18.973  0.00  0.00    -0.273 OA
ATOM      3  N   UNL     1      35.197 -20.847 -20.242  0.00  0.00    -0.242 N 
ATOM      4  C   UNL     1      33.887 -21.391 -20.547  0.00  0.00    +0.155 C 
ATOM      5  CA  UNL     1      34.206 -22.488 -19.508  0.00  0.00    +0.179 C 
ATOM      6  C   UNL     1      35.639 -21.883 -19.495  0.00  0.00    +0.251 C 
ATOM      7  CA  UNL     1      35.635 -19.639 -20.682  0.00  0.00    +0.127 C 
ATOM      8  C   UNL     1      34.780 -18.721 -21.193  0.00  0.00    +0.030 C 
ATOM      9  C   UNL     1      33.265 -18.913 -21.229  0.00  0.00    +0.086 C 
ENDROOT
BRANCH   5  11
ATOM     10  O   UNL     1      33.698 -24.697 -17.759  0.00  0.00    -0.270 OA
ATOM     11  N   UNL     1      33.539 -22.438 -18.208  0.00  0.00    -0.293 N 
ATOM     12  C   UNL     1      33.334 -23.571 -17.421  0.00  0.00    +0.248 C 
ATOM     13  H   UNL     1      33.221 -21.568 -17.873  0.00  0.00    +0.150 HD
BRANCH  12  14
ATOM     14  C   UNL     1      32.622 -23.326 -16.111  0.00  0.00    +0.075 C 
ATOM     15  C   UNL     1      33.413 -22.971 -15.077  0.00  0.00    -0.019 C 
BRANCH  14  19
ATOM     16  S   UNL     1      28.834 -24.130 -15.381  0.00  0.00    -0.060 S 
ATOM     17  N   UNL     1      30.394 -22.699 -16.865  0.00  0.00    -0.385 NA
ATOM     18  N   UNL     1      28.081 -22.407 -17.261  0.00  0.00    -0.328 N 
ATOM     19  C   UNL     1      31.191 -23.453 -16.026  0.00  0.00    +0.127 C 
ATOM     20  C   UNL     1      30.526 -24.287 -15.153  0.00  0.00    +0.125 C 
ATOM     21  C   UNL     1      29.133 -22.974 -16.613  0.00  0.00    +0.204 C 
ATOM     22  H   UNL     1      27.160 -22.660 -17.022  0.00  0.00    +0.145 HD
ATOM     23  H   UNL     1      28.240 -21.743 -17.971  0.00  0.00    +0.145 HD
ENDBRANCH  14  19
BRANCH  15  24
ATOM     24  C   UNL     1      34.911 -22.820 -15.098  0.00  0.00    +0.026 C 
ATOM     25  C   UNL     1      35.598 -24.047 -14.519  0.00  0.00    +0.005 C 
ENDBRANCH  15  24
ENDBRANCH  12  14
ENDBRANCH   5  11
BRANCH   7  27
ATOM     26  OXT UNL     1      37.820 -19.083 -21.433  0.00  0.00    -0.244 OA
ATOM     27  C   UNL     1      37.066 -19.347 -20.518  0.00  0.00    +0.352 C 
BRANCH  27  28
ATOM     28  O   UNL     1      37.391 -19.422 -19.212  0.00  0.00    -0.476 OA
ATOM     29  H   UNL     1      36.814 -19.847 -18.610  0.00  0.00    +0.295 HD
ENDBRANCH  27  28
ENDBRANCH   7  27
BRANCH   8  30
ATOM     30  C   UNL     1      35.198 -17.392 -21.776  0.00  0.00    +0.235 C 
BRANCH  30  31
ATOM     31  O   UNL     1      34.143 -16.465 -21.627  0.00  0.00    -0.430 OA
BRANCH  31  34
ATOM     32  O   UNL     1      34.890 -14.760 -20.272  0.00  0.00    -0.227 OA
ATOM     33  N   UNL     1      34.378 -14.379 -22.481  0.00  0.00    -0.295 N 
ATOM     34  C   UNL     1      34.505 -15.166 -21.362  0.00  0.00    +0.399 C 
ATOM     35  H   UNL     1      34.061 -14.773 -23.326  0.00  0.00    +0.148 HD
ATOM     36  H   UNL     1      34.603 -13.422 -22.437  0.00  0.00    +0.148 HD
ENDBRANCH  31  34
ENDBRANCH  30  31
ENDBRANCH   8  30
TORSDOF 9
ENDMDL
MODEL 5
REMARK VINA RESULT:      -8.3      2.194      3.000
REMARK  Name = 6436055
REMARK  9 active torsions:
REMARK  status: ('A' for Active; 'I' for Inactive)
REMARK    1  A    between atoms: CA_5  and  N_11
REMARK    2  A    between atoms: CA_7  and  C_27
REMARK    3  A    between atoms: C_8  and  C_30
REMARK    4  A    between atoms: C_12  and  C_14
REMARK    5  A    between atoms: C_14  and  C_19
REMARK    6  A    between atoms: C_15  and  C_24
REMARK    7  A    between atoms: C_27  and  O_28
REMARK    8  A    between atoms: C_30  and  O_31
REMARK    9  A    between atoms: O_31  and  C_34
REMARK                            x       y       z     vdW  Elec       q    Type
REMARK                         _______ _______ _______ _____ _____    ______ ____
ROOT
ATOM      1  S   UNL     1      33.662 -12.097 -24.310  0.00  0.00    -0.114 S 
ATOM      2  O   UNL     1      31.930 -12.402 -20.008  0.00  0.00    -0.273 OA
ATOM      3  N   UNL     1      32.682 -13.190 -22.099  0.00  0.00    -0.242 N 
ATOM      4  C   UNL     1      32.224 -12.517 -23.301  0.00  0.00    +0.155 C 
ATOM      5  CA  UNL     1      31.696 -11.409 -22.363  0.00  0.00    +0.179 C 
ATOM      6  C   UNL     1      32.059 -12.387 -21.209  0.00  0.00    +0.251 C 
ATOM      7  CA  UNL     1      33.490 -14.282 -22.106  0.00  0.00    +0.127 C 
ATOM      8  C   UNL     1      34.168 -14.652 -23.218  0.00  0.00    +0.030 C 
ATOM      9  C   UNL     1      34.169 -13.838 -24.511  0.00  0.00    +0.086 C 
ENDROOT
BRANCH   5  11
ATOM     10  O   UNL     1      30.777  -8.869 -23.314  0.00  0.00    -0.270 OA
ATOM     11  N   UNL     1      32.419 -10.139 -22.302  0.00  0.00    -0.293 N 
ATOM     12  C   UNL     1      31.889  -8.946 -22.794  0.00  0.00    +0.248 C 
ATOM     13  H   UNL     1      33.317 -10.125 -21.898  0.00  0.00    +0.150 HD
BRANCH  12  14
ATOM     14  C   UNL     1      32.783  -7.736 -22.649  0.00  0.00    +0.075 C 
ATOM     15  C   UNL     1      33.187  -7.459 -21.391  0.00  0.00    -0.019 C 
BRANCH  14  19
ATOM     16  S   UNL     1      34.433  -6.008 -25.782  0.00  0.00    -0.060 S 
ATOM     17  N   UNL     1      32.291  -6.050 -24.334  0.00  0.00    -0.385 NA
ATOM     18  N   UNL     1      32.258  -4.518 -26.135  0.00  0.00    -0.328 N 
ATOM     19  C   UNL     1      33.171  -6.975 -23.807  0.00  0.00    +0.127 C 
ATOM     20  C   UNL     1      34.381  -7.093 -24.456  0.00  0.00    +0.125 C 
ATOM     21  C   UNL     1      32.850  -5.479 -25.378  0.00  0.00    +0.204 C 
ATOM     22  H   UNL     1      32.735  -4.132 -26.904  0.00  0.00    +0.145 HD
ATOM     23  H   UNL     1      31.350  -4.206 -25.912  0.00  0.00    +0.145 HD
ENDBRANCH  14  19
BRANCH  15  24
ATOM     24  C   UNL     1      32.819  -8.211 -20.139  0.00  0.00    +0.026 C 
ATOM     25  C   UNL     1      31.550  -7.656 -19.512  0.00  0.00    +0.005 C 
ENDBRANCH  15  24
ENDBRANCH  12  14
ENDBRANCH   5  11
BRANCH   7  27
ATOM     26  OXT UNL     1      34.684 -15.069 -20.208  0.00  0.00    -0.244 OA
ATOM     27  C   UNL     1      33.646 -15.004 -20.835  0.00  0.00    +0.352 C 
BRANCH  27  28
ATOM     28  O   UNL     1      32.470 -15.568 -20.494  0.00  0.00    -0.476 OA
ATOM     29  H   UNL     1      32.419 -16.124 -19.742  0.00  0.00    +0.295 HD
ENDBRANCH  27  28
ENDBRANCH   7  27
BRANCH   8  30
ATOM     30  C   UNL     1      35.019 -15.895 -23.329  0.00  0.00    +0.235 C 
BRANCH  30  31
ATOM     31  O   UNL     1      34.207 -16.983 -23.716  0.00  0.00    -0.430 OA
BRANCH  31  34
ATOM     32  O   UNL     1      34.796 -16.984 -25.941  0.00  0.00    -0.227 OA
ATOM     33  N   UNL     1      34.488 -18.954 -24.797  0.00  0.00    -0.295 N 
ATOM     34  C   UNL     1      34.521 -17.586 -24.910  0.00  0.00    +0.399 C 
ATOM     35  H   UNL     1      34.257 -19.372 -23.936  0.00  0.00    +0.148 HD
ATOM     36  H   UNL     1      34.692 -19.517 -25.579  0.00  0.00    +0.148 HD
ENDBRANCH  31  34
ENDBRANCH  30  31
ENDBRANCH   8  30
TORSDOF 9
ENDMDL
MODEL 6
REMARK VINA RESULT:      -8.2      6.948     12.214
REMARK  Name = 6436055
REMARK  9 active torsions:
REMARK  status: ('A' for Active; 'I' for Inactive)
REMARK    1  A    between atoms: CA_5  and  N_11
REMARK    2  A    between atoms: CA_7  and  C_27
REMARK    3  A    between atoms: C_8  and  C_30
REMARK    4  A    between atoms: C_12  and  C_14
REMARK    5  A    between atoms: C_14  and  C_19
REMARK    6  A    between atoms: C_15  and  C_24
REMARK    7  A    between atoms: C_27  and  O_28
REMARK    8  A    between atoms: C_30  and  O_31
REMARK    9  A    between atoms: O_31  and  C_34
REMARK                            x       y       z     vdW  Elec       q    Type
REMARK                         _______ _______ _______ _____ _____    ______ ____
ROOT
ATOM      1  S   UNL     1      32.644 -20.589 -19.577  0.00  0.00    -0.114 S 
ATOM      2  O   UNL     1      37.186 -21.538 -19.835  0.00  0.00    -0.273 OA
ATOM      3  N   UNL     1      35.119 -20.645 -20.534  0.00  0.00    -0.242 N 
ATOM      4  C   UNL     1      33.938 -21.486 -20.461  0.00  0.00    +0.155 C 
ATOM      5  CA  UNL     1      34.799 -22.455 -19.620  0.00  0.00    +0.179 C 
ATOM      6  C   UNL     1      35.990 -21.532 -20.005  0.00  0.00    +0.251 C 
ATOM      7  CA  UNL     1      35.114 -19.379 -21.024  0.00  0.00    +0.127 C 
ATOM      8  C   UNL     1      33.959 -18.698 -21.211  0.00  0.00    +0.030 C 
ATOM      9  C   UNL     1      32.589 -19.238 -20.803  0.00  0.00    +0.086 C 
ENDROOT
BRANCH   5  11
ATOM     10  O   UNL     1      33.316 -24.476 -18.237  0.00  0.00    -0.270 OA
ATOM     11  N   UNL     1      34.561 -22.533 -18.179  0.00  0.00    -0.293 N 
ATOM     12  C   UNL     1      33.822 -23.559 -17.591  0.00  0.00    +0.248 C 
ATOM     13  H   UNL     1      34.939 -21.832 -17.600  0.00  0.00    +0.150 HD
BRANCH  12  14
ATOM     14  C   UNL     1      33.678 -23.471 -16.090  0.00  0.00    +0.075 C 
ATOM     15  C   UNL     1      32.441 -23.173 -15.641  0.00  0.00    -0.019 C 
BRANCH  14  19
ATOM     16  S   UNL     1      36.331 -24.042 -13.233  0.00  0.00    -0.060 S 
ATOM     17  N   UNL     1      36.036 -24.003 -15.801  0.00  0.00    -0.385 NA
ATOM     18  N   UNL     1      38.224 -24.492 -15.048  0.00  0.00    -0.328 N 
ATOM     19  C   UNL     1      34.809 -23.718 -15.235  0.00  0.00    +0.127 C 
ATOM     20  C   UNL     1      34.773 -23.694 -13.857  0.00  0.00    +0.125 C 
ATOM     21  C   UNL     1      36.914 -24.192 -14.841  0.00  0.00    +0.204 C 
ATOM     22  H   UNL     1      38.827 -24.620 -14.280  0.00  0.00    +0.145 HD
ATOM     23  H   UNL     1      38.569 -24.580 -15.966  0.00  0.00    +0.145 HD
ENDBRANCH  14  19
BRANCH  15  24
ATOM     24  C   UNL     1      31.218 -22.903 -16.477  0.00  0.00    +0.026 C 
ATOM     25  C   UNL     1      29.960 -22.868 -15.624  0.00  0.00    +0.005 C 
ENDBRANCH  15  24
ENDBRANCH  12  14
ENDBRANCH   5  11
BRANCH   7  27
ATOM     26  OXT UNL     1      36.783 -18.343 -22.363  0.00  0.00    -0.244 OA
ATOM     27  C   UNL     1      36.422 -18.757 -21.280  0.00  0.00    +0.352 C 
BRANCH  27  28
ATOM     28  O   UNL     1      37.133 -18.725 -20.135  0.00  0.00    -0.476 OA
ATOM     29  H   UNL     1      37.762 -19.395 -19.956  0.00  0.00    +0.295 HD
ENDBRANCH  27  28
ENDBRANCH   7  27
BRANCH   8  30
ATOM     30  C   UNL     1      33.865 -17.321 -21.825  0.00  0.00    +0.235 C 
BRANCH  30  31
ATOM     31  O   UNL     1      33.141 -16.472 -20.960  0.00  0.00    -0.430 OA
BRANCH  31  34
ATOM     32  O   UNL     1      34.919 -15.234 -20.183  0.00  0.00    -0.227 OA
ATOM     33  N   UNL     1      32.923 -14.229 -20.723  0.00  0.00    -0.295 N 
ATOM     34  C   UNL     1      33.764 -15.306 -20.586  0.00  0.00    +0.399 C 
ATOM     35  H   UNL     1      32.005 -14.361 -21.053  0.00  0.00    +0.148 HD
ATOM     36  H   UNL     1      33.238 -13.326 -20.489  0.00  0.00    +0.148 HD
ENDBRANCH  31  34
ENDBRANCH  30  31
ENDBRANCH   8  30
TORSDOF 9
ENDMDL
MODEL 7
REMARK VINA RESULT:      -8.2     11.219     14.437
REMARK  Name = 6436055
REMARK  9 active torsions:
REMARK  status: ('A' for Active; 'I' for Inactive)
REMARK    1  A    between atoms: CA_5  and  N_11
REMARK    2  A    between atoms: CA_7  and  C_27
REMARK    3  A    between atoms: C_8  and  C_30
REMARK    4  A    between atoms: C_12  and  C_14
REMARK    5  A    between atoms: C_14  and  C_19
REMARK    6  A    between atoms: C_15  and  C_24
REMARK    7  A    between atoms: C_27  and  O_28
REMARK    8  A    between atoms: C_30  and  O_31
REMARK    9  A    between atoms: O_31  and  C_34
REMARK                            x       y       z     vdW  Elec       q    Type
REMARK                         _______ _______ _______ _____ _____    ______ ____
ROOT
ATOM      1  S   UNL     1      35.639 -25.048 -15.520  0.00  0.00    -0.114 S 
ATOM      2  O   UNL     1      33.776 -23.167 -11.699  0.00  0.00    -0.273 OA
ATOM      3  N   UNL     1      35.312 -24.439 -12.957  0.00  0.00    -0.242 N 
ATOM      4  C   UNL     1      34.799 -25.363 -13.952  0.00  0.00    +0.155 C 
ATOM      5  CA  UNL     1      33.434 -24.669 -13.752  0.00  0.00    +0.179 C 
ATOM      6  C   UNL     1      34.121 -23.936 -12.565  0.00  0.00    +0.251 C 
ATOM      7  CA  UNL     1      36.632 -24.291 -12.673  0.00  0.00    +0.127 C 
ATOM      8  C   UNL     1      37.590 -24.778 -13.496  0.00  0.00    +0.030 C 
ATOM      9  C   UNL     1      37.288 -25.435 -14.842  0.00  0.00    +0.086 C 
ENDROOT
BRANCH   5  11
ATOM     10  O   UNL     1      31.076 -25.001 -15.343  0.00  0.00    -0.270 OA
ATOM     11  N   UNL     1      32.948 -23.765 -14.795  0.00  0.00    -0.293 N 
ATOM     12  C   UNL     1      31.783 -24.010 -15.522  0.00  0.00    +0.248 C 
ATOM     13  H   UNL     1      33.464 -22.950 -14.991  0.00  0.00    +0.150 HD
BRANCH  12  14
ATOM     14  C   UNL     1      31.442 -22.967 -16.561  0.00  0.00    +0.075 C 
ATOM     15  C   UNL     1      30.224 -22.398 -16.436  0.00  0.00    -0.019 C 
BRANCH  14  19
ATOM     16  S   UNL     1      34.454 -22.483 -19.055  0.00  0.00    -0.060 S 
ATOM     17  N   UNL     1      32.058 -21.669 -18.526  0.00  0.00    -0.385 NA
ATOM     18  N   UNL     1      33.075 -20.651 -20.403  0.00  0.00    -0.328 N 
ATOM     19  C   UNL     1      32.394 -22.621 -17.583  0.00  0.00    +0.127 C 
ATOM     20  C   UNL     1      33.650 -23.174 -17.708  0.00  0.00    +0.125 C 
ATOM     21  C   UNL     1      33.069 -21.515 -19.353  0.00  0.00    +0.204 C 
ATOM     22  H   UNL     1      33.867 -20.587 -20.983  0.00  0.00    +0.145 HD
ATOM     23  H   UNL     1      32.286 -20.090 -20.583  0.00  0.00    +0.145 HD
ENDBRANCH  14  19
BRANCH  15  24
ATOM     24  C   UNL     1      29.184 -22.713 -15.394  0.00  0.00    +0.026 C 
ATOM     25  C   UNL     1      27.778 -22.511 -15.937  0.00  0.00    +0.005 C 
ENDBRANCH  15  24
ENDBRANCH  12  14
ENDBRANCH   5  11
BRANCH   7  27
ATOM     26  OXT UNL     1      37.483 -22.420 -11.480  0.00  0.00    -0.244 OA
ATOM     27  C   UNL     1      36.973 -23.522 -11.467  0.00  0.00    +0.352 C 
BRANCH  27  28
ATOM     28  O   UNL     1      36.632 -24.231 -10.373  0.00  0.00    -0.476 OA
ATOM     29  H   UNL     1      37.232 -24.307  -9.659  0.00  0.00    +0.295 HD
ENDBRANCH  27  28
ENDBRANCH   7  27
BRANCH   8  30
ATOM     30  C   UNL     1      39.073 -24.726 -13.211  0.00  0.00    +0.235 C 
BRANCH  30  31
ATOM     31  O   UNL     1      39.780 -24.629 -14.430  0.00  0.00    -0.430 OA
BRANCH  31  34
ATOM     32  O   UNL     1      40.617 -26.047 -16.038  0.00  0.00    -0.227 OA
ATOM     33  N   UNL     1      40.782 -26.562 -13.803  0.00  0.00    -0.295 N 
ATOM     34  C   UNL     1      40.411 -25.770 -14.862  0.00  0.00    +0.399 C 
ATOM     35  H   UNL     1      40.583 -26.277 -12.882  0.00  0.00    +0.148 HD
ATOM     36  H   UNL     1      41.245 -27.415 -13.966  0.00  0.00    +0.148 HD
ENDBRANCH  31  34
ENDBRANCH  30  31
ENDBRANCH   8  30
TORSDOF 9
ENDMDL
MODEL 8
REMARK VINA RESULT:      -8.2      7.224     12.055
REMARK  Name = 6436055
REMARK  9 active torsions:
REMARK  status: ('A' for Active; 'I' for Inactive)
REMARK    1  A    between atoms: CA_5  and  N_11
REMARK    2  A    between atoms: CA_7  and  C_27
REMARK    3  A    between atoms: C_8  and  C_30
REMARK    4  A    between atoms: C_12  and  C_14
REMARK    5  A    between atoms: C_14  and  C_19
REMARK    6  A    between atoms: C_15  and  C_24
REMARK    7  A    between atoms: C_27  and  O_28
REMARK    8  A    between atoms: C_30  and  O_31
REMARK    9  A    between atoms: O_31  and  C_34
REMARK                            x       y       z     vdW  Elec       q    Type
REMARK                         _______ _______ _______ _____ _____    ______ ____
ROOT
ATOM      1  S   UNL     1      32.641 -20.816 -19.662  0.00  0.00    -0.114 S 
ATOM      2  O   UNL     1      37.160 -21.714 -19.051  0.00  0.00    -0.273 OA
ATOM      3  N   UNL     1      35.241 -20.941 -20.181  0.00  0.00    -0.242 N 
ATOM      4  C   UNL     1      34.062 -21.788 -20.209  0.00  0.00    +0.155 C 
ATOM      5  CA  UNL     1      34.767 -22.640 -19.131  0.00  0.00    +0.179 C 
ATOM      6  C   UNL     1      36.009 -21.747 -19.417  0.00  0.00    +0.251 C 
ATOM      7  CA  UNL     1      35.321 -19.739 -20.808  0.00  0.00    +0.127 C 
ATOM      8  C   UNL     1      34.215 -19.103 -21.261  0.00  0.00    +0.030 C 
ATOM      9  C   UNL     1      32.795 -19.615 -21.026  0.00  0.00    +0.086 C 
ENDROOT
BRANCH   5  11
ATOM     10  O   UNL     1      33.383 -24.677 -17.671  0.00  0.00    -0.270 OA
ATOM     11  N   UNL     1      34.293 -22.556 -17.750  0.00  0.00    -0.293 N 
ATOM     12  C   UNL     1      33.624 -23.605 -17.118  0.00  0.00    +0.248 C 
ATOM     13  H   UNL     1      34.452 -21.726 -17.245  0.00  0.00    +0.150 HD
BRANCH  12  14
ATOM     14  C   UNL     1      33.204 -23.334 -15.692  0.00  0.00    +0.075 C 
ATOM     15  C   UNL     1      31.919 -22.958 -15.525  0.00  0.00    -0.019 C 
BRANCH  14  19
ATOM     16  S   UNL     1      35.231 -24.027 -12.385  0.00  0.00    -0.060 S 
ATOM     17  N   UNL     1      35.467 -23.161 -14.810  0.00  0.00    -0.385 NA
ATOM     18  N   UNL     1      37.466 -23.171 -13.547  0.00  0.00    -0.328 N 
ATOM     19  C   UNL     1      34.142 -23.502 -14.614  0.00  0.00    +0.127 C 
ATOM     20  C   UNL     1      33.824 -23.989 -13.364  0.00  0.00    +0.125 C 
ATOM     21  C   UNL     1      36.134 -23.396 -13.701  0.00  0.00    +0.204 C 
ATOM     22  H   UNL     1      37.902 -23.370 -12.687  0.00  0.00    +0.145 HD
ATOM     23  H   UNL     1      37.994 -22.808 -14.295  0.00  0.00    +0.145 HD
ENDBRANCH  14  19
BRANCH  15  24
ATOM     24  C   UNL     1      30.888 -22.764 -16.606  0.00  0.00    +0.026 C 
ATOM     25  C   UNL     1      29.477 -22.833 -16.044  0.00  0.00    +0.005 C 
ENDBRANCH  15  24
ENDBRANCH  12  14
ENDBRANCH   5  11
BRANCH   7  27
ATOM     26  OXT UNL     1      37.145 -18.730 -21.951  0.00  0.00    -0.244 OA
ATOM     27  C   UNL     1      36.655 -19.130 -20.913  0.00  0.00    +0.352 C 
BRANCH  27  28
ATOM     28  O   UNL     1      37.226 -19.090 -19.693  0.00  0.00    -0.476 OA
ATOM     29  H   UNL     1      36.847 -18.567 -19.016  0.00  0.00    +0.295 HD
ENDBRANCH  27  28
ENDBRANCH   7  27
BRANCH   8  30
ATOM     30  C   UNL     1      34.229 -17.807 -22.037  0.00  0.00    +0.235 C 
BRANCH  30  31
ATOM     31  O   UNL     1      34.225 -18.091 -23.420  0.00  0.00    -0.430 OA
BRANCH  31  34
ATOM     32  O   UNL     1      34.703 -17.115 -25.450  0.00  0.00    -0.227 OA
ATOM     33  N   UNL     1      35.653 -16.334 -23.507  0.00  0.00    -0.295 N 
ATOM     34  C   UNL     1      34.847 -17.176 -24.234  0.00  0.00    +0.399 C 
ATOM     35  H   UNL     1      35.721 -16.441 -22.530  0.00  0.00    +0.148 HD
ATOM     36  H   UNL     1      36.163 -15.626 -23.962  0.00  0.00    +0.148 HD
ENDBRANCH  31  34
ENDBRANCH  30  31
ENDBRANCH   8  30
TORSDOF 9
ENDMDL
MODEL 9
REMARK VINA RESULT:      -7.9      3.319      9.271
REMARK  Name = 6436055
REMARK  9 active torsions:
REMARK  status: ('A' for Active; 'I' for Inactive)
REMARK    1  A    between atoms: CA_5  and  N_11
REMARK    2  A    between atoms: CA_7  and  C_27
REMARK    3  A    between atoms: C_8  and  C_30
REMARK    4  A    between atoms: C_12  and  C_14
REMARK    5  A    between atoms: C_14  and  C_19
REMARK    6  A    between atoms: C_15  and  C_24
REMARK    7  A    between atoms: C_27  and  O_28
REMARK    8  A    between atoms: C_30  and  O_31
REMARK    9  A    between atoms: O_31  and  C_34
REMARK                            x       y       z     vdW  Elec       q    Type
REMARK                         _______ _______ _______ _____ _____    ______ ____
ROOT
ATOM      1  S   UNL     1      31.376 -10.050 -22.821  0.00  0.00    -0.114 S 
ATOM      2  O   UNL     1      35.710 -10.137 -24.499  0.00  0.00    -0.273 OA
ATOM      3  N   UNL     1      33.547  -9.272 -24.135  0.00  0.00    -0.242 N 
ATOM      4  C   UNL     1      32.408 -10.156 -24.300  0.00  0.00    +0.155 C 
ATOM      5  CA  UNL     1      33.433 -11.311 -24.342  0.00  0.00    +0.179 C 
ATOM      6  C   UNL     1      34.508 -10.188 -24.384  0.00  0.00    +0.251 C 
ATOM      7  CA  UNL     1      33.441  -7.955 -23.823  0.00  0.00    +0.127 C 
ATOM      8  C   UNL     1      32.284  -7.430 -23.354  0.00  0.00    +0.030 C 
ATOM      9  C   UNL     1      31.046  -8.270 -23.043  0.00  0.00    +0.086 C 
ENDROOT
BRANCH   5  11
ATOM     10  O   UNL     1      32.092 -13.809 -23.939  0.00  0.00    -0.270 OA
ATOM     11  N   UNL     1      33.548 -12.187 -23.177  0.00  0.00    -0.293 N 
ATOM     12  C   UNL     1      32.853 -13.392 -23.067  0.00  0.00    +0.248 C 
ATOM     13  H   UNL     1      34.142 -11.917 -22.439  0.00  0.00    +0.150 HD
BRANCH  12  14
ATOM     14  C   UNL     1      33.094 -14.161 -21.789  0.00  0.00    +0.075 C 
ATOM     15  C   UNL     1      32.467 -13.681 -20.694  0.00  0.00    -0.019 C 
BRANCH  14  19
ATOM     16  S   UNL     1      35.319 -17.342 -21.114  0.00  0.00    -0.060 S 
ATOM     17  N   UNL     1      34.356 -15.856 -22.998  0.00  0.00    -0.385 NA
ATOM     18  N   UNL     1      35.682 -17.673 -23.729  0.00  0.00    -0.328 N 
ATOM     19  C   UNL     1      33.927 -15.334 -21.793  0.00  0.00    +0.127 C 
ATOM     20  C   UNL     1      34.347 -16.004 -20.663  0.00  0.00    +0.125 C 
ATOM     21  C   UNL     1      35.097 -16.916 -22.762  0.00  0.00    +0.204 C 
ATOM     22  H   UNL     1      36.225 -18.455 -23.480  0.00  0.00    +0.145 HD
ATOM     23  H   UNL     1      35.562 -17.437 -24.677  0.00  0.00    +0.145 HD
ENDBRANCH  14  19
BRANCH  15  24
ATOM     24  C   UNL     1      31.584 -12.464 -20.622  0.00  0.00    +0.026 C 
ATOM     25  C   UNL     1      31.915 -11.613 -19.405  0.00  0.00    +0.005 C 
ENDBRANCH  15  24
ENDBRANCH  12  14
ENDBRANCH   5  11
BRANCH   7  27
ATOM     26  OXT UNL     1      34.862  -6.356 -24.860  0.00  0.00    -0.244 OA
ATOM     27  C   UNL     1      34.657  -7.138 -23.954  0.00  0.00    +0.352 C 
BRANCH  27  28
ATOM     28  O   UNL     1      35.484  -7.398 -22.922  0.00  0.00    -0.476 OA
ATOM     29  H   UNL     1      36.336  -7.012 -22.896  0.00  0.00    +0.295 HD
ENDBRANCH  27  28
ENDBRANCH   7  27
BRANCH   8  30
ATOM     30  C   UNL     1      32.063  -5.965 -23.063  0.00  0.00    +0.235 C 
BRANCH  30  31
ATOM     31  O   UNL     1      30.945  -5.507 -23.793  0.00  0.00    -0.430 OA
BRANCH  31  34
ATOM     32  O   UNL     1      30.420  -3.432 -24.642  0.00  0.00    -0.227 OA
ATOM     33  N   UNL     1      32.280  -4.573 -25.367  0.00  0.00    -0.295 N 
ATOM     34  C   UNL     1      31.149  -4.416 -24.604  0.00  0.00    +0.399 C 
ATOM     35  H   UNL     1      32.820  -5.392 -25.285  0.00  0.00    +0.148 HD
ATOM     36  H   UNL     1      32.550  -3.866 -25.997  0.00  0.00    +0.148 HD
ENDBRANCH  31  34
ENDBRANCH  30  31
ENDBRANCH   8  30
TORSDOF 9
ENDMDL
