MODEL 1
REMARK VINA RESULT:      -9.0      0.000      0.000
REMARK  Name = 4634
REMARK  11 active torsions:
REMARK  status: ('A' for Active; 'I' for Inactive)
REMARK    1  A    between atoms: C_1  and  C_2
REMARK    2  A    between atoms: C_1  and  C_8
REMARK    3  A    between atoms: C_1  and  O_14
REMARK    4  A    between atoms: C_1  and  C_17
REMARK    5  A    between atoms: C_17  and  O_18
REMARK    6  A    between atoms: O_18  and  C_19
REMARK    7  A    between atoms: C_19  and  C_20
REMARK    8  A    between atoms: C_21  and  C_22
REMARK    9  A    between atoms: C_22  and  N_23
REMARK   10  A    between atoms: N_23  and  C_25
REMARK   11  A    between atoms: N_23  and  C_27
REMARK                            x       y       z     vdW  Elec       q    Type
REMARK                         _______ _______ _______ _____ _____    ______ ____
ROOT
ATOM      1  C   UNL     1      35.023 -18.003 -22.299  0.00  0.00    +0.196 C 
ENDROOT
BRANCH   1   2
ATOM      2  C   UNL     1      34.796 -19.400 -21.723  0.00  0.00    +0.039 C 
ATOM      3  C   UNL     1      33.475 -19.457 -20.946  0.00  0.00    +0.003 C 
ATOM      4  C   UNL     1      35.974 -19.816 -20.832  0.00  0.00    +0.003 C 
ATOM      5  C   UNL     1      33.250 -20.830 -20.316  0.00  0.00    +0.000 C 
ATOM      6  C   UNL     1      35.746 -21.188 -20.202  0.00  0.00    +0.000 C 
ATOM      7  C   UNL     1      34.427 -21.245 -19.436  0.00  0.00    +0.000 C 
ENDBRANCH   1   2
BRANCH   1   8
ATOM      8  C   UNL     1      34.297 -16.855 -21.606  0.00  0.00    +0.012 C 
ATOM      9  C   UNL     1      32.928 -16.922 -21.468  0.00  0.00    -0.002 C 
ATOM     10  C   UNL     1      35.036 -15.788 -21.141  0.00  0.00    -0.002 C 
ATOM     11  C   UNL     1      32.264 -15.872 -20.834  0.00  0.00    -0.000 C 
ATOM     12  C   UNL     1      34.372 -14.738 -20.506  0.00  0.00    -0.000 C 
ATOM     13  C   UNL     1      32.987 -14.780 -20.353  0.00  0.00    -0.000 C 
ENDBRANCH   1   8
BRANCH   1  14
ATOM     14  O   UNL     1      36.426 -17.732 -22.181  0.00  0.00    -0.373 OA
ATOM     15  H   UNL     1      36.778 -18.188 -21.401  0.00  0.00    +0.211 HD
ENDBRANCH   1  14
BRANCH   1  17
ATOM     16  O   UNL     1      34.229 -18.987 -24.388  0.00  0.00    -0.247 OA
ATOM     17  C   UNL     1      34.700 -18.023 -23.796  0.00  0.00    +0.346 C 
BRANCH  17  18
ATOM     18  O   UNL     1      35.019 -16.822 -24.363  0.00  0.00    -0.432 OA
BRANCH  18  19
ATOM     19  C   UNL     1      33.980 -16.205 -25.130  0.00  0.00    +0.284 C 
BRANCH  19  20
ATOM     20  C   UNL     1      33.683 -14.882 -24.584  0.00  0.00    -0.046 C 
ATOM     21  C   UNL     1      33.440 -13.794 -24.137  0.00  0.00    -0.111 C 
BRANCH  21  22
ATOM     22  C   UNL     1      33.141 -12.465 -23.596  0.00  0.00    +0.002 C 
BRANCH  22  23
ATOM     23  N   UNL     1      34.111 -11.483 -24.062  0.00  0.00    +0.395 N 
ATOM     24  H   UNL     1      35.016 -11.708 -23.645  0.00  0.00    -0.078 HD
BRANCH  23  25
ATOM     25  C   UNL     1      33.727 -10.135 -23.638  0.00  0.00    -0.076 C 
ATOM     26  C   UNL     1      32.399 -10.150 -22.899  0.00  0.00    -0.025 C 
ENDBRANCH  23  25
BRANCH  23  27
ATOM     27  C   UNL     1      34.244 -11.539 -25.519  0.00  0.00    -0.076 C 
ATOM     28  C   UNL     1      35.316 -10.580 -26.009  0.00  0.00    -0.025 C 
ENDBRANCH  23  27
ENDBRANCH  22  23
ENDBRANCH  21  22
ENDBRANCH  19  20
ENDBRANCH  18  19
ENDBRANCH  17  18
ENDBRANCH   1  17
TORSDOF 11
ENDMDL
MODEL 2
REMARK VINA RESULT:      -8.7      1.369      4.078
REMARK  Name = 4634
REMARK  11 active torsions:
REMARK  status: ('A' for Active; 'I' for Inactive)
REMARK    1  A    between atoms: C_1  and  C_2
REMARK    2  A    between atoms: C_1  and  C_8
REMARK    3  A    between atoms: C_1  and  O_14
REMARK    4  A    between atoms: C_1  and  C_17
REMARK    5  A    between atoms: C_17  and  O_18
REMARK    6  A    between atoms: O_18  and  C_19
REMARK    7  A    between atoms: C_19  and  C_20
REMARK    8  A    between atoms: C_21  and  C_22
REMARK    9  A    between atoms: C_22  and  N_23
REMARK   10  A    between atoms: N_23  and  C_25
REMARK   11  A    between atoms: N_23  and  C_27
REMARK                            x       y       z     vdW  Elec       q    Type
REMARK                         _______ _______ _______ _____ _____    ______ ____
ROOT
ATOM      1  C   UNL     1      34.877 -18.010 -21.563  0.00  0.00    +0.196 C 
ENDROOT
BRANCH   1   2
ATOM      2  C   UNL     1      34.301 -17.854 -22.970  0.00  0.00    +0.039 C 
ATOM      3  C   UNL     1      34.756 -19.008 -23.872  0.00  0.00    +0.003 C 
ATOM      4  C   UNL     1      34.699 -16.499 -23.571  0.00  0.00    +0.003 C 
ATOM      5  C   UNL     1      34.235 -18.847 -25.299  0.00  0.00    +0.000 C 
ATOM      6  C   UNL     1      34.179 -16.342 -24.998  0.00  0.00    +0.000 C 
ATOM      7  C   UNL     1      34.626 -17.496 -25.891  0.00  0.00    +0.000 C 
ENDBRANCH   1   2
BRANCH   1   8
ATOM      8  C   UNL     1      34.543 -19.305 -20.830  0.00  0.00    +0.012 C 
ATOM      9  C   UNL     1      33.219 -19.617 -20.606  0.00  0.00    -0.002 C 
ATOM     10  C   UNL     1      35.575 -20.118 -20.416  0.00  0.00    -0.002 C 
ATOM     11  C   UNL     1      32.913 -20.802 -19.936  0.00  0.00    -0.000 C 
ATOM     12  C   UNL     1      35.269 -21.303 -19.746  0.00  0.00    -0.000 C 
ATOM     13  C   UNL     1      33.939 -21.644 -19.506  0.00  0.00    -0.000 C 
ENDBRANCH   1   8
BRANCH   1  14
ATOM     14  O   UNL     1      36.304 -17.971 -21.697  0.00  0.00    -0.373 OA
ATOM     15  H   UNL     1      36.555 -17.229 -22.268  0.00  0.00    +0.211 HD
ENDBRANCH   1  14
BRANCH   1  17
ATOM     16  O   UNL     1      35.225 -16.218 -19.941  0.00  0.00    -0.247 OA
ATOM     17  C   UNL     1      34.477 -16.793 -20.724  0.00  0.00    +0.346 C 
BRANCH  17  18
ATOM     18  O   UNL     1      33.177 -16.456 -20.971  0.00  0.00    -0.432 OA
BRANCH  18  19
ATOM     19  C   UNL     1      32.695 -15.301 -20.277  0.00  0.00    +0.284 C 
BRANCH  19  20
ATOM     20  C   UNL     1      32.617 -14.168 -21.199  0.00  0.00    -0.046 C 
ATOM     21  C   UNL     1      32.551 -13.239 -21.957  0.00  0.00    -0.111 C 
BRANCH  21  22
ATOM     22  C   UNL     1      32.468 -12.101 -22.878  0.00  0.00    +0.002 C 
BRANCH  22  23
ATOM     23  N   UNL     1      33.692 -11.971 -23.657  0.00  0.00    +0.395 N 
ATOM     24  H   UNL     1      34.475 -12.259 -23.069  0.00  0.00    -0.078 HD
BRANCH  23  25
ATOM     25  C   UNL     1      33.901 -10.580 -24.061  0.00  0.00    -0.076 C 
ATOM     26  C   UNL     1      32.960  -9.645 -23.320  0.00  0.00    -0.025 C 
ENDBRANCH  23  25
BRANCH  23  27
ATOM     27  C   UNL     1      33.649 -12.841 -24.834  0.00  0.00    -0.076 C 
ATOM     28  C   UNL     1      33.820 -12.041 -26.114  0.00  0.00    -0.025 C 
ENDBRANCH  23  27
ENDBRANCH  22  23
ENDBRANCH  21  22
ENDBRANCH  19  20
ENDBRANCH  18  19
ENDBRANCH  17  18
ENDBRANCH   1  17
TORSDOF 11
ENDMDL
MODEL 3
REMARK VINA RESULT:      -8.6      3.940      8.981
REMARK  Name = 4634
REMARK  11 active torsions:
REMARK  status: ('A' for Active; 'I' for Inactive)
REMARK    1  A    between atoms: C_1  and  C_2
REMARK    2  A    between atoms: C_1  and  C_8
REMARK    3  A    between atoms: C_1  and  O_14
REMARK    4  A    between atoms: C_1  and  C_17
REMARK    5  A    between atoms: C_17  and  O_18
REMARK    6  A    between atoms: O_18  and  C_19
REMARK    7  A    between atoms: C_19  and  C_20
REMARK    8  A    between atoms: C_21  and  C_22
REMARK    9  A    between atoms: C_22  and  N_23
REMARK   10  A    between atoms: N_23  and  C_25
REMARK   11  A    between atoms: N_23  and  C_27
REMARK                            x       y       z     vdW  Elec       q    Type
REMARK                         _______ _______ _______ _____ _____    ______ ____
ROOT
ATOM      1  C   UNL     1      31.921  -9.088 -22.279  0.00  0.00    +0.196 C 
ENDROOT
BRANCH   1   2
ATOM      2  C   UNL     1      33.177  -9.714 -22.883  0.00  0.00    +0.039 C 
ATOM      3  C   UNL     1      33.943  -8.686 -23.725  0.00  0.00    +0.003 C 
ATOM      4  C   UNL     1      32.817 -10.949 -23.721  0.00  0.00    +0.003 C 
ATOM      5  C   UNL     1      35.176  -9.302 -24.383  0.00  0.00    +0.000 C 
ATOM      6  C   UNL     1      34.051 -11.561 -24.379  0.00  0.00    +0.000 C 
ATOM      7  C   UNL     1      34.816 -10.534 -25.209  0.00  0.00    +0.000 C 
ENDBRANCH   1   2
BRANCH   1   8
ATOM      8  C   UNL     1      31.622  -7.646 -22.674  0.00  0.00    +0.012 C 
ATOM      9  C   UNL     1      31.109  -7.394 -23.928  0.00  0.00    -0.002 C 
ATOM     10  C   UNL     1      31.874  -6.643 -21.763  0.00  0.00    -0.002 C 
ATOM     11  C   UNL     1      30.835  -6.075 -24.289  0.00  0.00    -0.000 C 
ATOM     12  C   UNL     1      31.600  -5.323 -22.124  0.00  0.00    -0.000 C 
ATOM     13  C   UNL     1      31.081  -5.040 -23.387  0.00  0.00    -0.000 C 
ENDBRANCH   1   8
BRANCH   1  14
ATOM     14  O   UNL     1      30.811  -9.875 -22.730  0.00  0.00    -0.373 OA
ATOM     15  H   UNL     1      30.127  -9.893 -22.043  0.00  0.00    +0.211 HD
ENDBRANCH   1  14
BRANCH   1  17
ATOM     16  O   UNL     1      32.752  -8.619 -20.031  0.00  0.00    -0.247 OA
ATOM     17  C   UNL     1      31.976  -9.232 -20.755  0.00  0.00    +0.346 C 
BRANCH  17  18
ATOM     18  O   UNL     1      31.049 -10.142 -20.333  0.00  0.00    -0.432 OA
BRANCH  18  19
ATOM     19  C   UNL     1      31.550 -11.200 -19.511  0.00  0.00    +0.284 C 
BRANCH  19  20
ATOM     20  C   UNL     1      31.949 -12.330 -20.350  0.00  0.00    -0.046 C 
ATOM     21  C   UNL     1      32.277 -13.256 -21.040  0.00  0.00    -0.111 C 
BRANCH  21  22
ATOM     22  C   UNL     1      32.684 -14.386 -21.881  0.00  0.00    +0.002 C 
BRANCH  22  23
ATOM     23  N   UNL     1      34.130 -14.555 -21.862  0.00  0.00    +0.395 N 
ATOM     24  H   UNL     1      34.558 -13.628 -21.838  0.00  0.00    -0.078 HD
BRANCH  23  25
ATOM     25  C   UNL     1      34.585 -15.245 -23.071  0.00  0.00    -0.076 C 
ATOM     26  C   UNL     1      33.554 -15.144 -24.182  0.00  0.00    -0.025 C 
ENDBRANCH  23  25
BRANCH  23  27
ATOM     27  C   UNL     1      34.550 -15.293 -20.668  0.00  0.00    -0.076 C 
ATOM     28  C   UNL     1      34.842 -16.747 -20.996  0.00  0.00    -0.025 C 
ENDBRANCH  23  27
ENDBRANCH  22  23
ENDBRANCH  21  22
ENDBRANCH  19  20
ENDBRANCH  18  19
ENDBRANCH  17  18
ENDBRANCH   1  17
TORSDOF 11
ENDMDL
MODEL 4
REMARK VINA RESULT:      -8.4      3.881      9.397
REMARK  Name = 4634
REMARK  11 active torsions:
REMARK  status: ('A' for Active; 'I' for Inactive)
REMARK    1  A    between atoms: C_1  and  C_2
REMARK    2  A    between atoms: C_1  and  C_8
REMARK    3  A    between atoms: C_1  and  O_14
REMARK    4  A    between atoms: C_1  and  C_17
REMARK    5  A    between atoms: C_17  and  O_18
REMARK    6  A    between atoms: O_18  and  C_19
REMARK    7  A    between atoms: C_19  and  C_20
REMARK    8  A    between atoms: C_21  and  C_22
REMARK    9  A    between atoms: C_22  and  N_23
REMARK   10  A    between atoms: N_23  and  C_25
REMARK   11  A    between atoms: N_23  and  C_27
REMARK                            x       y       z     vdW  Elec       q    Type
REMARK                         _______ _______ _______ _____ _____    ______ ____
ROOT
ATOM      1  C   UNL     1      32.227  -8.728 -22.967  0.00  0.00    +0.196 C 
ENDROOT
BRANCH   1   2
ATOM      2  C   UNL     1      32.261  -7.201 -22.944  0.00  0.00    +0.039 C 
ATOM      3  C   UNL     1      30.993  -6.641 -22.288  0.00  0.00    +0.003 C 
ATOM      4  C   UNL     1      32.438  -6.642 -24.362  0.00  0.00    +0.003 C 
ATOM      5  C   UNL     1      30.979  -5.114 -22.300  0.00  0.00    +0.000 C 
ATOM      6  C   UNL     1      32.422  -5.115 -24.371  0.00  0.00    +0.000 C 
ATOM      7  C   UNL     1      31.163  -4.560 -23.710  0.00  0.00    +0.000 C 
ENDBRANCH   1   2
BRANCH   1   8
ATOM      8  C   UNL     1      31.994  -9.424 -21.630  0.00  0.00    +0.012 C 
ATOM      9  C   UNL     1      31.409 -10.672 -21.625  0.00  0.00    -0.002 C 
ATOM     10  C   UNL     1      32.375  -8.781 -20.472  0.00  0.00    -0.002 C 
ATOM     11  C   UNL     1      31.196 -11.309 -20.402  0.00  0.00    -0.000 C 
ATOM     12  C   UNL     1      32.161  -9.418 -19.249  0.00  0.00    -0.000 C 
ATOM     13  C   UNL     1      31.572 -10.682 -19.214  0.00  0.00    -0.000 C 
ENDBRANCH   1   8
BRANCH   1  14
ATOM     14  O   UNL     1      31.136  -9.102 -23.819  0.00  0.00    -0.373 OA
ATOM     15  H   UNL     1      31.484  -9.475 -24.644  0.00  0.00    +0.211 HD
ENDBRANCH   1  14
BRANCH   1  17
ATOM     16  O   UNL     1      34.638  -8.889 -23.321  0.00  0.00    -0.247 OA
ATOM     17  C   UNL     1      33.506  -9.245 -23.630  0.00  0.00    +0.346 C 
BRANCH  17  18
ATOM     18  O   UNL     1      33.199 -10.145 -24.612  0.00  0.00    -0.432 OA
BRANCH  18  19
ATOM     19  C   UNL     1      34.192 -11.142 -24.869  0.00  0.00    +0.284 C 
BRANCH  19  20
ATOM     20  C   UNL     1      33.880 -12.355 -24.114  0.00  0.00    -0.046 C 
ATOM     21  C   UNL     1      33.623 -13.351 -23.494  0.00  0.00    -0.111 C 
BRANCH  21  22
ATOM     22  C   UNL     1      33.311 -14.571 -22.743  0.00  0.00    +0.002 C 
BRANCH  22  23
ATOM     23  N   UNL     1      34.489 -15.066 -22.043  0.00  0.00    +0.395 N 
ATOM     24  H   UNL     1      35.235 -14.377 -22.149  0.00  0.00    -0.078 HD
BRANCH  23  25
ATOM     25  C   UNL     1      34.940 -16.332 -22.623  0.00  0.00    -0.076 C 
ATOM     26  C   UNL     1      35.205 -17.368 -21.543  0.00  0.00    -0.025 C 
ENDBRANCH  23  25
BRANCH  23  27
ATOM     27  C   UNL     1      34.209 -15.233 -20.615  0.00  0.00    -0.076 C 
ATOM     28  C   UNL     1      32.761 -14.904 -20.297  0.00  0.00    -0.025 C 
ENDBRANCH  23  27
ENDBRANCH  22  23
ENDBRANCH  21  22
ENDBRANCH  19  20
ENDBRANCH  18  19
ENDBRANCH  17  18
ENDBRANCH   1  17
TORSDOF 11
ENDMDL
MODEL 5
REMARK VINA RESULT:      -8.4      4.149      9.718
REMARK  Name = 4634
REMARK  11 active torsions:
REMARK  status: ('A' for Active; 'I' for Inactive)
REMARK    1  A    between atoms: C_1  and  C_2
REMARK    2  A    between atoms: C_1  and  C_8
REMARK    3  A    between atoms: C_1  and  O_14
REMARK    4  A    between atoms: C_1  and  C_17
REMARK    5  A    between atoms: C_17  and  O_18
REMARK    6  A    between atoms: O_18  and  C_19
REMARK    7  A    between atoms: C_19  and  C_20
REMARK    8  A    between atoms: C_21  and  C_22
REMARK    9  A    between atoms: C_22  and  N_23
REMARK   10  A    between atoms: N_23  and  C_25
REMARK   11  A    between atoms: N_23  and  C_27
REMARK                            x       y       z     vdW  Elec       q    Type
REMARK                         _______ _______ _______ _____ _____    ______ ____
ROOT
ATOM      1  C   UNL     1      32.912  -8.173 -22.218  0.00  0.00    +0.196 C 
ENDROOT
BRANCH   1   2
ATOM      2  C   UNL     1      31.843  -7.207 -22.725  0.00  0.00    +0.039 C 
ATOM      3  C   UNL     1      32.261  -6.591 -24.066  0.00  0.00    +0.003 C 
ATOM      4  C   UNL     1      31.563  -6.114 -21.684  0.00  0.00    +0.003 C 
ATOM      5  C   UNL     1      31.232  -5.581 -24.568  0.00  0.00    +0.000 C 
ATOM      6  C   UNL     1      30.535  -5.105 -22.190  0.00  0.00    +0.000 C 
ATOM      7  C   UNL     1      30.950  -4.500 -23.528  0.00  0.00    +0.000 C 
ENDBRANCH   1   2
BRANCH   1   8
ATOM      8  C   UNL     1      33.517  -9.120 -23.250  0.00  0.00    +0.012 C 
ATOM      9  C   UNL     1      32.834 -10.272 -23.574  0.00  0.00    -0.002 C 
ATOM     10  C   UNL     1      34.727  -8.792 -23.822  0.00  0.00    -0.002 C 
ATOM     11  C   UNL     1      33.388 -11.138 -24.517  0.00  0.00    -0.000 C 
ATOM     12  C   UNL     1      35.281  -9.658 -24.765  0.00  0.00    -0.000 C 
ATOM     13  C   UNL     1      34.611 -10.831 -25.112  0.00  0.00    -0.000 C 
ENDBRANCH   1   8
BRANCH   1  14
ATOM     14  O   UNL     1      33.989  -7.370 -21.718  0.00  0.00    -0.373 OA
ATOM     15  H   UNL     1      34.186  -6.663 -22.352  0.00  0.00    +0.211 HD
ENDBRANCH   1  14
BRANCH   1  17
ATOM     16  O   UNL     1      32.724  -8.810 -19.868  0.00  0.00    -0.247 OA
ATOM     17  C   UNL     1      32.352  -8.956 -21.027  0.00  0.00    +0.346 C 
BRANCH  17  18
ATOM     18  O   UNL     1      31.394  -9.834 -21.448  0.00  0.00    -0.432 OA
BRANCH  18  19
ATOM     19  C   UNL     1      31.069 -10.881 -20.528  0.00  0.00    +0.284 C 
BRANCH  19  20
ATOM     20  C   UNL     1      31.594 -12.153 -21.023  0.00  0.00    -0.046 C 
ATOM     21  C   UNL     1      32.027 -13.197 -21.429  0.00  0.00    -0.111 C 
BRANCH  21  22
ATOM     22  C   UNL     1      32.557 -14.473 -21.918  0.00  0.00    +0.002 C 
BRANCH  22  23
ATOM     23  N   UNL     1      34.013 -14.451 -21.960  0.00  0.00    +0.395 N 
ATOM     24  H   UNL     1      34.314 -13.476 -22.010  0.00  0.00    -0.078 HD
BRANCH  23  25
ATOM     25  C   UNL     1      34.506 -15.151 -23.148  0.00  0.00    -0.076 C 
ATOM     26  C   UNL     1      33.644 -14.847 -24.362  0.00  0.00    -0.025 C 
ENDBRANCH  23  25
BRANCH  23  27
ATOM     27  C   UNL     1      34.575 -15.050 -20.748  0.00  0.00    -0.076 C 
ATOM     28  C   UNL     1      34.843 -16.532 -20.943  0.00  0.00    -0.025 C 
ENDBRANCH  23  27
ENDBRANCH  22  23
ENDBRANCH  21  22
ENDBRANCH  19  20
ENDBRANCH  18  19
ENDBRANCH  17  18
ENDBRANCH   1  17
TORSDOF 11
ENDMDL
MODEL 6
REMARK VINA RESULT:      -8.2      6.209      9.902
REMARK  Name = 4634
REMARK  11 active torsions:
REMARK  status: ('A' for Active; 'I' for Inactive)
REMARK    1  A    between atoms: C_1  and  C_2
REMARK    2  A    between atoms: C_1  and  C_8
REMARK    3  A    between atoms: C_1  and  O_14
REMARK    4  A    between atoms: C_1  and  C_17
REMARK    5  A    between atoms: C_17  and  O_18
REMARK    6  A    between atoms: O_18  and  C_19
REMARK    7  A    between atoms: C_19  and  C_20
REMARK    8  A    between atoms: C_21  and  C_22
REMARK    9  A    between atoms: C_22  and  N_23
REMARK   10  A    between atoms: N_23  and  C_25
REMARK   11  A    between atoms: N_23  and  C_27
REMARK                            x       y       z     vdW  Elec       q    Type
REMARK                         _______ _______ _______ _____ _____    ______ ____
ROOT
ATOM      1  C   UNL     1      34.532 -23.834 -14.474  0.00  0.00    +0.196 C 
ENDROOT
BRANCH   1   2
ATOM      2  C   UNL     1      35.316 -25.114 -14.192  0.00  0.00    +0.039 C 
ATOM      3  C   UNL     1      36.374 -24.873 -13.107  0.00  0.00    +0.003 C 
ATOM      4  C   UNL     1      35.961 -25.649 -15.477  0.00  0.00    +0.003 C 
ATOM      5  C   UNL     1      37.207 -26.125 -12.844  0.00  0.00    +0.000 C 
ATOM      6  C   UNL     1      36.795 -26.900 -15.210  0.00  0.00    +0.000 C 
ATOM      7  C   UNL     1      37.841 -26.659 -14.125  0.00  0.00    +0.000 C 
ENDBRANCH   1   2
BRANCH   1   8
ATOM      8  C   UNL     1      33.015 -23.921 -14.340  0.00  0.00    +0.012 C 
ATOM      9  C   UNL     1      32.252 -22.836 -14.717  0.00  0.00    -0.002 C 
ATOM     10  C   UNL     1      32.458 -25.080 -13.845  0.00  0.00    -0.002 C 
ATOM     11  C   UNL     1      30.865 -22.916 -14.595  0.00  0.00    -0.000 C 
ATOM     12  C   UNL     1      31.071 -25.160 -13.722  0.00  0.00    -0.000 C 
ATOM     13  C   UNL     1      30.275 -24.078 -14.097  0.00  0.00    -0.000 C 
ENDBRANCH   1   8
BRANCH   1  14
ATOM     14  O   UNL     1      34.973 -22.862 -13.517  0.00  0.00    -0.373 OA
ATOM     15  H   UNL     1      35.830 -22.502 -13.792  0.00  0.00    +0.211 HD
ENDBRANCH   1  14
BRANCH   1  17
ATOM     16  O   UNL     1      34.515 -23.768 -16.915  0.00  0.00    -0.247 OA
ATOM     17  C   UNL     1      34.924 -23.304 -15.856  0.00  0.00    +0.346 C 
BRANCH  17  18
ATOM     18  O   UNL     1      35.791 -22.256 -15.732  0.00  0.00    -0.432 OA
BRANCH  18  19
ATOM     19  C   UNL     1      36.997 -22.358 -16.496  0.00  0.00    +0.284 C 
BRANCH  19  20
ATOM     20  C   UNL     1      36.797 -21.759 -17.815  0.00  0.00    -0.046 C 
ATOM     21  C   UNL     1      36.631 -21.267 -18.898  0.00  0.00    -0.111 C 
BRANCH  21  22
ATOM     22  C   UNL     1      36.430 -20.661 -20.218  0.00  0.00    +0.002 C 
BRANCH  22  23
ATOM     23  N   UNL     1      35.176 -19.922 -20.265  0.00  0.00    +0.395 N 
ATOM     24  H   UNL     1      35.199 -19.209 -19.534  0.00  0.00    -0.078 HD
BRANCH  23  25
ATOM     25  C   UNL     1      34.042 -20.813 -20.010  0.00  0.00    -0.076 C 
ATOM     26  C   UNL     1      32.736 -20.184 -20.466  0.00  0.00    -0.025 C 
ENDBRANCH  23  25
BRANCH  23  27
ATOM     27  C   UNL     1      35.017 -19.256 -21.559  0.00  0.00    -0.076 C 
ATOM     28  C   UNL     1      35.553 -17.836 -21.516  0.00  0.00    -0.025 C 
ENDBRANCH  23  27
ENDBRANCH  22  23
ENDBRANCH  21  22
ENDBRANCH  19  20
ENDBRANCH  18  19
ENDBRANCH  17  18
ENDBRANCH   1  17
TORSDOF 11
ENDMDL
MODEL 7
REMARK VINA RESULT:      -8.1      5.580      9.215
REMARK  Name = 4634
REMARK  11 active torsions:
REMARK  status: ('A' for Active; 'I' for Inactive)
REMARK    1  A    between atoms: C_1  and  C_2
REMARK    2  A    between atoms: C_1  and  C_8
REMARK    3  A    between atoms: C_1  and  O_14
REMARK    4  A    between atoms: C_1  and  C_17
REMARK    5  A    between atoms: C_17  and  O_18
REMARK    6  A    between atoms: O_18  and  C_19
REMARK    7  A    between atoms: C_19  and  C_20
REMARK    8  A    between atoms: C_21  and  C_22
REMARK    9  A    between atoms: C_22  and  N_23
REMARK   10  A    between atoms: N_23  and  C_25
REMARK   11  A    between atoms: N_23  and  C_27
REMARK                            x       y       z     vdW  Elec       q    Type
REMARK                         _______ _______ _______ _____ _____    ______ ____
ROOT
ATOM      1  C   UNL     1      35.171 -23.654 -15.519  0.00  0.00    +0.196 C 
ENDROOT
BRANCH   1   2
ATOM      2  C   UNL     1      33.763 -23.145 -15.214  0.00  0.00    +0.039 C 
ATOM      3  C   UNL     1      33.196 -23.835 -13.966  0.00  0.00    +0.003 C 
ATOM      4  C   UNL     1      32.839 -23.353 -16.421  0.00  0.00    +0.003 C 
ATOM      5  C   UNL     1      31.768 -23.381 -13.671  0.00  0.00    +0.000 C 
ATOM      6  C   UNL     1      31.411 -22.901 -16.122  0.00  0.00    +0.000 C 
ATOM      7  C   UNL     1      30.854 -23.582 -14.875  0.00  0.00    +0.000 C 
ENDBRANCH   1   2
BRANCH   1   8
ATOM      8  C   UNL     1      36.022 -24.061 -14.320  0.00  0.00    +0.012 C 
ATOM      9  C   UNL     1      36.566 -25.327 -14.292  0.00  0.00    -0.002 C 
ATOM     10  C   UNL     1      36.218 -23.149 -13.306  0.00  0.00    -0.002 C 
ATOM     11  C   UNL     1      37.345 -25.699 -13.196  0.00  0.00    -0.000 C 
ATOM     12  C   UNL     1      36.997 -23.521 -12.210  0.00  0.00    -0.000 C 
ATOM     13  C   UNL     1      37.560 -24.796 -12.155  0.00  0.00    -0.000 C 
ENDBRANCH   1   8
BRANCH   1  14
ATOM     14  O   UNL     1      35.018 -24.826 -16.330  0.00  0.00    -0.373 OA
ATOM     15  H   UNL     1      35.872 -25.279 -16.407  0.00  0.00    +0.211 HD
ENDBRANCH   1  14
BRANCH   1  17
ATOM     16  O   UNL     1      36.800 -21.890 -15.963  0.00  0.00    -0.247 OA
ATOM     17  C   UNL     1      35.901 -22.615 -16.374  0.00  0.00    +0.346 C 
BRANCH  17  18
ATOM     18  O   UNL     1      35.400 -22.614 -17.645  0.00  0.00    -0.432 OA
BRANCH  18  19
ATOM     19  C   UNL     1      36.138 -21.844 -18.600  0.00  0.00    +0.284 C 
BRANCH  19  20
ATOM     20  C   UNL     1      35.213 -21.119 -19.469  0.00  0.00    -0.046 C 
ATOM     21  C   UNL     1      34.452 -20.524 -20.184  0.00  0.00    -0.111 C 
BRANCH  21  22
ATOM     22  C   UNL     1      33.519 -19.798 -21.051  0.00  0.00    +0.002 C 
BRANCH  22  23
ATOM     23  N   UNL     1      34.222 -18.809 -21.858  0.00  0.00    +0.395 N 
ATOM     24  H   UNL     1      33.530 -18.167 -22.246  0.00  0.00    -0.078 HD
BRANCH  23  25
ATOM     25  C   UNL     1      34.929 -19.455 -22.966  0.00  0.00    -0.076 C 
ATOM     26  C   UNL     1      34.679 -18.727 -24.276  0.00  0.00    -0.025 C 
ENDBRANCH  23  25
BRANCH  23  27
ATOM     27  C   UNL     1      35.159 -18.042 -21.035  0.00  0.00    -0.076 C 
ATOM     28  C   UNL     1      34.800 -16.567 -21.024  0.00  0.00    -0.025 C 
ENDBRANCH  23  27
ENDBRANCH  22  23
ENDBRANCH  21  22
ENDBRANCH  19  20
ENDBRANCH  18  19
ENDBRANCH  17  18
ENDBRANCH   1  17
TORSDOF 11
ENDMDL
MODEL 8
REMARK VINA RESULT:      -8.0      1.091      3.925
REMARK  Name = 4634
REMARK  11 active torsions:
REMARK  status: ('A' for Active; 'I' for Inactive)
REMARK    1  A    between atoms: C_1  and  C_2
REMARK    2  A    between atoms: C_1  and  C_8
REMARK    3  A    between atoms: C_1  and  O_14
REMARK    4  A    between atoms: C_1  and  C_17
REMARK    5  A    between atoms: C_17  and  O_18
REMARK    6  A    between atoms: O_18  and  C_19
REMARK    7  A    between atoms: C_19  and  C_20
REMARK    8  A    between atoms: C_21  and  C_22
REMARK    9  A    between atoms: C_22  and  N_23
REMARK   10  A    between atoms: N_23  and  C_25
REMARK   11  A    between atoms: N_23  and  C_27
REMARK                            x       y       z     vdW  Elec       q    Type
REMARK                         _______ _______ _______ _____ _____    ______ ____
ROOT
ATOM      1  C   UNL     1      34.219 -18.688 -21.574  0.00  0.00    +0.196 C 
ENDROOT
BRANCH   1   2
ATOM      2  C   UNL     1      33.991 -17.338 -20.897  0.00  0.00    +0.039 C 
ATOM      3  C   UNL     1      32.528 -16.901 -21.040  0.00  0.00    +0.003 C 
ATOM      4  C   UNL     1      34.938 -16.276 -21.474  0.00  0.00    +0.003 C 
ATOM      5  C   UNL     1      32.285 -15.528 -20.417  0.00  0.00    +0.000 C 
ATOM      6  C   UNL     1      34.692 -14.904 -20.850  0.00  0.00    +0.000 C 
ATOM      7  C   UNL     1      33.233 -14.476 -20.986  0.00  0.00    +0.000 C 
ENDBRANCH   1   2
BRANCH   1   8
ATOM      8  C   UNL     1      34.749 -19.812 -20.689  0.00  0.00    +0.012 C 
ATOM      9  C   UNL     1      33.852 -20.696 -20.130  0.00  0.00    -0.002 C 
ATOM     10  C   UNL     1      36.108 -19.905 -20.479  0.00  0.00    -0.002 C 
ATOM     11  C   UNL     1      34.337 -21.724 -19.322  0.00  0.00    -0.000 C 
ATOM     12  C   UNL     1      36.593 -20.934 -19.670  0.00  0.00    -0.000 C 
ATOM     13  C   UNL     1      35.707 -21.842 -19.091  0.00  0.00    -0.000 C 
ENDBRANCH   1   8
BRANCH   1  14
ATOM     14  O   UNL     1      32.944 -19.122 -22.067  0.00  0.00    -0.373 OA
ATOM     15  H   UNL     1      32.561 -18.428 -22.625  0.00  0.00    +0.211 HD
ENDBRANCH   1  14
BRANCH   1  17
ATOM     16  O   UNL     1      36.333 -18.306 -22.736  0.00  0.00    -0.247 OA
ATOM     17  C   UNL     1      35.122 -18.488 -22.794  0.00  0.00    +0.346 C 
BRANCH  17  18
ATOM     18  O   UNL     1      34.382 -18.534 -23.942  0.00  0.00    -0.432 OA
BRANCH  18  19
ATOM     19  C   UNL     1      34.838 -17.693 -25.006  0.00  0.00    +0.284 C 
BRANCH  19  20
ATOM     20  C   UNL     1      34.137 -16.411 -24.957  0.00  0.00    -0.046 C 
ATOM     21  C   UNL     1      33.561 -15.358 -24.915  0.00  0.00    -0.111 C 
BRANCH  21  22
ATOM     22  C   UNL     1      32.862 -14.070 -24.862  0.00  0.00    +0.002 C 
BRANCH  22  23
ATOM     23  N   UNL     1      33.811 -12.965 -24.832  0.00  0.00    +0.395 N 
ATOM     24  H   UNL     1      34.743 -13.350 -24.676  0.00  0.00    -0.078 HD
BRANCH  23  25
ATOM     25  C   UNL     1      33.498 -12.046 -23.735  0.00  0.00    -0.076 C 
ATOM     26  C   UNL     1      33.754 -10.603 -24.138  0.00  0.00    -0.025 C 
ENDBRANCH  23  25
BRANCH  23  27
ATOM     27  C   UNL     1      33.811 -12.249 -26.110  0.00  0.00    -0.076 C 
ATOM     28  C   UNL     1      33.117 -13.058 -27.192  0.00  0.00    -0.025 C 
ENDBRANCH  23  27
ENDBRANCH  22  23
ENDBRANCH  21  22
ENDBRANCH  19  20
ENDBRANCH  18  19
ENDBRANCH  17  18
ENDBRANCH   1  17
TORSDOF 11
ENDMDL
MODEL 9
REMARK VINA RESULT:      -8.0      2.273      7.350
REMARK  Name = 4634
REMARK  11 active torsions:
REMARK  status: ('A' for Active; 'I' for Inactive)
REMARK    1  A    between atoms: C_1  and  C_2
REMARK    2  A    between atoms: C_1  and  C_8
REMARK    3  A    between atoms: C_1  and  O_14
REMARK    4  A    between atoms: C_1  and  C_17
REMARK    5  A    between atoms: C_17  and  O_18
REMARK    6  A    between atoms: O_18  and  C_19
REMARK    7  A    between atoms: C_19  and  C_20
REMARK    8  A    between atoms: C_21  and  C_22
REMARK    9  A    between atoms: C_22  and  N_23
REMARK   10  A    between atoms: N_23  and  C_25
REMARK   11  A    between atoms: N_23  and  C_27
REMARK                            x       y       z     vdW  Elec       q    Type
REMARK                         _______ _______ _______ _____ _____    ______ ____
ROOT
ATOM      1  C   UNL     1      33.007 -13.370 -23.655  0.00  0.00    +0.196 C 
ENDROOT
BRANCH   1   2
ATOM      2  C   UNL     1      33.827 -12.089 -23.796  0.00  0.00    +0.039 C 
ATOM      3  C   UNL     1      33.037 -10.880 -23.280  0.00  0.00    +0.003 C 
ATOM      4  C   UNL     1      34.257 -11.879 -25.254  0.00  0.00    +0.003 C 
ATOM      5  C   UNL     1      33.816  -9.579 -23.458  0.00  0.00    +0.000 C 
ATOM      6  C   UNL     1      35.034 -10.577 -25.430  0.00  0.00    +0.000 C 
ATOM      7  C   UNL     1      34.249  -9.377 -24.908  0.00  0.00    +0.000 C 
ENDBRANCH   1   2
BRANCH   1   8
ATOM      8  C   UNL     1      33.300 -14.235 -22.433  0.00  0.00    +0.012 C 
ATOM      9  C   UNL     1      34.596 -14.313 -21.972  0.00  0.00    -0.002 C 
ATOM     10  C   UNL     1      32.259 -14.909 -21.833  0.00  0.00    -0.002 C 
ATOM     11  C   UNL     1      34.864 -15.104 -20.854  0.00  0.00    -0.000 C 
ATOM     12  C   UNL     1      32.527 -15.700 -20.715  0.00  0.00    -0.000 C 
ATOM     13  C   UNL     1      33.829 -15.797 -20.226  0.00  0.00    -0.000 C 
ENDBRANCH   1   8
BRANCH   1  14
ATOM     14  O   UNL     1      31.633 -12.970 -23.553  0.00  0.00    -0.373 OA
ATOM     15  H   UNL     1      31.576 -12.130 -23.072  0.00  0.00    +0.211 HD
ENDBRANCH   1  14
BRANCH   1  17
ATOM     16  O   UNL     1      32.388 -14.082 -25.907  0.00  0.00    -0.247 OA
ATOM     17  C   UNL     1      33.136 -14.189 -24.942  0.00  0.00    +0.346 C 
BRANCH  17  18
ATOM     18  O   UNL     1      34.192 -15.050 -24.849  0.00  0.00    -0.432 OA
BRANCH  18  19
ATOM     19  C   UNL     1      34.041 -16.291 -25.546  0.00  0.00    +0.284 C 
BRANCH  19  20
ATOM     20  C   UNL     1      34.354 -17.402 -24.649  0.00  0.00    -0.046 C 
ATOM     21  C   UNL     1      34.612 -18.316 -23.913  0.00  0.00    -0.111 C 
BRANCH  21  22
ATOM     22  C   UNL     1      34.931 -19.432 -23.018  0.00  0.00    +0.002 C 
BRANCH  22  23
ATOM     23  N   UNL     1      34.913 -19.004 -21.625  0.00  0.00    +0.395 N 
ATOM     24  H   UNL     1      34.367 -18.144 -21.564  0.00  0.00    -0.078 HD
BRANCH  23  25
ATOM     25  C   UNL     1      36.272 -18.725 -21.154  0.00  0.00    -0.076 C 
ATOM     26  C   UNL     1      36.813 -19.878 -20.326  0.00  0.00    -0.025 C 
ENDBRANCH  23  25
BRANCH  23  27
ATOM     27  C   UNL     1      34.281 -20.018 -20.780  0.00  0.00    -0.076 C 
ATOM     28  C   UNL     1      32.787 -19.774 -20.653  0.00  0.00    -0.025 C 
ENDBRANCH  23  27
ENDBRANCH  22  23
ENDBRANCH  21  22
ENDBRANCH  19  20
ENDBRANCH  18  19
ENDBRANCH  17  18
ENDBRANCH   1  17
TORSDOF 11
ENDMDL
