MODEL 1
REMARK VINA RESULT:     -11.6      0.000      0.000
REMARK  Name = 6450813
REMARK  4 active torsions:
REMARK  status: ('A' for Active; 'I' for Inactive)
REMARK    1  A    between atoms: C_4  and  C_10
REMARK    2  A    between atoms: C_6  and  C_22
REMARK    3  A    between atoms: C_12  and  N_17
REMARK    4  A    between atoms: C_22  and  C_24
REMARK                            x       y       z     vdW  Elec       q    Type
REMARK                         _______ _______ _______ _____ _____    ______ ____
ROOT
ATOM      1  N   UNL     1      33.792 -14.794 -22.388  0.00  0.00    -0.191 N 
ATOM      2  N   UNL     1      33.992 -14.723 -21.042  0.00  0.00    -0.179 NA
ATOM      3  N   UNL     1      34.198 -16.299 -24.228  0.00  0.00    -0.231 NA
ATOM      4  C   UNL     1      33.197 -13.835 -23.226  0.00  0.00    +0.143 C 
ATOM      5  C   UNL     1      34.278 -16.000 -22.902  0.00  0.00    +0.141 C 
ATOM      6  C   UNL     1      34.790 -16.703 -21.834  0.00  0.00    +0.161 C 
ATOM      7  C   UNL     1      33.099 -14.089 -24.542  0.00  0.00    +0.020 C 
ATOM      8  C   UNL     1      34.587 -15.872 -20.727  0.00  0.00    +0.106 C 
ATOM      9  C   UNL     1      33.647 -15.397 -24.980  0.00  0.00    +0.097 C 
ENDROOT
BRANCH   4  10
ATOM     10  C   UNL     1      32.668 -12.565 -22.697  0.00  0.00    +0.003 C 
ATOM     11  C   UNL     1      33.008 -11.357 -23.308  0.00  0.00    +0.013 C 
ATOM     12  C   UNL     1      32.507 -10.156 -22.809  0.00  0.00    +0.054 C 
ATOM     13  C   UNL     1      31.825 -12.569 -21.586  0.00  0.00    -0.002 C 
ATOM     14  C   UNL     1      31.665 -10.160 -21.697  0.00  0.00    +0.015 C 
ATOM     15  C   UNL     1      31.324 -11.367 -21.085  0.00  0.00    +0.001 C 
BRANCH  12  17
ATOM     16  O   UNL     1      35.160  -9.360 -23.651  0.00  0.00    -0.275 OA
ATOM     17  N   UNL     1      32.848  -8.948 -23.419  0.00  0.00    -0.257 N 
ATOM     18  C   UNL     1      31.757  -7.972 -23.726  0.00  0.00    +0.120 C 
ATOM     19  C   UNL     1      34.184  -8.632 -23.847  0.00  0.00    +0.230 C 
ATOM     20  C   UNL     1      34.402  -7.350 -24.617  0.00  0.00    +0.095 C 
ENDBRANCH  12  17
ENDBRANCH   4  10
BRANCH   6  22
ATOM     21  O   UNL     1      36.439 -18.214 -22.535  0.00  0.00    -0.290 OA
ATOM     22  C   UNL     1      35.393 -18.000 -21.891  0.00  0.00    +0.191 C 
BRANCH  22  24
ATOM     23  S   UNL     1      35.743 -20.258 -20.433  0.00  0.00    -0.084 S 
ATOM     24  C   UNL     1      34.741 -19.107 -21.153  0.00  0.00    +0.065 C 
ATOM     25  C   UNL     1      33.422 -19.304 -20.987  0.00  0.00    +0.010 C 
ATOM     26  C   UNL     1      33.193 -20.479 -20.216  0.00  0.00    +0.008 C 
ATOM     27  C   UNL     1      34.368 -21.096 -19.849  0.00  0.00    +0.036 C 
ENDBRANCH  22  24
ENDBRANCH   6  22
TORSDOF 4
ENDMDL
MODEL 2
REMARK VINA RESULT:     -11.5      1.875      2.997
REMARK  Name = 6450813
REMARK  4 active torsions:
REMARK  status: ('A' for Active; 'I' for Inactive)
REMARK    1  A    between atoms: C_4  and  C_10
REMARK    2  A    between atoms: C_6  and  C_22
REMARK    3  A    between atoms: C_12  and  N_17
REMARK    4  A    between atoms: C_22  and  C_24
REMARK                            x       y       z     vdW  Elec       q    Type
REMARK                         _______ _______ _______ _____ _____    ______ ____
ROOT
ATOM      1  N   UNL     1      34.792 -16.265 -22.620  0.00  0.00    -0.191 N 
ATOM      2  N   UNL     1      35.095 -16.967 -23.748  0.00  0.00    -0.179 NA
ATOM      3  N   UNL     1      34.867 -16.519 -20.223  0.00  0.00    -0.231 NA
ATOM      4  C   UNL     1      34.245 -14.974 -22.526  0.00  0.00    +0.143 C 
ATOM      5  C   UNL     1      35.090 -17.009 -21.475  0.00  0.00    +0.141 C 
ATOM      6  C   UNL     1      35.604 -18.210 -21.910  0.00  0.00    +0.161 C 
ATOM      7  C   UNL     1      34.007 -14.453 -21.311  0.00  0.00    +0.020 C 
ATOM      8  C   UNL     1      35.581 -18.125 -23.306  0.00  0.00    +0.106 C 
ATOM      9  C   UNL     1      34.359 -15.327 -20.164  0.00  0.00    +0.097 C 
ENDROOT
BRANCH   4  10
ATOM     10  C   UNL     1      33.937 -14.172 -23.725  0.00  0.00    +0.003 C 
ATOM     11  C   UNL     1      34.309 -12.828 -23.781  0.00  0.00    +0.013 C 
ATOM     12  C   UNL     1      34.019 -12.070 -24.914  0.00  0.00    +0.054 C 
ATOM     13  C   UNL     1      33.275 -14.757 -24.804  0.00  0.00    -0.002 C 
ATOM     14  C   UNL     1      33.356 -12.655 -25.993  0.00  0.00    +0.015 C 
ATOM     15  C   UNL     1      32.983 -13.999 -25.939  0.00  0.00    +0.001 C 
BRANCH  12  17
ATOM     16  O   UNL     1      33.018  -9.953 -23.213  0.00  0.00    -0.275 OA
ATOM     17  N   UNL     1      34.389 -10.726 -24.971  0.00  0.00    -0.257 N 
ATOM     18  C   UNL     1      35.434 -10.316 -25.958  0.00  0.00    +0.120 C 
ATOM     19  C   UNL     1      33.879  -9.731 -24.068  0.00  0.00    +0.230 C 
ATOM     20  C   UNL     1      34.457  -8.336 -24.141  0.00  0.00    +0.095 C 
ENDBRANCH  12  17
ENDBRANCH   4  10
BRANCH   6  22
ATOM     21  O   UNL     1      37.257 -19.477 -20.834  0.00  0.00    -0.290 OA
ATOM     22  C   UNL     1      36.050 -19.286 -21.078  0.00  0.00    +0.191 C 
BRANCH  22  24
ATOM     23  S   UNL     1      35.574 -21.487 -19.570  0.00  0.00    -0.084 S 
ATOM     24  C   UNL     1      35.028 -20.188 -20.494  0.00  0.00    +0.065 C 
ATOM     25  C   UNL     1      33.693 -20.086 -20.618  0.00  0.00    +0.010 C 
ATOM     26  C   UNL     1      33.052 -21.143 -19.912  0.00  0.00    +0.008 C 
ATOM     27  C   UNL     1      33.957 -21.979 -19.296  0.00  0.00    +0.036 C 
ENDBRANCH  22  24
ENDBRANCH   6  22
TORSDOF 4
ENDMDL
MODEL 3
REMARK VINA RESULT:     -11.4      3.989      6.107
REMARK  Name = 6450813
REMARK  4 active torsions:
REMARK  status: ('A' for Active; 'I' for Inactive)
REMARK    1  A    between atoms: C_4  and  C_10
REMARK    2  A    between atoms: C_6  and  C_22
REMARK    3  A    between atoms: C_12  and  N_17
REMARK    4  A    between atoms: C_22  and  C_24
REMARK                            x       y       z     vdW  Elec       q    Type
REMARK                         _______ _______ _______ _____ _____    ______ ____
ROOT
ATOM      1  N   UNL     1      34.498 -19.660 -20.436  0.00  0.00    -0.191 N 
ATOM      2  N   UNL     1      33.141 -19.556 -20.362  0.00  0.00    -0.179 NA
ATOM      3  N   UNL     1      36.250 -21.235 -19.918  0.00  0.00    -0.231 NA
ATOM      4  C   UNL     1      35.414 -18.705 -20.908  0.00  0.00    +0.143 C 
ATOM      5  C   UNL     1      34.930 -20.899 -19.953  0.00  0.00    +0.141 C 
ATOM      6  C   UNL     1      33.799 -21.588 -19.575  0.00  0.00    +0.161 C 
ATOM      7  C   UNL     1      36.726 -18.995 -20.891  0.00  0.00    +0.020 C 
ATOM      8  C   UNL     1      32.739 -20.717 -19.848  0.00  0.00    +0.106 C 
ATOM      9  C   UNL     1      37.074 -20.335 -20.357  0.00  0.00    +0.097 C 
ENDROOT
BRANCH   4  10
ATOM     10  C   UNL     1      34.972 -17.400 -21.433  0.00  0.00    +0.003 C 
ATOM     11  C   UNL     1      34.687 -17.253 -22.791  0.00  0.00    +0.013 C 
ATOM     12  C   UNL     1      34.269 -16.019 -23.288  0.00  0.00    +0.054 C 
ATOM     13  C   UNL     1      34.838 -16.311 -20.572  0.00  0.00    -0.002 C 
ATOM     14  C   UNL     1      34.136 -14.930 -22.426  0.00  0.00    +0.015 C 
ATOM     15  C   UNL     1      34.421 -15.075 -21.068  0.00  0.00    +0.001 C 
BRANCH  12  17
ATOM     16  O   UNL     1      32.756 -13.863 -24.488  0.00  0.00    -0.275 OA
ATOM     17  N   UNL     1      33.985 -15.871 -24.646  0.00  0.00    -0.257 N 
ATOM     18  C   UNL     1      34.541 -16.876 -25.603  0.00  0.00    +0.120 C 
ATOM     19  C   UNL     1      33.257 -14.752 -25.180  0.00  0.00    +0.230 C 
ATOM     20  C   UNL     1      33.130 -14.634 -26.681  0.00  0.00    +0.095 C 
ENDBRANCH  12  17
ENDBRANCH   4  10
BRANCH   6  22
ATOM     21  O   UNL     1      34.016 -23.919 -19.708  0.00  0.00    -0.290 OA
ATOM     22  C   UNL     1      33.764 -22.908 -19.022  0.00  0.00    +0.191 C 
BRANCH  22  24
ATOM     23  S   UNL     1      34.691 -23.140 -16.486  0.00  0.00    -0.084 S 
ATOM     24  C   UNL     1      33.418 -23.057 -17.588  0.00  0.00    +0.065 C 
ATOM     25  C   UNL     1      32.186 -23.133 -17.056  0.00  0.00    +0.010 C 
ATOM     26  C   UNL     1      32.269 -23.271 -15.641  0.00  0.00    +0.008 C 
ATOM     27  C   UNL     1      33.572 -23.290 -15.198  0.00  0.00    +0.036 C 
ENDBRANCH  22  24
ENDBRANCH   6  22
TORSDOF 4
ENDMDL
MODEL 4
REMARK VINA RESULT:     -11.2      3.215      8.891
REMARK  Name = 6450813
REMARK  4 active torsions:
REMARK  status: ('A' for Active; 'I' for Inactive)
REMARK    1  A    between atoms: C_4  and  C_10
REMARK    2  A    between atoms: C_6  and  C_22
REMARK    3  A    between atoms: C_12  and  N_17
REMARK    4  A    between atoms: C_22  and  C_24
REMARK                            x       y       z     vdW  Elec       q    Type
REMARK                         _______ _______ _______ _____ _____    ______ ____
ROOT
ATOM      1  N   UNL     1      34.643 -16.289 -22.715  0.00  0.00    -0.191 N 
ATOM      2  N   UNL     1      34.746 -15.681 -21.500  0.00  0.00    -0.179 NA
ATOM      3  N   UNL     1      33.982 -15.773 -24.977  0.00  0.00    -0.231 NA
ATOM      4  C   UNL     1      34.933 -17.624 -23.041  0.00  0.00    +0.143 C 
ATOM      5  C   UNL     1      34.175 -15.394 -23.682  0.00  0.00    +0.141 C 
ATOM      6  C   UNL     1      33.991 -14.188 -23.044  0.00  0.00    +0.161 C 
ATOM      7  C   UNL     1      34.756 -18.041 -24.307  0.00  0.00    +0.020 C 
ATOM      8  C   UNL     1      34.355 -14.426 -21.714  0.00  0.00    +0.106 C 
ATOM      9  C   UNL     1      34.256 -17.011 -25.250  0.00  0.00    +0.097 C 
ENDROOT
BRANCH   4  10
ATOM     10  C   UNL     1      35.440 -18.576 -22.035  0.00  0.00    +0.003 C 
ATOM     11  C   UNL     1      34.551 -19.402 -21.345  0.00  0.00    +0.013 C 
ATOM     12  C   UNL     1      35.030 -20.303 -20.394  0.00  0.00    +0.054 C 
ATOM     13  C   UNL     1      36.807 -18.652 -21.774  0.00  0.00    -0.002 C 
ATOM     14  C   UNL     1      36.398 -20.378 -20.132  0.00  0.00    +0.015 C 
ATOM     15  C   UNL     1      37.287 -19.553 -20.822  0.00  0.00    +0.001 C 
BRANCH  12  17
ATOM     16  O   UNL     1      35.750 -22.413 -18.548  0.00  0.00    -0.275 OA
ATOM     17  N   UNL     1      34.142 -21.128 -19.703  0.00  0.00    -0.257 N 
ATOM     18  C   UNL     1      32.675 -20.895 -19.871  0.00  0.00    +0.120 C 
ATOM     19  C   UNL     1      34.569 -22.134 -18.769  0.00  0.00    +0.230 C 
ATOM     20  C   UNL     1      33.511 -22.872 -17.982  0.00  0.00    +0.095 C 
ENDBRANCH  12  17
ENDBRANCH   4  10
BRANCH   6  22
ATOM     21  O   UNL     1      33.836 -12.656 -24.812  0.00  0.00    -0.290 OA
ATOM     22  C   UNL     1      33.522 -12.978 -23.649  0.00  0.00    +0.191 C 
BRANCH  22  24
ATOM     23  S   UNL     1      32.718 -10.439 -23.148  0.00  0.00    -0.084 S 
ATOM     24  C   UNL     1      32.634 -12.097 -22.853  0.00  0.00    +0.065 C 
ATOM     25  C   UNL     1      31.755 -12.474 -21.909  0.00  0.00    +0.010 C 
ATOM     26  C   UNL     1      31.090 -11.334 -21.374  0.00  0.00    +0.008 C 
ATOM     27  C   UNL     1      31.517 -10.163 -21.958  0.00  0.00    +0.036 C 
ENDBRANCH  22  24
ENDBRANCH   6  22
TORSDOF 4
ENDMDL
MODEL 5
REMARK VINA RESULT:     -11.0      5.034     11.393
REMARK  Name = 6450813
REMARK  4 active torsions:
REMARK  status: ('A' for Active; 'I' for Inactive)
REMARK    1  A    between atoms: C_4  and  C_10
REMARK    2  A    between atoms: C_6  and  C_22
REMARK    3  A    between atoms: C_12  and  N_17
REMARK    4  A    between atoms: C_22  and  C_24
REMARK                            x       y       z     vdW  Elec       q    Type
REMARK                         _______ _______ _______ _____ _____    ______ ____
ROOT
ATOM      1  N   UNL     1      34.466 -20.898 -19.671  0.00  0.00    -0.191 N 
ATOM      2  N   UNL     1      33.113 -20.795 -19.795  0.00  0.00    -0.179 NA
ATOM      3  N   UNL     1      36.475 -20.070 -20.719  0.00  0.00    -0.231 NA
ATOM      4  C   UNL     1      35.194 -21.661 -18.742  0.00  0.00    +0.143 C 
ATOM      5  C   UNL     1      35.116 -20.123 -20.636  0.00  0.00    +0.141 C 
ATOM      6  C   UNL     1      34.129 -19.511 -21.377  0.00  0.00    +0.161 C 
ATOM      7  C   UNL     1      36.536 -21.639 -18.788  0.00  0.00    +0.020 C 
ATOM      8  C   UNL     1      32.928 -19.960 -20.816  0.00  0.00    +0.106 C 
ATOM      9  C   UNL     1      37.122 -20.784 -19.851  0.00  0.00    +0.097 C 
ENDROOT
BRANCH   4  10
ATOM     10  C   UNL     1      34.523 -22.473 -17.711  0.00  0.00    +0.003 C 
ATOM     11  C   UNL     1      35.266 -23.038 -16.673  0.00  0.00    +0.013 C 
ATOM     12  C   UNL     1      34.632 -23.806 -15.697  0.00  0.00    +0.054 C 
ATOM     13  C   UNL     1      33.145 -22.677 -17.770  0.00  0.00    -0.002 C 
ATOM     14  C   UNL     1      33.253 -24.010 -15.758  0.00  0.00    +0.015 C 
ATOM     15  C   UNL     1      32.509 -23.446 -16.795  0.00  0.00    +0.001 C 
BRANCH  12  17
ATOM     16  O   UNL     1      36.031 -26.339 -15.788  0.00  0.00    -0.275 OA
ATOM     17  N   UNL     1      35.375 -24.372 -14.660  0.00  0.00    -0.257 N 
ATOM     18  C   UNL     1      35.522 -23.602 -13.387  0.00  0.00    +0.120 C 
ATOM     19  C   UNL     1      36.078 -25.620 -14.786  0.00  0.00    +0.230 C 
ATOM     20  C   UNL     1      36.957 -26.063 -13.640  0.00  0.00    +0.095 C 
ENDBRANCH  12  17
ENDBRANCH   4  10
BRANCH   6  22
ATOM     21  O   UNL     1      34.453 -19.028 -23.648  0.00  0.00    -0.290 OA
ATOM     22  C   UNL     1      34.334 -18.618 -22.477  0.00  0.00    +0.191 C 
BRANCH  22  24
ATOM     23  S   UNL     1      34.415 -16.115 -23.515  0.00  0.00    -0.084 S 
ATOM     24  C   UNL     1      34.399 -17.164 -22.194  0.00  0.00    +0.065 C 
ATOM     25  C   UNL     1      34.448 -16.575 -20.987  0.00  0.00    +0.010 C 
ATOM     26  C   UNL     1      34.503 -15.160 -21.132  0.00  0.00    +0.008 C 
ATOM     27  C   UNL     1      34.492 -14.773 -22.453  0.00  0.00    +0.036 C 
ENDBRANCH  22  24
ENDBRANCH   6  22
TORSDOF 4
ENDMDL
MODEL 6
REMARK VINA RESULT:     -10.8      1.829      2.856
REMARK  Name = 6450813
REMARK  4 active torsions:
REMARK  status: ('A' for Active; 'I' for Inactive)
REMARK    1  A    between atoms: C_4  and  C_10
REMARK    2  A    between atoms: C_6  and  C_22
REMARK    3  A    between atoms: C_12  and  N_17
REMARK    4  A    between atoms: C_22  and  C_24
REMARK                            x       y       z     vdW  Elec       q    Type
REMARK                         _______ _______ _______ _____ _____    ______ ____
ROOT
ATOM      1  N   UNL     1      34.048 -14.521 -24.144  0.00  0.00    -0.191 N 
ATOM      2  N   UNL     1      34.624 -14.488 -22.910  0.00  0.00    -0.179 NA
ATOM      3  N   UNL     1      33.459 -16.116 -25.855  0.00  0.00    -0.231 NA
ATOM      4  C   UNL     1      33.561 -13.441 -24.900  0.00  0.00    +0.143 C 
ATOM      5  C   UNL     1      33.989 -15.829 -24.632  0.00  0.00    +0.141 C 
ATOM      6  C   UNL     1      34.540 -16.636 -23.662  0.00  0.00    +0.161 C 
ATOM      7  C   UNL     1      33.031 -13.678 -26.112  0.00  0.00    +0.020 C 
ATOM      8  C   UNL     1      34.910 -15.760 -22.635  0.00  0.00    +0.106 C 
ATOM      9  C   UNL     1      33.019 -15.101 -26.532  0.00  0.00    +0.097 C 
ENDROOT
BRANCH   4  10
ATOM     10  C   UNL     1      33.605 -12.057 -24.393  0.00  0.00    +0.003 C 
ATOM     11  C   UNL     1      32.834 -11.693 -23.287  0.00  0.00    +0.013 C 
ATOM     12  C   UNL     1      32.875 -10.385 -22.808  0.00  0.00    +0.054 C 
ATOM     13  C   UNL     1      34.417 -11.111 -25.017  0.00  0.00    -0.002 C 
ATOM     14  C   UNL     1      33.687  -9.438 -23.433  0.00  0.00    +0.015 C 
ATOM     15  C   UNL     1      34.459  -9.801 -24.538  0.00  0.00    +0.001 C 
BRANCH  12  17
ATOM     16  O   UNL     1      31.798 -12.183 -20.811  0.00  0.00    -0.275 OA
ATOM     17  N   UNL     1      32.104 -10.020 -21.703  0.00  0.00    -0.257 N 
ATOM     18  C   UNL     1      31.833  -8.568 -21.473  0.00  0.00    +0.120 C 
ATOM     19  C   UNL     1      31.632 -10.964 -20.727  0.00  0.00    +0.230 C 
ATOM     20  C   UNL     1      30.922 -10.431 -19.504  0.00  0.00    +0.095 C 
ENDBRANCH  12  17
ENDBRANCH   4  10
BRANCH   6  22
ATOM     21  O   UNL     1      34.626 -18.676 -24.813  0.00  0.00    -0.290 OA
ATOM     22  C   UNL     1      34.687 -18.058 -23.732  0.00  0.00    +0.191 C 
BRANCH  22  24
ATOM     23  S   UNL     1      36.486 -18.791 -21.842  0.00  0.00    -0.084 S 
ATOM     24  C   UNL     1      34.921 -18.799 -22.470  0.00  0.00    +0.065 C 
ATOM     25  C   UNL     1      34.015 -19.489 -21.756  0.00  0.00    +0.010 C 
ATOM     26  C   UNL     1      34.627 -20.061 -20.605  0.00  0.00    +0.008 C 
ATOM     27  C   UNL     1      35.969 -19.761 -20.528  0.00  0.00    +0.036 C 
ENDBRANCH  22  24
ENDBRANCH   6  22
TORSDOF 4
ENDMDL
MODEL 7
REMARK VINA RESULT:     -10.8      3.467      6.227
REMARK  Name = 6450813
REMARK  4 active torsions:
REMARK  status: ('A' for Active; 'I' for Inactive)
REMARK    1  A    between atoms: C_4  and  C_10
REMARK    2  A    between atoms: C_6  and  C_22
REMARK    3  A    between atoms: C_12  and  N_17
REMARK    4  A    between atoms: C_22  and  C_24
REMARK                            x       y       z     vdW  Elec       q    Type
REMARK                         _______ _______ _______ _____ _____    ______ ____
ROOT
ATOM      1  N   UNL     1      34.464 -20.066 -20.560  0.00  0.00    -0.191 N 
ATOM      2  N   UNL     1      33.116 -20.072 -20.758  0.00  0.00    -0.179 NA
ATOM      3  N   UNL     1      36.170 -21.396 -19.493  0.00  0.00    -0.231 NA
ATOM      4  C   UNL     1      35.397 -19.108 -20.991  0.00  0.00    +0.143 C 
ATOM      5  C   UNL     1      34.865 -21.185 -19.824  0.00  0.00    +0.141 C 
ATOM      6  C   UNL     1      33.726 -21.913 -19.564  0.00  0.00    +0.161 C 
ATOM      7  C   UNL     1      36.695 -19.276 -20.686  0.00  0.00    +0.020 C 
ATOM      8  C   UNL     1      32.690 -21.183 -20.158  0.00  0.00    +0.106 C 
ATOM      9  C   UNL     1      37.010 -20.496 -19.901  0.00  0.00    +0.097 C 
ENDROOT
BRANCH   4  10
ATOM     10  C   UNL     1      34.991 -17.930 -21.780  0.00  0.00    +0.003 C 
ATOM     11  C   UNL     1      34.228 -16.922 -21.189  0.00  0.00    +0.013 C 
ATOM     12  C   UNL     1      33.845 -15.808 -21.935  0.00  0.00    +0.054 C 
ATOM     13  C   UNL     1      35.369 -17.823 -23.118  0.00  0.00    -0.002 C 
ATOM     14  C   UNL     1      34.223 -15.701 -23.273  0.00  0.00    +0.015 C 
ATOM     15  C   UNL     1      34.986 -16.709 -23.865  0.00  0.00    +0.001 C 
BRANCH  12  17
ATOM     16  O   UNL     1      33.264 -13.215 -23.084  0.00  0.00    -0.275 OA
ATOM     17  N   UNL     1      33.081 -14.800 -21.344  0.00  0.00    -0.257 N 
ATOM     18  C   UNL     1      32.449 -15.070 -20.017  0.00  0.00    +0.120 C 
ATOM     19  C   UNL     1      32.800 -13.546 -21.990  0.00  0.00    +0.230 C 
ATOM     20  C   UNL     1      31.851 -12.589 -21.307  0.00  0.00    +0.095 C 
ENDBRANCH  12  17
ENDBRANCH   4  10
BRANCH   6  22
ATOM     21  O   UNL     1      33.921 -24.240 -19.366  0.00  0.00    -0.290 OA
ATOM     22  C   UNL     1      33.660 -23.143 -18.835  0.00  0.00    +0.191 C 
BRANCH  22  24
ATOM     23  S   UNL     1      34.504 -23.187 -16.260  0.00  0.00    -0.084 S 
ATOM     24  C   UNL     1      33.271 -23.089 -17.406  0.00  0.00    +0.065 C 
ATOM     25  C   UNL     1      32.028 -22.968 -16.909  0.00  0.00    +0.010 C 
ATOM     26  C   UNL     1      32.066 -22.953 -15.486  0.00  0.00    +0.008 C 
ATOM     27  C   UNL     1      33.350 -23.064 -15.000  0.00  0.00    +0.036 C 
ENDBRANCH  22  24
ENDBRANCH   6  22
TORSDOF 4
ENDMDL
MODEL 8
REMARK VINA RESULT:     -10.7      3.550      8.970
REMARK  Name = 6450813
REMARK  4 active torsions:
REMARK  status: ('A' for Active; 'I' for Inactive)
REMARK    1  A    between atoms: C_4  and  C_10
REMARK    2  A    between atoms: C_6  and  C_22
REMARK    3  A    between atoms: C_12  and  N_17
REMARK    4  A    between atoms: C_22  and  C_24
REMARK                            x       y       z     vdW  Elec       q    Type
REMARK                         _______ _______ _______ _____ _____    ______ ____
ROOT
ATOM      1  N   UNL     1      33.043 -10.944 -23.453  0.00  0.00    -0.191 N 
ATOM      2  N   UNL     1      32.005 -11.533 -22.795  0.00  0.00    -0.179 NA
ATOM      3  N   UNL     1      34.222  -8.840 -23.514  0.00  0.00    -0.231 NA
ATOM      4  C   UNL     1      33.848 -11.493 -24.465  0.00  0.00    +0.143 C 
ATOM      5  C   UNL     1      33.243  -9.636 -22.999  0.00  0.00    +0.141 C 
ATOM      6  C   UNL     1      32.301  -9.412 -22.020  0.00  0.00    +0.161 C 
ATOM      7  C   UNL     1      34.825 -10.742 -25.001  0.00  0.00    +0.020 C 
ATOM      8  C   UNL     1      31.575 -10.606 -21.941  0.00  0.00    +0.106 C 
ATOM      9  C   UNL     1      34.949  -9.370 -24.448  0.00  0.00    +0.097 C 
ENDROOT
BRANCH   4  10
ATOM     10  C   UNL     1      33.658 -12.874 -24.944  0.00  0.00    +0.003 C 
ATOM     11  C   UNL     1      34.048 -13.951 -24.147  0.00  0.00    +0.013 C 
ATOM     12  C   UNL     1      33.868 -15.257 -24.599  0.00  0.00    +0.054 C 
ATOM     13  C   UNL     1      33.086 -13.106 -26.195  0.00  0.00    -0.002 C 
ATOM     14  C   UNL     1      33.297 -15.488 -25.851  0.00  0.00    +0.015 C 
ATOM     15  C   UNL     1      32.905 -14.413 -26.649  0.00  0.00    +0.001 C 
BRANCH  12  17
ATOM     16  O   UNL     1      34.658 -17.877 -25.543  0.00  0.00    -0.275 OA
ATOM     17  N   UNL     1      34.260 -16.334 -23.803  0.00  0.00    -0.257 N 
ATOM     18  C   UNL     1      34.337 -16.134 -22.323  0.00  0.00    +0.120 C 
ATOM     19  C   UNL     1      34.677 -17.600 -24.341  0.00  0.00    +0.230 C 
ATOM     20  C   UNL     1      35.207 -18.643 -23.385  0.00  0.00    +0.095 C 
ENDBRANCH  12  17
ENDBRANCH   4  10
BRANCH   6  22
ATOM     21  O   UNL     1      32.313  -8.158 -20.040  0.00  0.00    -0.290 OA
ATOM     22  C   UNL     1      32.135  -8.203 -21.273  0.00  0.00    +0.191 C 
BRANCH  22  24
ATOM     23  S   UNL     1      30.955  -7.173 -23.486  0.00  0.00    -0.084 S 
ATOM     24  C   UNL     1      31.742  -6.976 -22.007  0.00  0.00    +0.065 C 
ATOM     25  C   UNL     1      31.942  -5.704 -21.624  0.00  0.00    +0.010 C 
ATOM     26  C   UNL     1      31.421  -4.808 -22.600  0.00  0.00    +0.008 C 
ATOM     27  C   UNL     1      30.856  -5.473 -23.665  0.00  0.00    +0.036 C 
ENDBRANCH  22  24
ENDBRANCH   6  22
TORSDOF 4
ENDMDL
MODEL 9
REMARK VINA RESULT:     -10.5      3.252      8.861
REMARK  Name = 6450813
REMARK  4 active torsions:
REMARK  status: ('A' for Active; 'I' for Inactive)
REMARK    1  A    between atoms: C_4  and  C_10
REMARK    2  A    between atoms: C_6  and  C_22
REMARK    3  A    between atoms: C_12  and  N_17
REMARK    4  A    between atoms: C_22  and  C_24
REMARK                            x       y       z     vdW  Elec       q    Type
REMARK                         _______ _______ _______ _____ _____    ______ ____
ROOT
ATOM      1  N   UNL     1      33.588 -11.446 -23.886  0.00  0.00    -0.191 N 
ATOM      2  N   UNL     1      34.565 -11.270 -24.819  0.00  0.00    -0.179 NA
ATOM      3  N   UNL     1      32.323 -10.159 -22.286  0.00  0.00    -0.231 NA
ATOM      4  C   UNL     1      32.941 -12.641 -23.527  0.00  0.00    +0.143 C 
ATOM      5  C   UNL     1      33.270 -10.236 -23.263  0.00  0.00    +0.141 C 
ATOM      6  C   UNL     1      34.072  -9.276 -23.838  0.00  0.00    +0.161 C 
ATOM      7  C   UNL     1      32.001 -12.611 -22.567  0.00  0.00    +0.020 C 
ATOM      8  C   UNL     1      34.842  -9.968 -24.780  0.00  0.00    +0.106 C 
ATOM      9  C   UNL     1      31.743 -11.276 -21.972  0.00  0.00    +0.097 C 
ENDROOT
BRANCH   4  10
ATOM     10  C   UNL     1      33.257 -13.922 -24.184  0.00  0.00    +0.003 C 
ATOM     11  C   UNL     1      33.864 -14.949 -23.459  0.00  0.00    +0.013 C 
ATOM     12  C   UNL     1      34.162 -16.161 -24.081  0.00  0.00    +0.054 C 
ATOM     13  C   UNL     1      32.948 -14.110 -25.531  0.00  0.00    -0.002 C 
ATOM     14  C   UNL     1      33.854 -16.348 -25.428  0.00  0.00    +0.015 C 
ATOM     15  C   UNL     1      33.246 -15.322 -26.154  0.00  0.00    +0.001 C 
BRANCH  12  17
ATOM     16  O   UNL     1      34.971 -16.041 -21.303  0.00  0.00    -0.275 OA
ATOM     17  N   UNL     1      34.771 -17.187 -23.357  0.00  0.00    -0.257 N 
ATOM     18  C   UNL     1      34.995 -18.501 -24.035  0.00  0.00    +0.120 C 
ATOM     19  C   UNL     1      35.112 -17.073 -21.965  0.00  0.00    +0.230 C 
ATOM     20  C   UNL     1      35.642 -18.298 -21.257  0.00  0.00    +0.095 C 
ENDBRANCH  12  17
ENDBRANCH   4  10
BRANCH   6  22
ATOM     21  O   UNL     1      35.147  -7.265 -23.295  0.00  0.00    -0.290 OA
ATOM     22  C   UNL     1      34.086  -7.883 -23.508  0.00  0.00    +0.191 C 
BRANCH  22  24
ATOM     23  S   UNL     1      32.295  -6.626 -21.910  0.00  0.00    -0.084 S 
ATOM     24  C   UNL     1      32.788  -7.171 -23.427  0.00  0.00    +0.065 C 
ATOM     25  C   UNL     1      31.946  -6.905 -24.439  0.00  0.00    +0.010 C 
ATOM     26  C   UNL     1      30.804  -6.203 -23.958  0.00  0.00    +0.008 C 
ATOM     27  C   UNL     1      30.864  -5.985 -22.600  0.00  0.00    +0.036 C 
ENDBRANCH  22  24
ENDBRANCH   6  22
TORSDOF 4
ENDMDL
