MODEL 1
REMARK VINA RESULT:      -8.1      0.000      0.000
REMARK  Name = 98614
REMARK  0 active torsions:
REMARK  status: ('A' for Active; 'I' for Inactive)
REMARK                            x       y       z     vdW  Elec       q    Type
REMARK                         _______ _______ _______ _____ _____    ______ ____
ROOT
ATOM      1  S   UNL     1      34.408 -17.709 -25.273  0.00  0.00    -0.077 S 
ATOM      2  O   UNL     1      33.508 -13.537 -22.789  0.00  0.00    -0.274 OA
ATOM      3  N   UNL     1      33.558 -15.456 -26.450  0.00  0.00    -0.245 NA
ATOM      4  N   UNL     1      33.179 -13.538 -25.080  0.00  0.00    -0.283 N 
ATOM      5  C   UNL     1      34.514 -16.210 -21.550  0.00  0.00    +0.023 C 
ATOM      6  C   UNL     1      34.377 -16.449 -23.025  0.00  0.00    -0.028 C 
ATOM      7  C   UNL     1      35.327 -17.316 -20.858  0.00  0.00    +0.005 C 
ATOM      8  C   UNL     1      34.906 -18.711 -21.333  0.00  0.00    +0.006 C 
ATOM      9  C   UNL     1      35.132 -18.885 -22.842  0.00  0.00    +0.032 C 
ATOM     10  C   UNL     1      34.647 -17.683 -23.589  0.00  0.00    +0.001 C 
ATOM     11  C   UNL     1      33.942 -15.516 -24.018  0.00  0.00    +0.141 C 
ATOM     12  C   UNL     1      33.918 -16.073 -25.289  0.00  0.00    +0.097 C 
ATOM     13  C   UNL     1      33.535 -14.124 -23.866  0.00  0.00    +0.233 C 
ATOM     14  C   UNL     1      33.206 -14.218 -26.290  0.00  0.00    +0.219 C 
ATOM     15  H   UNL     1      32.893 -12.596 -25.080  0.00  0.00    +0.151 HD
ENDROOT
TORSDOF 0
ENDMDL
MODEL 2
REMARK VINA RESULT:      -8.1      1.896      2.665
REMARK  Name = 98614
REMARK  0 active torsions:
REMARK  status: ('A' for Active; 'I' for Inactive)
REMARK                            x       y       z     vdW  Elec       q    Type
REMARK                         _______ _______ _______ _____ _____    ______ ____
ROOT
ATOM      1  S   UNL     1      34.527 -14.961 -21.505  0.00  0.00    -0.077 S 
ATOM      2  O   UNL     1      33.710 -16.075 -26.245  0.00  0.00    -0.274 OA
ATOM      3  N   UNL     1      33.650 -13.175 -23.301  0.00  0.00    -0.245 NA
ATOM      4  N   UNL     1      33.312 -13.904 -25.548  0.00  0.00    -0.283 N 
ATOM      5  C   UNL     1      34.706 -18.054 -24.058  0.00  0.00    +0.023 C 
ATOM      6  C   UNL     1      34.519 -16.728 -23.381  0.00  0.00    -0.028 C 
ATOM      7  C   UNL     1      34.856 -19.203 -23.049  0.00  0.00    +0.005 C 
ATOM      8  C   UNL     1      35.803 -18.832 -21.902  0.00  0.00    +0.006 C 
ATOM      9  C   UNL     1      35.284 -17.623 -21.110  0.00  0.00    +0.032 C 
ATOM     10  C   UNL     1      34.807 -16.551 -22.039  0.00  0.00    +0.001 C 
ATOM     11  C   UNL     1      34.077 -15.505 -23.975  0.00  0.00    +0.141 C 
ATOM     12  C   UNL     1      34.030 -14.461 -23.061  0.00  0.00    +0.097 C 
ATOM     13  C   UNL     1      33.694 -15.231 -25.356  0.00  0.00    +0.233 C 
ATOM     14  C   UNL     1      33.309 -12.958 -24.533  0.00  0.00    +0.219 C 
ATOM     15  H   UNL     1      33.032 -13.624 -26.450  0.00  0.00    +0.151 HD
ENDROOT
TORSDOF 0
ENDMDL
MODEL 3
REMARK VINA RESULT:      -7.7      5.736      7.507
REMARK  Name = 98614
REMARK  0 active torsions:
REMARK  status: ('A' for Active; 'I' for Inactive)
REMARK                            x       y       z     vdW  Elec       q    Type
REMARK                         _______ _______ _______ _____ _____    ______ ____
ROOT
ATOM      1  S   UNL     1      32.749 -20.261 -20.713  0.00  0.00    -0.077 S 
ATOM      2  O   UNL     1      36.758 -22.000 -18.416  0.00  0.00    -0.274 OA
ATOM      3  N   UNL     1      32.640 -22.083 -18.751  0.00  0.00    -0.245 NA
ATOM      4  N   UNL     1      34.689 -22.802 -17.760  0.00  0.00    -0.283 N 
ATOM      5  C   UNL     1      36.745 -19.873 -20.689  0.00  0.00    +0.023 C 
ATOM      6  C   UNL     1      35.312 -20.238 -20.437  0.00  0.00    -0.028 C 
ATOM      7  C   UNL     1      36.878 -18.594 -21.529  0.00  0.00    +0.005 C 
ATOM      8  C   UNL     1      35.907 -18.590 -22.716  0.00  0.00    +0.006 C 
ATOM      9  C   UNL     1      34.445 -18.654 -22.250  0.00  0.00    +0.032 C 
ATOM     10  C   UNL     1      34.281 -19.683 -21.175  0.00  0.00    +0.001 C 
ATOM     11  C   UNL     1      34.810 -21.180 -19.485  0.00  0.00    +0.141 C 
ATOM     12  C   UNL     1      33.427 -21.285 -19.526  0.00  0.00    +0.097 C 
ATOM     13  C   UNL     1      35.537 -22.006 -18.528  0.00  0.00    +0.233 C 
ATOM     14  C   UNL     1      33.308 -22.803 -17.905  0.00  0.00    +0.219 C 
ATOM     15  H   UNL     1      35.088 -23.393 -17.081  0.00  0.00    +0.151 HD
ENDROOT
TORSDOF 0
ENDMDL
MODEL 4
REMARK VINA RESULT:      -7.7      1.208      1.468
REMARK  Name = 98614
REMARK  0 active torsions:
REMARK  status: ('A' for Active; 'I' for Inactive)
REMARK                            x       y       z     vdW  Elec       q    Type
REMARK                         _______ _______ _______ _____ _____    ______ ____
ROOT
ATOM      1  S   UNL     1      34.314 -16.783 -25.113  0.00  0.00    -0.077 S 
ATOM      2  O   UNL     1      33.844 -14.279 -20.884  0.00  0.00    -0.274 OA
ATOM      3  N   UNL     1      33.467 -14.243 -25.000  0.00  0.00    -0.245 NA
ATOM      4  N   UNL     1      33.306 -13.199 -22.859  0.00  0.00    -0.283 N 
ATOM      5  C   UNL     1      34.834 -17.218 -21.156  0.00  0.00    +0.023 C 
ATOM      6  C   UNL     1      34.550 -16.733 -22.547  0.00  0.00    -0.028 C 
ATOM      7  C   UNL     1      35.654 -18.518 -21.152  0.00  0.00    +0.005 C 
ATOM      8  C   UNL     1      35.126 -19.525 -22.180  0.00  0.00    +0.006 C 
ATOM      9  C   UNL     1      35.204 -18.966 -23.609  0.00  0.00    +0.032 C 
ATOM     10  C   UNL     1      34.708 -17.554 -23.649  0.00  0.00    +0.001 C 
ATOM     11  C   UNL     1      34.069 -15.443 -22.936  0.00  0.00    +0.141 C 
ATOM     12  C   UNL     1      33.902 -15.334 -24.309  0.00  0.00    +0.097 C 
ATOM     13  C   UNL     1      33.744 -14.288 -22.106  0.00  0.00    +0.233 C 
ATOM     14  C   UNL     1      33.190 -13.228 -24.242  0.00  0.00    +0.219 C 
ATOM     15  H   UNL     1      33.066 -12.369 -22.387  0.00  0.00    +0.151 HD
ENDROOT
TORSDOF 0
ENDMDL
MODEL 5
REMARK VINA RESULT:      -7.5      3.118      5.123
REMARK  Name = 98614
REMARK  0 active torsions:
REMARK  status: ('A' for Active; 'I' for Inactive)
REMARK                            x       y       z     vdW  Elec       q    Type
REMARK                         _______ _______ _______ _____ _____    ______ ____
ROOT
ATOM      1  S   UNL     1      34.556 -15.132 -21.670  0.00  0.00    -0.077 S 
ATOM      2  O   UNL     1      34.676 -19.166 -24.515  0.00  0.00    -0.274 OA
ATOM      3  N   UNL     1      35.372 -17.527 -20.785  0.00  0.00    -0.245 NA
ATOM      4  N   UNL     1      35.361 -19.361 -22.313  0.00  0.00    -0.283 N 
ATOM      5  C   UNL     1      33.772 -16.328 -25.421  0.00  0.00    +0.023 C 
ATOM      6  C   UNL     1      34.166 -16.210 -23.978  0.00  0.00    -0.028 C 
ATOM      7  C   UNL     1      33.639 -14.955 -26.099  0.00  0.00    +0.005 C 
ATOM      8  C   UNL     1      32.878 -13.958 -25.217  0.00  0.00    +0.006 C 
ATOM      9  C   UNL     1      33.603 -13.716 -23.885  0.00  0.00    +0.032 C 
ATOM     10  C   UNL     1      34.062 -15.012 -23.293  0.00  0.00    +0.001 C 
ATOM     11  C   UNL     1      34.646 -17.250 -23.121  0.00  0.00    +0.141 C 
ATOM     12  C   UNL     1      34.903 -16.796 -21.835  0.00  0.00    +0.097 C 
ATOM     13  C   UNL     1      34.881 -18.659 -23.417  0.00  0.00    +0.233 C 
ATOM     14  C   UNL     1      35.579 -18.774 -21.074  0.00  0.00    +0.219 C 
ATOM     15  H   UNL     1      35.554 -20.321 -22.416  0.00  0.00    +0.151 HD
ENDROOT
TORSDOF 0
ENDMDL
MODEL 6
REMARK VINA RESULT:      -7.5      2.576      4.318
REMARK  Name = 98614
REMARK  0 active torsions:
REMARK  status: ('A' for Active; 'I' for Inactive)
REMARK                            x       y       z     vdW  Elec       q    Type
REMARK                         _______ _______ _______ _____ _____    ______ ____
ROOT
ATOM      1  S   UNL     1      34.131 -16.384 -21.181  0.00  0.00    -0.077 S 
ATOM      2  O   UNL     1      33.894 -15.825 -26.081  0.00  0.00    -0.274 OA
ATOM      3  N   UNL     1      35.026 -18.224 -22.911  0.00  0.00    -0.245 NA
ATOM      4  N   UNL     1      34.826 -17.773 -25.246  0.00  0.00    -0.283 N 
ATOM      5  C   UNL     1      32.912 -13.762 -23.966  0.00  0.00    +0.023 C 
ATOM      6  C   UNL     1      33.470 -14.925 -23.200  0.00  0.00    -0.028 C 
ATOM      7  C   UNL     1      32.711 -12.526 -23.076  0.00  0.00    +0.005 C 
ATOM      8  C   UNL     1      32.065 -12.891 -21.735  0.00  0.00    +0.006 C 
ATOM      9  C   UNL     1      32.940 -13.866 -20.934  0.00  0.00    +0.032 C 
ATOM     10  C   UNL     1      33.454 -14.959 -21.817  0.00  0.00    +0.001 C 
ATOM     11  C   UNL     1      34.038 -16.125 -23.735  0.00  0.00    +0.141 C 
ATOM     12  C   UNL     1      34.445 -17.003 -22.741  0.00  0.00    +0.097 C 
ATOM     13  C   UNL     1      34.227 -16.519 -25.126  0.00  0.00    +0.233 C 
ATOM     14  C   UNL     1      35.189 -18.550 -24.155  0.00  0.00    +0.219 C 
ATOM     15  H   UNL     1      34.999 -18.124 -26.150  0.00  0.00    +0.151 HD
ENDROOT
TORSDOF 0
ENDMDL
MODEL 7
REMARK VINA RESULT:      -7.3      2.522      3.921
REMARK  Name = 98614
REMARK  0 active torsions:
REMARK  status: ('A' for Active; 'I' for Inactive)
REMARK                            x       y       z     vdW  Elec       q    Type
REMARK                         _______ _______ _______ _____ _____    ______ ____
ROOT
ATOM      1  S   UNL     1      32.901 -14.154 -24.723  0.00  0.00    -0.077 S 
ATOM      2  O   UNL     1      35.131 -17.512 -21.873  0.00  0.00    -0.274 OA
ATOM      3  N   UNL     1      34.276 -16.233 -25.708  0.00  0.00    -0.245 NA
ATOM      4  N   UNL     1      35.284 -17.753 -24.169  0.00  0.00    -0.283 N 
ATOM      5  C   UNL     1      33.490 -15.069 -20.859  0.00  0.00    +0.023 C 
ATOM      6  C   UNL     1      33.449 -15.018 -22.357  0.00  0.00    -0.028 C 
ATOM      7  C   UNL     1      32.445 -14.141 -20.219  0.00  0.00    +0.005 C 
ATOM      8  C   UNL     1      32.413 -12.768 -20.900  0.00  0.00    +0.006 C 
ATOM      9  C   UNL     1      32.041 -12.883 -22.385  0.00  0.00    +0.032 C 
ATOM     10  C   UNL     1      32.798 -14.001 -23.032  0.00  0.00    +0.001 C 
ATOM     11  C   UNL     1      34.063 -15.929 -23.274  0.00  0.00    +0.141 C 
ATOM     12  C   UNL     1      33.837 -15.577 -24.597  0.00  0.00    +0.097 C 
ATOM     13  C   UNL     1      34.862 -17.119 -23.002  0.00  0.00    +0.233 C 
ATOM     14  C   UNL     1      34.978 -17.289 -25.441  0.00  0.00    +0.219 C 
ATOM     15  H   UNL     1      35.827 -18.570 -24.088  0.00  0.00    +0.151 HD
ENDROOT
TORSDOF 0
ENDMDL
MODEL 8
REMARK VINA RESULT:      -7.3     11.132     12.237
REMARK  Name = 98614
REMARK  0 active torsions:
REMARK  status: ('A' for Active; 'I' for Inactive)
REMARK                            x       y       z     vdW  Elec       q    Type
REMARK                         _______ _______ _______ _____ _____    ______ ____
ROOT
ATOM      1  S   UNL     1      33.478 -23.172 -17.124  0.00  0.00    -0.077 S 
ATOM      2  O   UNL     1      34.376 -24.203 -12.379  0.00  0.00    -0.274 OA
ATOM      3  N   UNL     1      35.942 -23.591 -16.155  0.00  0.00    -0.245 NA
ATOM      4  N   UNL     1      36.175 -24.078 -13.830  0.00  0.00    -0.283 N 
ATOM      5  C   UNL     1      31.569 -23.717 -13.634  0.00  0.00    +0.023 C 
ATOM      6  C   UNL     1      32.563 -23.588 -14.750  0.00  0.00    -0.028 C 
ATOM      7  C   UNL     1      30.129 -23.850 -14.154  0.00  0.00    +0.005 C 
ATOM      8  C   UNL     1      29.836 -22.848 -15.277  0.00  0.00    +0.006 C 
ATOM      9  C   UNL     1      30.757 -23.070 -16.486  0.00  0.00    +0.032 C 
ATOM     10  C   UNL     1      32.171 -23.274 -16.039  0.00  0.00    +0.001 C 
ATOM     11  C   UNL     1      33.985 -23.724 -14.666  0.00  0.00    +0.141 C 
ATOM     12  C   UNL     1      34.606 -23.527 -15.891  0.00  0.00    +0.097 C 
ATOM     13  C   UNL     1      34.820 -24.023 -13.508  0.00  0.00    +0.233 C 
ATOM     14  C   UNL     1      36.662 -23.864 -15.112  0.00  0.00    +0.219 C 
ATOM     15  H   UNL     1      36.819 -24.279 -13.113  0.00  0.00    +0.151 HD
ENDROOT
TORSDOF 0
ENDMDL
MODEL 9
REMARK VINA RESULT:      -7.2      9.270     11.280
REMARK  Name = 98614
REMARK  0 active torsions:
REMARK  status: ('A' for Active; 'I' for Inactive)
REMARK                            x       y       z     vdW  Elec       q    Type
REMARK                         _______ _______ _______ _____ _____    ______ ____
ROOT
ATOM      1  S   UNL     1      37.195 -22.273 -16.088  0.00  0.00    -0.077 S 
ATOM      2  O   UNL     1      32.704 -24.057 -15.077  0.00  0.00    -0.274 OA
ATOM      3  N   UNL     1      36.529 -23.304 -13.705  0.00  0.00    -0.245 NA
ATOM      4  N   UNL     1      34.306 -24.119 -13.408  0.00  0.00    -0.283 N 
ATOM      5  C   UNL     1      33.612 -22.854 -17.801  0.00  0.00    +0.023 C 
ATOM      6  C   UNL     1      34.801 -22.791 -16.889  0.00  0.00    -0.028 C 
ATOM      7  C   UNL     1      33.996 -22.624 -19.271  0.00  0.00    +0.005 C 
ATOM      8  C   UNL     1      34.970 -21.450 -19.426  0.00  0.00    +0.006 C 
ATOM      9  C   UNL     1      36.281 -21.700 -18.667  0.00  0.00    +0.032 C 
ATOM     10  C   UNL     1      36.003 -22.242 -17.300  0.00  0.00    +0.001 C 
ATOM     11  C   UNL     1      34.875 -23.223 -15.528  0.00  0.00    +0.141 C 
ATOM     12  C   UNL     1      36.128 -23.004 -14.972  0.00  0.00    +0.097 C 
ATOM     13  C   UNL     1      33.845 -23.830 -14.691  0.00  0.00    +0.233 C 
ATOM     14  C   UNL     1      35.599 -23.848 -12.984  0.00  0.00    +0.219 C 
ATOM     15  H   UNL     1      33.682 -24.537 -12.770  0.00  0.00    +0.151 HD
ENDROOT
TORSDOF 0
ENDMDL
