MODEL 1
REMARK VINA RESULT:     -12.2      0.000      0.000
REMARK  Name = 446560
REMARK  8 active torsions:
REMARK  status: ('A' for Active; 'I' for Inactive)
REMARK    1  A    between atoms: C_1  and  C_19
REMARK    2  A    between atoms: C_2  and  C_9
REMARK    3  A    between atoms: N_8  and  CA_11
REMARK    4  A    between atoms: CA_11  and  CB_12
REMARK    5  A    between atoms: CA_11  and  C_16
REMARK    6  A    between atoms: C_16  and  O_17
REMARK    7  A    between atoms: C_19  and  C_20
REMARK    8  A    between atoms: C_20  and  C_26
REMARK                            x       y       z     vdW  Elec       q    Type
REMARK                         _______ _______ _______ _____ _____    ______ ____
ROOT
ATOM      1  C   UNL     1      35.433 -19.880 -20.592  0.00  0.00    -0.022 C 
ATOM      2  C   UNL     1      34.182 -21.912 -19.206  0.00  0.00    +0.053 C 
ATOM      3  C   UNL     1      36.193 -20.820 -19.895  0.00  0.00    -0.004 C 
ATOM      4  C   UNL     1      34.040 -19.968 -20.587  0.00  0.00    -0.004 C 
ATOM      5  C   UNL     1      35.561 -21.847 -19.195  0.00  0.00    +0.004 C 
ATOM      6  C   UNL     1      33.409 -20.995 -19.886  0.00  0.00    +0.004 C 
ENDROOT
BRANCH   2   9
ATOM      7  O   UNL     1      33.706 -24.172 -18.800  0.00  0.00    -0.270 OA
ATOM      8  N   UNL     1      32.707 -22.614 -17.402  0.00  0.00    -0.293 N 
ATOM      9  C   ACE A   0      33.509 -23.007 -18.462  0.00  0.00    +0.246 C 
ATOM     10  H   UNL     1      32.613 -21.652 -17.212  0.00  0.00    +0.150 HD
BRANCH   8  11
ATOM     11  CA  UNL     1      32.006 -23.562 -16.568  0.00  0.00    +0.171 C 
BRANCH  11  12
ATOM     12  CB  UNL     1      32.632 -23.596 -15.157  0.00  0.00    +0.029 C 
ATOM     13  CG1 UNL     1      31.856 -22.732 -14.158  0.00  0.00    +0.002 C 
ATOM     14  CG2 UNL     1      34.115 -23.215 -15.145  0.00  0.00    +0.002 C 
ENDBRANCH  11  12
BRANCH  11  16
ATOM     15  OXT UNL     1      30.004 -22.263 -17.019  0.00  0.00    -0.248 OA
ATOM     16  C   UNL     1      30.504 -23.293 -16.584  0.00  0.00    +0.332 C 
BRANCH  16  17
ATOM     17  O   UNL     1      29.749 -24.272 -16.026  0.00  0.00    -0.479 OA
ATOM     18  H   UNL     1      28.914 -24.486 -16.394  0.00  0.00    +0.295 HD
ENDBRANCH  16  17
ENDBRANCH  11  16
ENDBRANCH   8  11
ENDBRANCH   2   9
BRANCH   1  19
ATOM     19  C   UNL     1      36.109 -18.782 -21.340  0.00  0.00    +0.031 C 
BRANCH  19  20
ATOM     20  C   UNL     1      35.479 -18.471 -22.713  0.00  0.00    +0.033 C 
BRANCH  20  26
ATOM     21  O   UNL     1      34.592 -18.003 -25.730  0.00  0.00    -0.209 OA
ATOM     22  N   UNL     1      34.271 -15.036 -22.258  0.00  0.00    -0.300 N 
ATOM     23  N   UNL     1      33.489 -14.329 -24.426  0.00  0.00    -0.264 N 
ATOM     24  N   UNL     1      33.686 -15.930 -26.197  0.00  0.00    -0.302 NA
ATOM     25  N   UNL     1      32.778 -13.784 -26.554  0.00  0.00    -0.320 N 
ATOM     26  C   UNL     1      34.922 -17.080 -22.813  0.00  0.00    +0.007 C 
ATOM     27  C   UNL     1      34.418 -16.471 -23.967  0.00  0.00    +0.120 C 
ATOM     28  C   UNL     1      34.028 -15.217 -23.581  0.00  0.00    +0.115 C 
ATOM     29  C   UNL     1      34.830 -16.197 -21.770  0.00  0.00    +0.059 C 
ATOM     30  C   UNL     1      34.252 -16.888 -25.351  0.00  0.00    +0.209 C 
ATOM     31  C   UNL     1      33.336 -14.742 -25.744  0.00  0.00    +0.248 C 
ATOM     32  H   UNL     1      34.081 -14.221 -21.739  0.00  0.00    +0.153 HD
ATOM     33  H   UNL     1      33.215 -13.431 -24.129  0.00  0.00    +0.157 HD
ATOM     34  H   UNL     1      32.530 -12.908 -26.181  0.00  0.00    +0.146 HD
ATOM     35  H   UNL     1      32.625 -13.975 -27.508  0.00  0.00    +0.146 HD
ENDBRANCH  20  26
ENDBRANCH  19  20
ENDBRANCH   1  19
TORSDOF 8
ENDMDL
MODEL 2
REMARK VINA RESULT:     -12.0      1.181      1.574
REMARK  Name = 446560
REMARK  8 active torsions:
REMARK  status: ('A' for Active; 'I' for Inactive)
REMARK    1  A    between atoms: C_1  and  C_19
REMARK    2  A    between atoms: C_2  and  C_9
REMARK    3  A    between atoms: N_8  and  CA_11
REMARK    4  A    between atoms: CA_11  and  CB_12
REMARK    5  A    between atoms: CA_11  and  C_16
REMARK    6  A    between atoms: C_16  and  O_17
REMARK    7  A    between atoms: C_19  and  C_20
REMARK    8  A    between atoms: C_20  and  C_26
REMARK                            x       y       z     vdW  Elec       q    Type
REMARK                         _______ _______ _______ _____ _____    ______ ____
ROOT
ATOM      1  C   UNL     1      35.801 -19.724 -20.691  0.00  0.00    -0.022 C 
ATOM      2  C   UNL     1      34.787 -21.767 -19.138  0.00  0.00    +0.053 C 
ATOM      3  C   UNL     1      36.662 -20.512 -19.925  0.00  0.00    -0.004 C 
ATOM      4  C   UNL     1      34.428 -19.969 -20.670  0.00  0.00    -0.004 C 
ATOM      5  C   UNL     1      36.149 -21.545 -19.141  0.00  0.00    +0.004 C 
ATOM      6  C   UNL     1      33.916 -21.002 -19.884  0.00  0.00    +0.004 C 
ENDROOT
BRANCH   2   9
ATOM      7  O   UNL     1      33.625 -23.782 -18.846  0.00  0.00    -0.270 OA
ATOM      8  N   UNL     1      34.498 -22.781 -16.945  0.00  0.00    -0.293 N 
ATOM      9  C   ACE A   0      34.241 -22.868 -18.303  0.00  0.00    +0.246 C 
ATOM     10  H   UNL     1      35.002 -22.006 -16.607  0.00  0.00    +0.150 HD
BRANCH   8  11
ATOM     11  CA  UNL     1      34.054 -23.787 -16.007  0.00  0.00    +0.171 C 
BRANCH  11  12
ATOM     12  CB  UNL     1      35.156 -24.063 -14.961  0.00  0.00    +0.029 C 
ATOM     13  CG1 UNL     1      36.261 -23.002 -14.990  0.00  0.00    +0.002 C 
ATOM     14  CG2 UNL     1      35.763 -25.464 -15.079  0.00  0.00    +0.002 C 
ENDBRANCH  11  12
BRANCH  11  16
ATOM     15  OXT UNL     1      31.633 -23.602 -15.984  0.00  0.00    -0.248 OA
ATOM     16  C   UNL     1      32.700 -23.414 -15.412  0.00  0.00    +0.332 C 
BRANCH  16  17
ATOM     17  O   UNL     1      32.763 -22.802 -14.203  0.00  0.00    -0.479 OA
ATOM     18  H   UNL     1      32.705 -23.310 -13.418  0.00  0.00    +0.295 HD
ENDBRANCH  16  17
ENDBRANCH  11  16
ENDBRANCH   8  11
ENDBRANCH   2   9
BRANCH   1  19
ATOM     19  C   UNL     1      36.350 -18.620 -21.529  0.00  0.00    +0.031 C 
BRANCH  19  20
ATOM     20  C   UNL     1      35.578 -18.381 -22.843  0.00  0.00    +0.033 C 
BRANCH  20  26
ATOM     21  O   UNL     1      34.539 -17.975 -25.820  0.00  0.00    -0.209 OA
ATOM     22  N   UNL     1      34.190 -15.022 -22.340  0.00  0.00    -0.300 N 
ATOM     23  N   UNL     1      33.277 -14.369 -24.473  0.00  0.00    -0.264 N 
ATOM     24  N   UNL     1      33.493 -15.961 -26.250  0.00  0.00    -0.302 NA
ATOM     25  N   UNL     1      32.447 -13.873 -26.570  0.00  0.00    -0.320 N 
ATOM     26  C   UNL     1      34.937 -17.025 -22.920  0.00  0.00    +0.007 C 
ATOM     27  C   UNL     1      34.349 -16.451 -24.053  0.00  0.00    +0.120 C 
ATOM     28  C   UNL     1      33.903 -15.221 -23.651  0.00  0.00    +0.115 C 
ATOM     29  C   UNL     1      34.836 -16.146 -21.875  0.00  0.00    +0.059 C 
ATOM     30  C   UNL     1      34.150 -16.881 -25.429  0.00  0.00    +0.209 C 
ATOM     31  C   UNL     1      33.094 -14.794 -25.784  0.00  0.00    +0.248 C 
ATOM     32  H   UNL     1      33.975 -14.218 -21.814  0.00  0.00    +0.153 HD
ATOM     33  H   UNL     1      32.964 -13.487 -24.166  0.00  0.00    +0.157 HD
ATOM     34  H   UNL     1      32.163 -13.012 -26.187  0.00  0.00    +0.146 HD
ATOM     35  H   UNL     1      32.265 -14.075 -27.516  0.00  0.00    +0.146 HD
ENDBRANCH  20  26
ENDBRANCH  19  20
ENDBRANCH   1  19
TORSDOF 8
ENDMDL
MODEL 3
REMARK VINA RESULT:     -11.9      3.261     10.397
REMARK  Name = 446560
REMARK  8 active torsions:
REMARK  status: ('A' for Active; 'I' for Inactive)
REMARK    1  A    between atoms: C_1  and  C_19
REMARK    2  A    between atoms: C_2  and  C_9
REMARK    3  A    between atoms: N_8  and  CA_11
REMARK    4  A    between atoms: CA_11  and  CB_12
REMARK    5  A    between atoms: CA_11  and  C_16
REMARK    6  A    between atoms: C_16  and  O_17
REMARK    7  A    between atoms: C_19  and  C_20
REMARK    8  A    between atoms: C_20  and  C_26
REMARK                            x       y       z     vdW  Elec       q    Type
REMARK                         _______ _______ _______ _____ _____    ______ ____
ROOT
ATOM      1  C   UNL     1      35.003 -17.633 -23.543  0.00  0.00    -0.022 C 
ATOM      2  C   UNL     1      34.101 -15.162 -24.377  0.00  0.00    +0.053 C 
ATOM      3  C   UNL     1      34.493 -17.475 -24.832  0.00  0.00    -0.004 C 
ATOM      4  C   UNL     1      35.056 -16.542 -22.675  0.00  0.00    -0.004 C 
ATOM      5  C   UNL     1      34.037 -16.226 -25.253  0.00  0.00    +0.004 C 
ATOM      6  C   UNL     1      34.600 -15.293 -23.097  0.00  0.00    +0.004 C 
ENDROOT
BRANCH   2   9
ATOM      7  O   UNL     1      32.900 -13.759 -25.819  0.00  0.00    -0.270 OA
ATOM      8  N   UNL     1      34.009 -12.753 -24.048  0.00  0.00    -0.293 N 
ATOM      9  C   ACE A   0      33.617 -13.832 -24.825  0.00  0.00    +0.246 C 
ATOM     10  H   UNL     1      34.587 -12.916 -23.269  0.00  0.00    +0.150 HD
BRANCH   8  11
ATOM     11  CA  UNL     1      33.599 -11.399 -24.341  0.00  0.00    +0.171 C 
BRANCH  11  12
ATOM     12  CB  UNL     1      32.919 -10.769 -23.106  0.00  0.00    +0.029 C 
ATOM     13  CG1 UNL     1      32.005 -11.761 -22.379  0.00  0.00    +0.002 C 
ATOM     14  CG2 UNL     1      32.154  -9.482 -23.428  0.00  0.00    +0.002 C 
ENDBRANCH  11  12
BRANCH  11  16
ATOM     15  OXT UNL     1      35.125 -10.639 -26.071  0.00  0.00    -0.248 OA
ATOM     16  C   UNL     1      34.764 -10.588 -24.901  0.00  0.00    +0.332 C 
BRANCH  16  17
ATOM     17  O   UNL     1      35.417  -9.831 -23.985  0.00  0.00    -0.479 OA
ATOM     18  H   UNL     1      35.639 -10.195 -23.151  0.00  0.00    +0.295 HD
ENDBRANCH  16  17
ENDBRANCH  11  16
ENDBRANCH   8  11
ENDBRANCH   2   9
BRANCH   1  19
ATOM     19  C   UNL     1      35.489 -18.969 -23.093  0.00  0.00    +0.031 C 
BRANCH  19  20
ATOM     20  C   UNL     1      35.633 -19.107 -21.564  0.00  0.00    +0.033 C 
BRANCH  20  26
ATOM     21  O   UNL     1      36.767 -21.289 -19.549  0.00  0.00    -0.209 OA
ATOM     22  N   UNL     1      32.374 -20.303 -20.377  0.00  0.00    -0.300 N 
ATOM     23  N   UNL     1      32.860 -22.031 -18.769  0.00  0.00    -0.264 N 
ATOM     24  N   UNL     1      35.178 -22.496 -18.383  0.00  0.00    -0.302 NA
ATOM     25  N   UNL     1      33.470 -23.663 -17.254  0.00  0.00    -0.320 N 
ATOM     26  C   UNL     1      34.458 -19.777 -20.911  0.00  0.00    +0.007 C 
ATOM     27  C   UNL     1      34.514 -20.799 -19.957  0.00  0.00    +0.120 C 
ATOM     28  C   UNL     1      33.210 -21.091 -19.656  0.00  0.00    +0.115 C 
ATOM     29  C   UNL     1      33.146 -19.478 -21.165  0.00  0.00    +0.059 C 
ATOM     30  C   UNL     1      35.590 -21.526 -19.301  0.00  0.00    +0.209 C 
ATOM     31  C   UNL     1      33.900 -22.716 -18.150  0.00  0.00    +0.248 C 
ATOM     32  H   UNL     1      31.389 -20.317 -20.344  0.00  0.00    +0.153 HD
ATOM     33  H   UNL     1      31.917 -22.228 -18.566  0.00  0.00    +0.157 HD
ATOM     34  H   UNL     1      32.507 -23.799 -17.105  0.00  0.00    +0.146 HD
ATOM     35  H   UNL     1      34.126 -24.205 -16.758  0.00  0.00    +0.146 HD
ENDBRANCH  20  26
ENDBRANCH  19  20
ENDBRANCH   1  19
TORSDOF 8
ENDMDL
MODEL 4
REMARK VINA RESULT:     -11.7      1.166      2.082
REMARK  Name = 446560
REMARK  8 active torsions:
REMARK  status: ('A' for Active; 'I' for Inactive)
REMARK    1  A    between atoms: C_1  and  C_19
REMARK    2  A    between atoms: C_2  and  C_9
REMARK    3  A    between atoms: N_8  and  CA_11
REMARK    4  A    between atoms: CA_11  and  CB_12
REMARK    5  A    between atoms: CA_11  and  C_16
REMARK    6  A    between atoms: C_16  and  O_17
REMARK    7  A    between atoms: C_19  and  C_20
REMARK    8  A    between atoms: C_20  and  C_26
REMARK                            x       y       z     vdW  Elec       q    Type
REMARK                         _______ _______ _______ _____ _____    ______ ____
ROOT
ATOM      1  C   UNL     1      35.436 -19.987 -20.570  0.00  0.00    -0.022 C 
ATOM      2  C   UNL     1      34.183 -21.964 -19.109  0.00  0.00    +0.053 C 
ATOM      3  C   UNL     1      34.044 -20.075 -20.564  0.00  0.00    -0.004 C 
ATOM      4  C   UNL     1      36.195 -20.901 -19.837  0.00  0.00    -0.004 C 
ATOM      5  C   UNL     1      33.410 -21.073 -19.826  0.00  0.00    +0.004 C 
ATOM      6  C   UNL     1      35.561 -21.900 -19.098  0.00  0.00    +0.004 C 
ENDROOT
BRANCH   2   9
ATOM      7  O   UNL     1      33.716 -24.205 -18.603  0.00  0.00    -0.270 OA
ATOM      8  N   UNL     1      32.697 -22.591 -17.287  0.00  0.00    -0.293 N 
ATOM      9  C   ACE A   0      33.509 -23.028 -18.321  0.00  0.00    +0.246 C 
ATOM     10  H   UNL     1      32.596 -21.623 -17.141  0.00  0.00    +0.150 HD
BRANCH   8  11
ATOM     11  CA  UNL     1      31.994 -23.505 -16.416  0.00  0.00    +0.171 C 
BRANCH  11  12
ATOM     12  CB  UNL     1      32.558 -23.414 -14.981  0.00  0.00    +0.029 C 
ATOM     13  CG1 UNL     1      34.074 -23.193 -14.969  0.00  0.00    +0.002 C 
ATOM     14  CG2 UNL     1      32.193 -24.620 -14.111  0.00  0.00    +0.002 C 
ENDBRANCH  11  12
BRANCH  11  16
ATOM     15  OXT UNL     1      29.661 -24.112 -16.117  0.00  0.00    -0.248 OA
ATOM     16  C   UNL     1      30.485 -23.296 -16.513  0.00  0.00    +0.332 C 
BRANCH  16  17
ATOM     17  O   UNL     1      30.113 -22.146 -17.127  0.00  0.00    -0.479 OA
ATOM     18  H   UNL     1      30.728 -21.445 -17.219  0.00  0.00    +0.295 HD
ENDBRANCH  16  17
ENDBRANCH  11  16
ENDBRANCH   8  11
ENDBRANCH   2   9
BRANCH   1  19
ATOM     19  C   UNL     1      36.112 -18.919 -21.360  0.00  0.00    +0.031 C 
BRANCH  19  20
ATOM     20  C   UNL     1      35.245 -17.666 -21.600  0.00  0.00    +0.033 C 
BRANCH  20  26
ATOM     21  O   UNL     1      34.345 -14.640 -21.971  0.00  0.00    -0.209 OA
ATOM     22  N   UNL     1      34.434 -17.913 -25.170  0.00  0.00    -0.300 N 
ATOM     23  N   UNL     1      33.690 -15.715 -25.822  0.00  0.00    -0.264 N 
ATOM     24  N   UNL     1      33.668 -14.050 -24.100  0.00  0.00    -0.302 NA
ATOM     25  N   UNL     1      32.999 -13.566 -26.307  0.00  0.00    -0.320 N 
ATOM     26  C   UNL     1      34.844 -17.484 -23.036  0.00  0.00    +0.007 C 
ATOM     27  C   UNL     1      34.385 -16.299 -23.622  0.00  0.00    +0.120 C 
ATOM     28  C   UNL     1      34.145 -16.608 -24.934  0.00  0.00    +0.115 C 
ATOM     29  C   UNL     1      34.873 -18.468 -23.988  0.00  0.00    +0.059 C 
ATOM     30  C   UNL     1      34.142 -14.948 -23.139  0.00  0.00    +0.209 C 
ATOM     31  C   UNL     1      33.464 -14.428 -25.346  0.00  0.00    +0.248 C 
ATOM     32  H   UNL     1      34.347 -18.380 -26.032  0.00  0.00    +0.153 HD
ATOM     33  H   UNL     1      33.523 -15.957 -26.762  0.00  0.00    +0.157 HD
ATOM     34  H   UNL     1      32.858 -13.884 -27.227  0.00  0.00    +0.146 HD
ATOM     35  H   UNL     1      32.807 -12.628 -26.075  0.00  0.00    +0.146 HD
ENDBRANCH  20  26
ENDBRANCH  19  20
ENDBRANCH   1  19
TORSDOF 8
ENDMDL
MODEL 5
REMARK VINA RESULT:     -11.6      1.595      2.256
REMARK  Name = 446560
REMARK  8 active torsions:
REMARK  status: ('A' for Active; 'I' for Inactive)
REMARK    1  A    between atoms: C_1  and  C_19
REMARK    2  A    between atoms: C_2  and  C_9
REMARK    3  A    between atoms: N_8  and  CA_11
REMARK    4  A    between atoms: CA_11  and  CB_12
REMARK    5  A    between atoms: CA_11  and  C_16
REMARK    6  A    between atoms: C_16  and  O_17
REMARK    7  A    between atoms: C_19  and  C_20
REMARK    8  A    between atoms: C_20  and  C_26
REMARK                            x       y       z     vdW  Elec       q    Type
REMARK                         _______ _______ _______ _____ _____    ______ ____
ROOT
ATOM      1  C   UNL     1      35.761 -19.742 -20.732  0.00  0.00    -0.022 C 
ATOM      2  C   UNL     1      34.752 -21.771 -19.157  0.00  0.00    +0.053 C 
ATOM      3  C   UNL     1      36.626 -20.542 -19.985  0.00  0.00    -0.004 C 
ATOM      4  C   UNL     1      34.385 -19.968 -20.681  0.00  0.00    -0.004 C 
ATOM      5  C   UNL     1      36.117 -21.568 -19.189  0.00  0.00    +0.004 C 
ATOM      6  C   UNL     1      33.875 -20.993 -19.885  0.00  0.00    +0.004 C 
ENDROOT
BRANCH   2   9
ATOM      7  O   UNL     1      33.601 -23.789 -18.844  0.00  0.00    -0.270 OA
ATOM      8  N   UNL     1      34.457 -22.757 -16.952  0.00  0.00    -0.293 N 
ATOM      9  C   ACE A   0      34.208 -22.864 -18.311  0.00  0.00    +0.246 C 
ATOM     10  H   UNL     1      34.954 -21.974 -16.622  0.00  0.00    +0.150 HD
BRANCH   8  11
ATOM     11  CA  UNL     1      34.014 -23.753 -16.003  0.00  0.00    +0.171 C 
BRANCH  11  12
ATOM     12  CB  UNL     1      35.117 -24.018 -14.955  0.00  0.00    +0.029 C 
ATOM     13  CG1 UNL     1      36.194 -22.928 -14.961  0.00  0.00    +0.002 C 
ATOM     14  CG2 UNL     1      35.761 -25.400 -15.091  0.00  0.00    +0.002 C 
ENDBRANCH  11  12
BRANCH  11  16
ATOM     15  OXT UNL     1      31.600 -23.488 -16.016  0.00  0.00    -0.248 OA
ATOM     16  C   UNL     1      32.660 -23.375 -15.411  0.00  0.00    +0.332 C 
BRANCH  16  17
ATOM     17  O   UNL     1      32.717 -22.848 -14.163  0.00  0.00    -0.479 OA
ATOM     18  H   UNL     1      31.931 -22.558 -13.742  0.00  0.00    +0.295 HD
ENDBRANCH  16  17
ENDBRANCH  11  16
ENDBRANCH   8  11
ENDBRANCH   2   9
BRANCH   1  19
ATOM     19  C   UNL     1      36.307 -18.646 -21.581  0.00  0.00    +0.031 C 
BRANCH  19  20
ATOM     20  C   UNL     1      35.336 -17.466 -21.792  0.00  0.00    +0.033 C 
BRANCH  20  26
ATOM     21  O   UNL     1      34.418 -14.451 -22.213  0.00  0.00    -0.209 OA
ATOM     22  N   UNL     1      34.346 -17.824 -25.307  0.00  0.00    -0.300 N 
ATOM     23  N   UNL     1      33.570 -15.647 -25.990  0.00  0.00    -0.264 N 
ATOM     24  N   UNL     1      33.635 -13.928 -24.322  0.00  0.00    -0.302 NA
ATOM     25  N   UNL     1      32.856 -13.513 -26.508  0.00  0.00    -0.320 N 
ATOM     26  C   UNL     1      34.863 -17.328 -23.211  0.00  0.00    +0.007 C 
ATOM     27  C   UNL     1      34.375 -16.162 -23.810  0.00  0.00    +0.120 C 
ATOM     28  C   UNL     1      34.070 -16.512 -25.098  0.00  0.00    +0.115 C 
ATOM     29  C   UNL     1      34.844 -18.342 -24.131  0.00  0.00    +0.059 C 
ATOM     30  C   UNL     1      34.157 -14.796 -23.359  0.00  0.00    +0.209 C 
ATOM     31  C   UNL     1      33.369 -14.345 -25.544  0.00  0.00    +0.248 C 
ATOM     32  H   UNL     1      34.216 -18.318 -26.149  0.00  0.00    +0.153 HD
ATOM     33  H   UNL     1      33.357 -15.917 -26.912  0.00  0.00    +0.157 HD
ATOM     34  H   UNL     1      32.670 -13.859 -27.409  0.00  0.00    +0.146 HD
ATOM     35  H   UNL     1      32.677 -12.568 -26.296  0.00  0.00    +0.146 HD
ENDBRANCH  20  26
ENDBRANCH  19  20
ENDBRANCH   1  19
TORSDOF 8
ENDMDL
MODEL 6
REMARK VINA RESULT:     -11.5      1.840      2.739
REMARK  Name = 446560
REMARK  8 active torsions:
REMARK  status: ('A' for Active; 'I' for Inactive)
REMARK    1  A    between atoms: C_1  and  C_19
REMARK    2  A    between atoms: C_2  and  C_9
REMARK    3  A    between atoms: N_8  and  CA_11
REMARK    4  A    between atoms: CA_11  and  CB_12
REMARK    5  A    between atoms: CA_11  and  C_16
REMARK    6  A    between atoms: C_16  and  O_17
REMARK    7  A    between atoms: C_19  and  C_20
REMARK    8  A    between atoms: C_20  and  C_26
REMARK                            x       y       z     vdW  Elec       q    Type
REMARK                         _______ _______ _______ _____ _____    ______ ____
ROOT
ATOM      1  C   UNL     1      34.510 -19.859 -21.000  0.00  0.00    -0.022 C 
ATOM      2  C   UNL     1      33.768 -21.740 -19.123  0.00  0.00    +0.053 C 
ATOM      3  C   UNL     1      33.169 -19.997 -20.643  0.00  0.00    -0.004 C 
ATOM      4  C   UNL     1      35.477 -20.673 -20.408  0.00  0.00    -0.004 C 
ATOM      5  C   UNL     1      32.794 -20.947 -19.694  0.00  0.00    +0.004 C 
ATOM      6  C   UNL     1      35.101 -21.624 -19.460  0.00  0.00    +0.004 C 
ENDROOT
BRANCH   2   9
ATOM      7  O   UNL     1      34.124 -23.692 -17.874  0.00  0.00    -0.270 OA
ATOM      8  N   UNL     1      32.154 -22.532 -17.482  0.00  0.00    -0.293 N 
ATOM      9  C   ACE A   0      33.370 -22.751 -18.111  0.00  0.00    +0.246 C 
ATOM     10  H   UNL     1      31.621 -21.746 -17.744  0.00  0.00    +0.150 HD
BRANCH   8  11
ATOM     11  CA  UNL     1      31.642 -23.413 -16.459  0.00  0.00    +0.171 C 
BRANCH  11  12
ATOM     12  CB  UNL     1      32.261 -23.056 -15.090  0.00  0.00    +0.029 C 
ATOM     13  CG1 UNL     1      33.194 -24.156 -14.572  0.00  0.00    +0.002 C 
ATOM     14  CG2 UNL     1      31.215 -22.706 -14.027  0.00  0.00    +0.002 C 
ENDBRANCH  11  12
BRANCH  11  16
ATOM     15  OXT UNL     1      29.447 -24.388 -16.095  0.00  0.00    -0.248 OA
ATOM     16  C   UNL     1      30.116 -23.434 -16.474  0.00  0.00    +0.332 C 
BRANCH  16  17
ATOM     17  O   UNL     1      29.541 -22.322 -16.994  0.00  0.00    -0.479 OA
ATOM     18  H   UNL     1      29.953 -21.487 -16.882  0.00  0.00    +0.295 HD
ENDBRANCH  16  17
ENDBRANCH  11  16
ENDBRANCH   8  11
ENDBRANCH   2   9
BRANCH   1  19
ATOM     19  C   UNL     1      34.910 -18.843 -22.015  0.00  0.00    +0.031 C 
BRANCH  19  20
ATOM     20  C   UNL     1      34.970 -17.400 -21.475  0.00  0.00    +0.033 C 
BRANCH  20  26
ATOM     21  O   UNL     1      33.226 -15.302 -19.841  0.00  0.00    -0.209 OA
ATOM     22  N   UNL     1      34.079 -15.286 -24.338  0.00  0.00    -0.300 N 
ATOM     23  N   UNL     1      32.706 -13.519 -23.442  0.00  0.00    -0.264 N 
ATOM     24  N   UNL     1      32.300 -13.588 -21.082  0.00  0.00    -0.302 NA
ATOM     25  N   UNL     1      31.407 -11.889 -22.450  0.00  0.00    -0.320 N 
ATOM     26  C   UNL     1      34.460 -16.376 -22.448  0.00  0.00    +0.007 C 
ATOM     27  C   UNL     1      33.652 -15.275 -22.143  0.00  0.00    +0.120 C 
ATOM     28  C   UNL     1      33.443 -14.633 -23.334  0.00  0.00    +0.115 C 
ATOM     29  C   UNL     1      34.719 -16.377 -23.793  0.00  0.00    +0.059 C 
ATOM     30  C   UNL     1      33.059 -14.750 -20.922  0.00  0.00    +0.209 C 
ATOM     31  C   UNL     1      32.148 -13.030 -22.267  0.00  0.00    +0.248 C 
ATOM     32  H   UNL     1      34.085 -15.026 -25.289  0.00  0.00    +0.153 HD
ATOM     33  H   UNL     1      32.567 -13.072 -24.308  0.00  0.00    +0.157 HD
ATOM     34  H   UNL     1      31.315 -11.500 -23.349  0.00  0.00    +0.146 HD
ATOM     35  H   UNL     1      30.968 -11.459 -21.681  0.00  0.00    +0.146 HD
ENDBRANCH  20  26
ENDBRANCH  19  20
ENDBRANCH   1  19
TORSDOF 8
ENDMDL
MODEL 7
REMARK VINA RESULT:     -11.4      2.269      2.972
REMARK  Name = 446560
REMARK  8 active torsions:
REMARK  status: ('A' for Active; 'I' for Inactive)
REMARK    1  A    between atoms: C_1  and  C_19
REMARK    2  A    between atoms: C_2  and  C_9
REMARK    3  A    between atoms: N_8  and  CA_11
REMARK    4  A    between atoms: CA_11  and  CB_12
REMARK    5  A    between atoms: CA_11  and  C_16
REMARK    6  A    between atoms: C_16  and  O_17
REMARK    7  A    between atoms: C_19  and  C_20
REMARK    8  A    between atoms: C_20  and  C_26
REMARK                            x       y       z     vdW  Elec       q    Type
REMARK                         _______ _______ _______ _____ _____    ______ ____
ROOT
ATOM      1  C   UNL     1      35.047 -20.463 -20.598  0.00  0.00    -0.022 C 
ATOM      2  C   UNL     1      35.823 -21.731 -18.273  0.00  0.00    +0.053 C 
ATOM      3  C   UNL     1      34.128 -21.230 -19.881  0.00  0.00    -0.004 C 
ATOM      4  C   UNL     1      36.359 -20.338 -20.140  0.00  0.00    -0.004 C 
ATOM      5  C   UNL     1      34.520 -21.870 -18.706  0.00  0.00    +0.004 C 
ATOM      6  C   UNL     1      36.751 -20.980 -18.964  0.00  0.00    +0.004 C 
ENDROOT
BRANCH   2   9
ATOM      7  O   UNL     1      37.370 -22.213 -16.579  0.00  0.00    -0.270 OA
ATOM      8  N   UNL     1      35.287 -23.221 -16.425  0.00  0.00    -0.293 N 
ATOM      9  C   ACE A   0      36.241 -22.412 -17.021  0.00  0.00    +0.246 C 
ATOM     10  H   UNL     1      34.408 -23.315 -16.860  0.00  0.00    +0.150 HD
BRANCH   8  11
ATOM     11  CA  UNL     1      35.535 -23.930 -15.191  0.00  0.00    +0.171 C 
BRANCH  11  12
ATOM     12  CB  UNL     1      34.204 -24.197 -14.454  0.00  0.00    +0.029 C 
ATOM     13  CG1 UNL     1      33.087 -23.255 -14.915  0.00  0.00    +0.002 C 
ATOM     14  CG2 UNL     1      34.338 -24.153 -12.929  0.00  0.00    +0.002 C 
ENDBRANCH  11  12
BRANCH  11  16
ATOM     15  OXT UNL     1      35.902 -26.284 -15.660  0.00  0.00    -0.248 OA
ATOM     16  C   UNL     1      36.378 -25.177 -15.440  0.00  0.00    +0.332 C 
BRANCH  16  17
ATOM     17  O   UNL     1      37.717 -24.980 -15.350  0.00  0.00    -0.479 OA
ATOM     18  H   UNL     1      38.111 -24.243 -15.773  0.00  0.00    +0.295 HD
ENDBRANCH  16  17
ENDBRANCH  11  16
ENDBRANCH   8  11
ENDBRANCH   2   9
BRANCH   1  19
ATOM     19  C   UNL     1      34.627 -19.779 -21.855  0.00  0.00    +0.031 C 
BRANCH  19  20
ATOM     20  C   UNL     1      35.630 -18.724 -22.365  0.00  0.00    +0.033 C 
BRANCH  20  26
ATOM     21  O   UNL     1      34.749 -18.378 -25.400  0.00  0.00    -0.209 OA
ATOM     22  N   UNL     1      34.315 -15.315 -22.025  0.00  0.00    -0.300 N 
ATOM     23  N   UNL     1      33.526 -14.700 -24.218  0.00  0.00    -0.264 N 
ATOM     24  N   UNL     1      33.782 -16.349 -25.937  0.00  0.00    -0.302 NA
ATOM     25  N   UNL     1      32.813 -14.244 -26.366  0.00  0.00    -0.320 N 
ATOM     26  C   UNL     1      35.032 -17.354 -22.511  0.00  0.00    +0.007 C 
ATOM     27  C   UNL     1      34.516 -16.798 -23.687  0.00  0.00    +0.120 C 
ATOM     28  C   UNL     1      34.086 -15.545 -23.342  0.00  0.00    +0.115 C 
ATOM     29  C   UNL     1      34.905 -16.443 -21.497  0.00  0.00    +0.059 C 
ATOM     30  C   UNL     1      34.372 -17.262 -25.059  0.00  0.00    +0.209 C 
ATOM     31  C   UNL     1      33.394 -15.158 -25.524  0.00  0.00    +0.248 C 
ATOM     32  H   UNL     1      34.097 -14.491 -21.532  0.00  0.00    +0.153 HD
ATOM     33  H   UNL     1      33.223 -13.802 -23.951  0.00  0.00    +0.157 HD
ATOM     34  H   UNL     1      32.535 -13.365 -26.022  0.00  0.00    +0.146 HD
ATOM     35  H   UNL     1      32.672 -14.469 -27.314  0.00  0.00    +0.146 HD
ENDBRANCH  20  26
ENDBRANCH  19  20
ENDBRANCH   1  19
TORSDOF 8
ENDMDL
MODEL 8
REMARK VINA RESULT:     -11.4      3.016      4.039
REMARK  Name = 446560
REMARK  8 active torsions:
REMARK  status: ('A' for Active; 'I' for Inactive)
REMARK    1  A    between atoms: C_1  and  C_19
REMARK    2  A    between atoms: C_2  and  C_9
REMARK    3  A    between atoms: N_8  and  CA_11
REMARK    4  A    between atoms: CA_11  and  CB_12
REMARK    5  A    between atoms: CA_11  and  C_16
REMARK    6  A    between atoms: C_16  and  O_17
REMARK    7  A    between atoms: C_19  and  C_20
REMARK    8  A    between atoms: C_20  and  C_26
REMARK                            x       y       z     vdW  Elec       q    Type
REMARK                         _______ _______ _______ _____ _____    ______ ____
ROOT
ATOM      1  C   UNL     1      35.333 -21.370 -19.530  0.00  0.00    -0.022 C 
ATOM      2  C   UNL     1      35.044 -22.741 -17.153  0.00  0.00    +0.053 C 
ATOM      3  C   UNL     1      36.392 -21.425 -18.622  0.00  0.00    -0.004 C 
ATOM      4  C   UNL     1      34.128 -22.008 -19.234  0.00  0.00    -0.004 C 
ATOM      5  C   UNL     1      36.246 -22.118 -17.421  0.00  0.00    +0.004 C 
ATOM      6  C   UNL     1      33.982 -22.701 -18.032  0.00  0.00    +0.004 C 
ENDROOT
BRANCH   2   9
ATOM      7  O   UNL     1      33.759 -23.763 -15.479  0.00  0.00    -0.270 OA
ATOM      8  N   UNL     1      36.063 -23.821 -15.225  0.00  0.00    -0.293 N 
ATOM      9  C   ACE A   0      34.888 -23.481 -15.874  0.00  0.00    +0.246 C 
ATOM     10  H   UNL     1      36.921 -23.548 -15.624  0.00  0.00    +0.150 HD
BRANCH   8  11
ATOM     11  CA  UNL     1      36.077 -24.562 -13.984  0.00  0.00    +0.171 C 
BRANCH  11  12
ATOM     12  CB  UNL     1      37.388 -25.367 -13.859  0.00  0.00    +0.029 C 
ATOM     13  CG1 UNL     1      38.510 -24.786 -14.727  0.00  0.00    +0.002 C 
ATOM     14  CG2 UNL     1      37.212 -26.860 -14.153  0.00  0.00    +0.002 C 
ENDBRANCH  11  12
BRANCH  11  16
ATOM     15  OXT UNL     1      36.650 -23.025 -12.194  0.00  0.00    -0.248 OA
ATOM     16  C   UNL     1      35.785 -23.645 -12.801  0.00  0.00    +0.332 C 
BRANCH  16  17
ATOM     17  O   UNL     1      34.482 -23.603 -12.427  0.00  0.00    -0.479 OA
ATOM     18  H   UNL     1      34.158 -24.210 -11.791  0.00  0.00    +0.295 HD
ENDBRANCH  16  17
ENDBRANCH  11  16
ENDBRANCH   8  11
ENDBRANCH   2   9
BRANCH   1  19
ATOM     19  C   UNL     1      35.491 -20.628 -20.813  0.00  0.00    +0.031 C 
BRANCH  19  20
ATOM     20  C   UNL     1      35.416 -19.094 -20.669  0.00  0.00    +0.033 C 
BRANCH  20  26
ATOM     21  O   UNL     1      34.921 -16.024 -20.008  0.00  0.00    -0.209 OA
ATOM     22  N   UNL     1      34.886 -18.008 -24.133  0.00  0.00    -0.300 N 
ATOM     23  N   UNL     1      34.469 -15.637 -24.015  0.00  0.00    -0.264 N 
ATOM     24  N   UNL     1      34.503 -14.663 -21.827  0.00  0.00    -0.302 NA
ATOM     25  N   UNL     1      34.086 -13.375 -23.756  0.00  0.00    -0.320 N 
ATOM     26  C   UNL     1      35.163 -18.384 -21.968  0.00  0.00    +0.007 C 
ATOM     27  C   UNL     1      34.900 -17.019 -22.127  0.00  0.00    +0.120 C 
ATOM     28  C   UNL     1      34.737 -16.832 -23.473  0.00  0.00    +0.115 C 
ATOM     29  C   UNL     1      35.154 -18.984 -23.199  0.00  0.00    +0.059 C 
ATOM     30  C   UNL     1      34.782 -15.889 -21.218  0.00  0.00    +0.209 C 
ATOM     31  C   UNL     1      34.360 -14.567 -23.134  0.00  0.00    +0.248 C 
ATOM     32  H   UNL     1      34.817 -18.141 -25.107  0.00  0.00    +0.153 HD
ATOM     33  H   UNL     1      34.355 -15.522 -24.987  0.00  0.00    +0.157 HD
ATOM     34  H   UNL     1      33.986 -13.341 -24.734  0.00  0.00    +0.146 HD
ATOM     35  H   UNL     1      33.989 -12.553 -23.223  0.00  0.00    +0.146 HD
ENDBRANCH  20  26
ENDBRANCH  19  20
ENDBRANCH   1  19
TORSDOF 8
ENDMDL
MODEL 9
REMARK VINA RESULT:     -11.3      4.050     10.797
REMARK  Name = 446560
REMARK  8 active torsions:
REMARK  status: ('A' for Active; 'I' for Inactive)
REMARK    1  A    between atoms: C_1  and  C_19
REMARK    2  A    between atoms: C_2  and  C_9
REMARK    3  A    between atoms: N_8  and  CA_11
REMARK    4  A    between atoms: CA_11  and  CB_12
REMARK    5  A    between atoms: CA_11  and  C_16
REMARK    6  A    between atoms: C_16  and  O_17
REMARK    7  A    between atoms: C_19  and  C_20
REMARK    8  A    between atoms: C_20  and  C_26
REMARK                            x       y       z     vdW  Elec       q    Type
REMARK                         _______ _______ _______ _____ _____    ______ ____
ROOT
ATOM      1  C   UNL     1      33.846 -16.125 -21.886  0.00  0.00    -0.022 C 
ATOM      2  C   UNL     1      33.685 -13.752 -23.284  0.00  0.00    +0.053 C 
ATOM      3  C   UNL     1      33.107 -15.060 -21.370  0.00  0.00    -0.004 C 
ATOM      4  C   UNL     1      34.504 -15.990 -23.109  0.00  0.00    -0.004 C 
ATOM      5  C   UNL     1      33.025 -13.861 -22.077  0.00  0.00    +0.004 C 
ATOM      6  C   UNL     1      34.423 -14.790 -23.815  0.00  0.00    +0.004 C 
ENDROOT
BRANCH   2   9
ATOM      7  O   UNL     1      33.600 -12.504 -25.267  0.00  0.00    -0.270 OA
ATOM      8  N   UNL     1      33.494 -11.326 -23.272  0.00  0.00    -0.293 N 
ATOM      9  C   ACE A   0      33.597 -12.476 -24.038  0.00  0.00    +0.246 C 
ATOM     10  H   UNL     1      33.501 -11.409 -22.291  0.00  0.00    +0.150 HD
BRANCH   8  11
ATOM     11  CA  UNL     1      33.376 -10.011 -23.859  0.00  0.00    +0.171 C 
BRANCH  11  12
ATOM     12  CB  UNL     1      32.452  -9.123 -22.997  0.00  0.00    +0.029 C 
ATOM     13  CG1 UNL     1      31.708  -9.929 -21.928  0.00  0.00    +0.002 C 
ATOM     14  CG2 UNL     1      31.461  -8.301 -23.825  0.00  0.00    +0.002 C 
ENDBRANCH  11  12
BRANCH  11  16
ATOM     15  OXT UNL     1      35.122  -8.333 -23.682  0.00  0.00    -0.248 OA
ATOM     16  C   UNL     1      34.753  -9.412 -24.130  0.00  0.00    +0.332 C 
BRANCH  16  17
ATOM     17  O   UNL     1      35.536 -10.147 -24.958  0.00  0.00    -0.479 OA
ATOM     18  H   UNL     1      35.150 -10.795 -25.513  0.00  0.00    +0.295 HD
ENDBRANCH  16  17
ENDBRANCH  11  16
ENDBRANCH   8  11
ENDBRANCH   2   9
BRANCH   1  19
ATOM     19  C   UNL     1      33.933 -17.407 -21.129  0.00  0.00    +0.031 C 
BRANCH  19  20
ATOM     20  C   UNL     1      34.785 -18.491 -21.819  0.00  0.00    +0.033 C 
BRANCH  20  26
ATOM     21  O   UNL     1      32.319 -20.207 -20.780  0.00  0.00    -0.209 OA
ATOM     22  N   UNL     1      36.723 -20.722 -19.644  0.00  0.00    -0.300 N 
ATOM     23  N   UNL     1      35.117 -22.221 -18.652  0.00  0.00    -0.264 N 
ATOM     24  N   UNL     1      32.831 -21.897 -19.289  0.00  0.00    -0.302 NA
ATOM     25  N   UNL     1      33.474 -23.586 -17.777  0.00  0.00    -0.320 N 
ATOM     26  C   UNL     1      35.318 -19.526 -20.870  0.00  0.00    +0.007 C 
ATOM     27  C   UNL     1      34.566 -20.488 -20.187  0.00  0.00    +0.120 C 
ATOM     28  C   UNL     1      35.470 -21.201 -19.446  0.00  0.00    +0.115 C 
ATOM     29  C   UNL     1      36.638 -19.674 -20.534  0.00  0.00    +0.059 C 
ATOM     30  C   UNL     1      33.153 -20.827 -20.130  0.00  0.00    +0.209 C 
ATOM     31  C   UNL     1      33.763 -22.533 -18.609  0.00  0.00    +0.248 C 
ATOM     32  H   UNL     1      37.548 -21.062 -19.227  0.00  0.00    +0.153 HD
ATOM     33  H   UNL     1      35.782 -22.722 -18.126  0.00  0.00    +0.157 HD
ATOM     34  H   UNL     1      34.196 -24.037 -17.284  0.00  0.00    +0.146 HD
ATOM     35  H   UNL     1      32.543 -23.890 -17.674  0.00  0.00    +0.146 HD
ENDBRANCH  20  26
ENDBRANCH  19  20
ENDBRANCH   1  19
TORSDOF 8
ENDMDL
