MODEL 1
REMARK VINA RESULT:      -5.8      0.000      0.000
REMARK  Name = 9543425
REMARK  10 active torsions:
REMARK  status: ('A' for Active; 'I' for Inactive)
REMARK    1  A    between atoms: C_1  and  C_2
REMARK    2  A    between atoms: C_1  and  C_8
REMARK    3  A    between atoms: C_2  and  C_3
REMARK    4  A    between atoms: C_3  and  C_4
REMARK    5  A    between atoms: C_4  and  C_5
REMARK    6  A    between atoms: C_5  and  C_6
REMARK    7  A    between atoms: C_8  and  S_9
REMARK    8  A    between atoms: S_9  and  C_11
REMARK    9  A    between atoms: C_11  and  C_12
REMARK   10  A    between atoms: C_12  and  O_13
REMARK                            x       y       z     vdW  Elec       q    Type
REMARK                         _______ _______ _______ _____ _____    ______ ____
ROOT
ATOM      1  C   UNL     1      35.139 -18.330 -23.075  0.00  0.00    +0.014 C 
ENDROOT
BRANCH   1   2
ATOM      2  C   UNL     1      36.062 -18.689 -21.907  0.00  0.00    +0.001 C 
BRANCH   2   3
ATOM      3  C   UNL     1      35.306 -19.455 -20.819  0.00  0.00    +0.000 C 
BRANCH   3   4
ATOM      4  C   UNL     1      33.791 -19.494 -21.044  0.00  0.00    +0.000 C 
BRANCH   4   5
ATOM      5  C   UNL     1      33.079 -20.542 -20.184  0.00  0.00    +0.000 C 
BRANCH   5   6
ATOM      6  C   UNL     1      34.036 -21.563 -19.562  0.00  0.00    +0.000 C 
ATOM      7  C   UNL     1      33.381 -22.445 -18.511  0.00  0.00    +0.000 C 
ENDBRANCH   5   6
ENDBRANCH   4   5
ENDBRANCH   3   4
ENDBRANCH   2   3
ENDBRANCH   1   2
BRANCH   1   8
ATOM      8  C   UNL     1      35.056 -16.822 -23.265  0.00  0.00    +0.092 C 
BRANCH   8   9
ATOM      9  S   UNL     1      34.645 -16.415 -24.991  0.00  0.00    +0.044 S 
ATOM     10  O   UNL     1      33.901 -17.585 -25.555  0.00  0.00    -0.256 OA
BRANCH   9  11
ATOM     11  C   UNL     1      33.432 -15.138 -24.581  0.00  0.00    +0.123 C 
BRANCH  11  12
ATOM     12  C   UNL     1      32.985 -14.392 -25.825  0.00  0.00    +0.151 C 
BRANCH  12  13
ATOM     13  O   UNL     1      33.563 -14.991 -26.977  0.00  0.00    -0.381 OA
ATOM     14  H   UNL     1      34.419 -15.383 -26.744  0.00  0.00    +0.210 HD
ENDBRANCH  12  13
ENDBRANCH  11  12
ENDBRANCH   9  11
ENDBRANCH   8   9
ENDBRANCH   1   8
TORSDOF 10
ENDMDL
MODEL 2
REMARK VINA RESULT:      -5.8      7.467     10.131
REMARK  Name = 9543425
REMARK  10 active torsions:
REMARK  status: ('A' for Active; 'I' for Inactive)
REMARK    1  A    between atoms: C_1  and  C_2
REMARK    2  A    between atoms: C_1  and  C_8
REMARK    3  A    between atoms: C_2  and  C_3
REMARK    4  A    between atoms: C_3  and  C_4
REMARK    5  A    between atoms: C_4  and  C_5
REMARK    6  A    between atoms: C_5  and  C_6
REMARK    7  A    between atoms: C_8  and  S_9
REMARK    8  A    between atoms: S_9  and  C_11
REMARK    9  A    between atoms: C_11  and  C_12
REMARK   10  A    between atoms: C_12  and  O_13
REMARK                            x       y       z     vdW  Elec       q    Type
REMARK                         _______ _______ _______ _____ _____    ______ ____
ROOT
ATOM      1  C   UNL     1      36.869 -22.066 -16.906  0.00  0.00    +0.014 C 
ENDROOT
BRANCH   1   2
ATOM      2  C   UNL     1      35.882 -21.931 -18.068  0.00  0.00    +0.001 C 
BRANCH   2   3
ATOM      3  C   UNL     1      36.502 -21.156 -19.233  0.00  0.00    +0.000 C 
BRANCH   3   4
ATOM      4  C   UNL     1      35.568 -21.026 -20.441  0.00  0.00    +0.000 C 
BRANCH   4   5
ATOM      5  C   UNL     1      35.380 -19.579 -20.907  0.00  0.00    +0.000 C 
BRANCH   5   6
ATOM      6  C   UNL     1      33.913 -19.210 -21.145  0.00  0.00    +0.000 C 
ATOM      7  C   UNL     1      32.933 -20.155 -20.467  0.00  0.00    +0.000 C 
ENDBRANCH   5   6
ENDBRANCH   4   5
ENDBRANCH   3   4
ENDBRANCH   2   3
ENDBRANCH   1   2
BRANCH   1   8
ATOM      8  C   UNL     1      36.260 -22.858 -15.757  0.00  0.00    +0.092 C 
BRANCH   8   9
ATOM      9  S   UNL     1      37.504 -23.948 -14.998  0.00  0.00    +0.044 S 
ATOM     10  O   UNL     1      37.741 -23.447 -13.608  0.00  0.00    -0.256 OA
BRANCH   9  11
ATOM     11  C   UNL     1      36.420 -25.392 -14.886  0.00  0.00    +0.123 C 
BRANCH  11  12
ATOM     12  C   UNL     1      37.195 -26.675 -15.120  0.00  0.00    +0.151 C 
BRANCH  12  13
ATOM     13  O   UNL     1      36.749 -27.291 -16.322  0.00  0.00    -0.381 OA
ATOM     14  H   UNL     1      37.110 -26.813 -17.085  0.00  0.00    +0.210 HD
ENDBRANCH  12  13
ENDBRANCH  11  12
ENDBRANCH   9  11
ENDBRANCH   8   9
ENDBRANCH   1   8
TORSDOF 10
ENDMDL
MODEL 3
REMARK VINA RESULT:      -5.6      7.787     10.603
REMARK  Name = 9543425
REMARK  10 active torsions:
REMARK  status: ('A' for Active; 'I' for Inactive)
REMARK    1  A    between atoms: C_1  and  C_2
REMARK    2  A    between atoms: C_1  and  C_8
REMARK    3  A    between atoms: C_2  and  C_3
REMARK    4  A    between atoms: C_3  and  C_4
REMARK    5  A    between atoms: C_4  and  C_5
REMARK    6  A    between atoms: C_5  and  C_6
REMARK    7  A    between atoms: C_8  and  S_9
REMARK    8  A    between atoms: S_9  and  C_11
REMARK    9  A    between atoms: C_11  and  C_12
REMARK   10  A    between atoms: C_12  and  O_13
REMARK                            x       y       z     vdW  Elec       q    Type
REMARK                         _______ _______ _______ _____ _____    ______ ____
ROOT
ATOM      1  C   UNL     1      37.309 -22.442 -16.388  0.00  0.00    +0.014 C 
ENDROOT
BRANCH   1   2
ATOM      2  C   UNL     1      36.175 -22.039 -17.333  0.00  0.00    +0.001 C 
BRANCH   2   3
ATOM      3  C   UNL     1      36.715 -21.642 -18.709  0.00  0.00    +0.000 C 
BRANCH   3   4
ATOM      4  C   UNL     1      35.650 -21.031 -19.626  0.00  0.00    +0.000 C 
BRANCH   4   5
ATOM      5  C   UNL     1      34.260 -21.645 -19.432  0.00  0.00    +0.000 C 
BRANCH   5   6
ATOM      6  C   UNL     1      33.135 -20.780 -20.007  0.00  0.00    +0.000 C 
ATOM      7  C   UNL     1      33.634 -19.632 -20.871  0.00  0.00    +0.000 C 
ENDBRANCH   5   6
ENDBRANCH   4   5
ENDBRANCH   3   4
ENDBRANCH   2   3
ENDBRANCH   1   2
BRANCH   1   8
ATOM      8  C   UNL     1      36.765 -22.927 -15.052  0.00  0.00    +0.092 C 
BRANCH   8   9
ATOM      9  S   UNL     1      37.551 -24.496 -14.570  0.00  0.00    +0.044 S 
ATOM     10  O   UNL     1      39.029 -24.262 -14.552  0.00  0.00    -0.256 OA
BRANCH   9  11
ATOM     11  C   UNL     1      36.968 -24.461 -12.859  0.00  0.00    +0.123 C 
BRANCH  11  12
ATOM     12  C   UNL     1      37.312 -23.141 -12.192  0.00  0.00    +0.151 C 
BRANCH  12  13
ATOM     13  O   UNL     1      38.651 -23.179 -11.717  0.00  0.00    -0.381 OA
ATOM     14  H   UNL     1      38.745 -22.574 -10.964  0.00  0.00    +0.210 HD
ENDBRANCH  12  13
ENDBRANCH  11  12
ENDBRANCH   9  11
ENDBRANCH   8   9
ENDBRANCH   1   8
TORSDOF 10
ENDMDL
MODEL 4
REMARK VINA RESULT:      -5.6      2.435      3.164
REMARK  Name = 9543425
REMARK  10 active torsions:
REMARK  status: ('A' for Active; 'I' for Inactive)
REMARK    1  A    between atoms: C_1  and  C_2
REMARK    2  A    between atoms: C_1  and  C_8
REMARK    3  A    between atoms: C_2  and  C_3
REMARK    4  A    between atoms: C_3  and  C_4
REMARK    5  A    between atoms: C_4  and  C_5
REMARK    6  A    between atoms: C_5  and  C_6
REMARK    7  A    between atoms: C_8  and  S_9
REMARK    8  A    between atoms: S_9  and  C_11
REMARK    9  A    between atoms: C_11  and  C_12
REMARK   10  A    between atoms: C_12  and  O_13
REMARK                            x       y       z     vdW  Elec       q    Type
REMARK                         _______ _______ _______ _____ _____    ______ ____
ROOT
ATOM      1  C   UNL     1      34.913 -17.044 -25.080  0.00  0.00    +0.014 C 
ENDROOT
BRANCH   1   2
ATOM      2  C   UNL     1      34.212 -18.393 -24.900  0.00  0.00    +0.001 C 
BRANCH   2   3
ATOM      3  C   UNL     1      34.941 -19.263 -23.873  0.00  0.00    +0.000 C 
BRANCH   3   4
ATOM      4  C   UNL     1      35.544 -18.460 -22.715  0.00  0.00    +0.000 C 
BRANCH   4   5
ATOM      5  C   UNL     1      34.649 -18.424 -21.473  0.00  0.00    +0.000 C 
BRANCH   5   6
ATOM      6  C   UNL     1      34.366 -19.812 -20.895  0.00  0.00    +0.000 C 
ATOM      7  C   UNL     1      32.896 -20.049 -20.581  0.00  0.00    +0.000 C 
ENDBRANCH   5   6
ENDBRANCH   4   5
ENDBRANCH   3   4
ENDBRANCH   2   3
ENDBRANCH   1   2
BRANCH   1   8
ATOM      8  C   UNL     1      33.906 -15.903 -25.123  0.00  0.00    +0.092 C 
BRANCH   8   9
ATOM      9  S   UNL     1      33.604 -15.250 -23.451  0.00  0.00    +0.044 S 
ATOM     10  O   UNL     1      34.940 -14.951 -22.847  0.00  0.00    -0.256 OA
BRANCH   9  11
ATOM     11  C   UNL     1      32.889 -13.685 -24.006  0.00  0.00    +0.123 C 
BRANCH  11  12
ATOM     12  C   UNL     1      32.443 -12.840 -22.826  0.00  0.00    +0.151 C 
BRANCH  12  13
ATOM     13  O   UNL     1      32.344 -13.654 -21.664  0.00  0.00    -0.381 OA
ATOM     14  H   UNL     1      32.538 -13.121 -20.877  0.00  0.00    +0.210 HD
ENDBRANCH  12  13
ENDBRANCH  11  12
ENDBRANCH   9  11
ENDBRANCH   8   9
ENDBRANCH   1   8
TORSDOF 10
ENDMDL
MODEL 5
REMARK VINA RESULT:      -5.6      7.837     10.841
REMARK  Name = 9543425
REMARK  10 active torsions:
REMARK  status: ('A' for Active; 'I' for Inactive)
REMARK    1  A    between atoms: C_1  and  C_2
REMARK    2  A    between atoms: C_1  and  C_8
REMARK    3  A    between atoms: C_2  and  C_3
REMARK    4  A    between atoms: C_3  and  C_4
REMARK    5  A    between atoms: C_4  and  C_5
REMARK    6  A    between atoms: C_5  and  C_6
REMARK    7  A    between atoms: C_8  and  S_9
REMARK    8  A    between atoms: S_9  and  C_11
REMARK    9  A    between atoms: C_11  and  C_12
REMARK   10  A    between atoms: C_12  and  O_13
REMARK                            x       y       z     vdW  Elec       q    Type
REMARK                         _______ _______ _______ _____ _____    ______ ____
ROOT
ATOM      1  C   UNL     1      37.152 -22.869 -15.581  0.00  0.00    +0.014 C 
ENDROOT
BRANCH   1   2
ATOM      2  C   UNL     1      37.240 -21.868 -16.735  0.00  0.00    +0.001 C 
BRANCH   2   3
ATOM      3  C   UNL     1      36.053 -22.019 -17.691  0.00  0.00    +0.000 C 
BRANCH   3   4
ATOM      4  C   UNL     1      36.226 -21.243 -19.000  0.00  0.00    +0.000 C 
BRANCH   4   5
ATOM      5  C   UNL     1      35.173 -21.595 -20.055  0.00  0.00    +0.000 C 
BRANCH   5   6
ATOM      6  C   UNL     1      33.739 -21.335 -19.585  0.00  0.00    +0.000 C 
ATOM      7  C   UNL     1      33.035 -20.236 -20.366  0.00  0.00    +0.000 C 
ENDBRANCH   5   6
ENDBRANCH   4   5
ENDBRANCH   3   4
ENDBRANCH   2   3
ENDBRANCH   1   2
BRANCH   1   8
ATOM      8  C   UNL     1      35.807 -23.582 -15.574  0.00  0.00    +0.092 C 
BRANCH   8   9
ATOM      9  S   UNL     1      35.914 -25.145 -14.647  0.00  0.00    +0.044 S 
ATOM     10  O   UNL     1      35.966 -26.252 -15.653  0.00  0.00    -0.256 OA
BRANCH   9  11
ATOM     11  C   UNL     1      37.597 -24.871 -14.044  0.00  0.00    +0.123 C 
BRANCH  11  12
ATOM     12  C   UNL     1      37.956 -25.868 -12.958  0.00  0.00    +0.151 C 
BRANCH  12  13
ATOM     13  O   UNL     1      36.860 -26.746 -12.732  0.00  0.00    -0.381 OA
ATOM     14  H   UNL     1      36.188 -26.609 -13.418  0.00  0.00    +0.210 HD
ENDBRANCH  12  13
ENDBRANCH  11  12
ENDBRANCH   9  11
ENDBRANCH   8   9
ENDBRANCH   1   8
TORSDOF 10
ENDMDL
MODEL 6
REMARK VINA RESULT:      -5.6      2.364      3.233
REMARK  Name = 9543425
REMARK  10 active torsions:
REMARK  status: ('A' for Active; 'I' for Inactive)
REMARK    1  A    between atoms: C_1  and  C_2
REMARK    2  A    between atoms: C_1  and  C_8
REMARK    3  A    between atoms: C_2  and  C_3
REMARK    4  A    between atoms: C_3  and  C_4
REMARK    5  A    between atoms: C_4  and  C_5
REMARK    6  A    between atoms: C_5  and  C_6
REMARK    7  A    between atoms: C_8  and  S_9
REMARK    8  A    between atoms: S_9  and  C_11
REMARK    9  A    between atoms: C_11  and  C_12
REMARK   10  A    between atoms: C_12  and  O_13
REMARK                            x       y       z     vdW  Elec       q    Type
REMARK                         _______ _______ _______ _____ _____    ______ ____
ROOT
ATOM      1  C   UNL     1      35.113 -19.770 -21.453  0.00  0.00    +0.014 C 
ENDROOT
BRANCH   1   2
ATOM      2  C   UNL     1      33.728 -19.645 -20.815  0.00  0.00    +0.001 C 
BRANCH   2   3
ATOM      3  C   UNL     1      33.411 -20.859 -19.938  0.00  0.00    +0.000 C 
BRANCH   3   4
ATOM      4  C   UNL     1      34.571 -21.855 -19.837  0.00  0.00    +0.000 C 
BRANCH   4   5
ATOM      5  C   UNL     1      35.110 -22.013 -18.412  0.00  0.00    +0.000 C 
BRANCH   5   6
ATOM      6  C   UNL     1      36.581 -21.608 -18.276  0.00  0.00    +0.000 C 
ATOM      7  C   UNL     1      37.118 -21.742 -16.860  0.00  0.00    +0.000 C 
ENDBRANCH   5   6
ENDBRANCH   4   5
ENDBRANCH   3   4
ENDBRANCH   2   3
ENDBRANCH   1   2
BRANCH   1   8
ATOM      8  C   UNL     1      35.817 -18.421 -21.505  0.00  0.00    +0.092 C 
BRANCH   8   9
ATOM      9  S   UNL     1      34.605 -17.068 -21.605  0.00  0.00    +0.044 S 
ATOM     10  O   UNL     1      35.009 -16.037 -20.597  0.00  0.00    -0.256 OA
BRANCH   9  11
ATOM     11  C   UNL     1      35.134 -16.483 -23.232  0.00  0.00    +0.123 C 
BRANCH  11  12
ATOM     12  C   UNL     1      34.750 -17.471 -24.318  0.00  0.00    +0.151 C 
BRANCH  12  13
ATOM     13  O   UNL     1      34.892 -16.859 -25.594  0.00  0.00    -0.381 OA
ATOM     14  H   UNL     1      34.035 -16.506 -25.881  0.00  0.00    +0.210 HD
ENDBRANCH  12  13
ENDBRANCH  11  12
ENDBRANCH   9  11
ENDBRANCH   8   9
ENDBRANCH   1   8
TORSDOF 10
ENDMDL
MODEL 7
REMARK VINA RESULT:      -5.6      8.110     10.989
REMARK  Name = 9543425
REMARK  10 active torsions:
REMARK  status: ('A' for Active; 'I' for Inactive)
REMARK    1  A    between atoms: C_1  and  C_2
REMARK    2  A    between atoms: C_1  and  C_8
REMARK    3  A    between atoms: C_2  and  C_3
REMARK    4  A    between atoms: C_3  and  C_4
REMARK    5  A    between atoms: C_4  and  C_5
REMARK    6  A    between atoms: C_5  and  C_6
REMARK    7  A    between atoms: C_8  and  S_9
REMARK    8  A    between atoms: S_9  and  C_11
REMARK    9  A    between atoms: C_11  and  C_12
REMARK   10  A    between atoms: C_12  and  O_13
REMARK                            x       y       z     vdW  Elec       q    Type
REMARK                         _______ _______ _______ _____ _____    ______ ____
ROOT
ATOM      1  C   UNL     1      35.489 -24.151 -15.346  0.00  0.00    +0.014 C 
ENDROOT
BRANCH   1   2
ATOM      2  C   UNL     1      35.412 -22.837 -16.127  0.00  0.00    +0.001 C 
BRANCH   2   3
ATOM      3  C   UNL     1      36.796 -22.397 -16.609  0.00  0.00    +0.000 C 
BRANCH   3   4
ATOM      4  C   UNL     1      36.756 -21.574 -17.901  0.00  0.00    +0.000 C 
BRANCH   4   5
ATOM      5  C   UNL     1      35.547 -21.893 -18.785  0.00  0.00    +0.000 C 
BRANCH   5   6
ATOM      6  C   UNL     1      35.453 -20.998 -20.023  0.00  0.00    +0.000 C 
ATOM      7  C   UNL     1      34.053 -20.458 -20.275  0.00  0.00    +0.000 C 
ENDBRANCH   5   6
ENDBRANCH   4   5
ENDBRANCH   3   4
ENDBRANCH   2   3
ENDBRANCH   1   2
BRANCH   1   8
ATOM      8  C   UNL     1      36.935 -24.543 -15.073  0.00  0.00    +0.092 C 
BRANCH   8   9
ATOM      9  S   UNL     1      37.053 -26.311 -14.660  0.00  0.00    +0.044 S 
ATOM     10  O   UNL     1      36.863 -27.075 -15.933  0.00  0.00    -0.256 OA
BRANCH   9  11
ATOM     11  C   UNL     1      38.824 -26.283 -14.294  0.00  0.00    +0.123 C 
BRANCH  11  12
ATOM     12  C   UNL     1      39.541 -25.253 -15.147  0.00  0.00    +0.151 C 
BRANCH  12  13
ATOM     13  O   UNL     1      40.475 -25.903 -16.000  0.00  0.00    -0.381 OA
ATOM     14  H   UNL     1      40.612 -26.815 -15.696  0.00  0.00    +0.210 HD
ENDBRANCH  12  13
ENDBRANCH  11  12
ENDBRANCH   9  11
ENDBRANCH   8   9
ENDBRANCH   1   8
TORSDOF 10
ENDMDL
MODEL 8
REMARK VINA RESULT:      -5.6      2.208      2.568
REMARK  Name = 9543425
REMARK  10 active torsions:
REMARK  status: ('A' for Active; 'I' for Inactive)
REMARK    1  A    between atoms: C_1  and  C_2
REMARK    2  A    between atoms: C_1  and  C_8
REMARK    3  A    between atoms: C_2  and  C_3
REMARK    4  A    between atoms: C_3  and  C_4
REMARK    5  A    between atoms: C_4  and  C_5
REMARK    6  A    between atoms: C_5  and  C_6
REMARK    7  A    between atoms: C_8  and  S_9
REMARK    8  A    between atoms: S_9  and  C_11
REMARK    9  A    between atoms: C_11  and  C_12
REMARK   10  A    between atoms: C_12  and  O_13
REMARK                            x       y       z     vdW  Elec       q    Type
REMARK                         _______ _______ _______ _____ _____    ______ ____
ROOT
ATOM      1  C   UNL     1      34.959 -17.249 -23.829  0.00  0.00    +0.014 C 
ENDROOT
BRANCH   1   2
ATOM      2  C   UNL     1      35.203 -18.681 -23.347  0.00  0.00    +0.001 C 
BRANCH   2   3
ATOM      3  C   UNL     1      35.863 -18.696 -21.966  0.00  0.00    +0.000 C 
BRANCH   3   4
ATOM      4  C   UNL     1      35.141 -19.596 -20.958  0.00  0.00    +0.000 C 
BRANCH   4   5
ATOM      5  C   UNL     1      33.621 -19.612 -21.140  0.00  0.00    +0.000 C 
BRANCH   5   6
ATOM      6  C   UNL     1      32.897 -20.450 -20.083  0.00  0.00    +0.000 C 
ATOM      7  C   UNL     1      33.748 -21.573 -19.512  0.00  0.00    +0.000 C 
ENDBRANCH   5   6
ENDBRANCH   4   5
ENDBRANCH   3   4
ENDBRANCH   2   3
ENDBRANCH   1   2
BRANCH   1   8
ATOM      8  C   UNL     1      34.983 -16.267 -22.667  0.00  0.00    +0.092 C 
BRANCH   8   9
ATOM      9  S   UNL     1      34.124 -14.726 -23.111  0.00  0.00    +0.044 S 
ATOM     10  O   UNL     1      33.360 -14.994 -24.369  0.00  0.00    -0.256 OA
BRANCH   9  11
ATOM     11  C   UNL     1      32.953 -14.779 -21.734  0.00  0.00    +0.123 C 
BRANCH  11  12
ATOM     12  C   UNL     1      32.334 -13.415 -21.492  0.00  0.00    +0.151 C 
BRANCH  12  13
ATOM     13  O   UNL     1      31.718 -12.949 -22.685  0.00  0.00    -0.381 OA
ATOM     14  H   UNL     1      31.886 -11.999 -22.788  0.00  0.00    +0.210 HD
ENDBRANCH  12  13
ENDBRANCH  11  12
ENDBRANCH   9  11
ENDBRANCH   8   9
ENDBRANCH   1   8
TORSDOF 10
ENDMDL
MODEL 9
REMARK VINA RESULT:      -5.6      6.294      9.201
REMARK  Name = 9543425
REMARK  10 active torsions:
REMARK  status: ('A' for Active; 'I' for Inactive)
REMARK    1  A    between atoms: C_1  and  C_2
REMARK    2  A    between atoms: C_1  and  C_8
REMARK    3  A    between atoms: C_2  and  C_3
REMARK    4  A    between atoms: C_3  and  C_4
REMARK    5  A    between atoms: C_4  and  C_5
REMARK    6  A    between atoms: C_5  and  C_6
REMARK    7  A    between atoms: C_8  and  S_9
REMARK    8  A    between atoms: S_9  and  C_11
REMARK    9  A    between atoms: C_11  and  C_12
REMARK   10  A    between atoms: C_12  and  O_13
REMARK                            x       y       z     vdW  Elec       q    Type
REMARK                         _______ _______ _______ _____ _____    ______ ____
ROOT
ATOM      1  C   UNL     1      34.803 -22.394 -18.480  0.00  0.00    +0.014 C 
ENDROOT
BRANCH   1   2
ATOM      2  C   UNL     1      34.636 -21.378 -19.613  0.00  0.00    +0.001 C 
BRANCH   2   3
ATOM      3  C   UNL     1      33.177 -20.934 -19.748  0.00  0.00    +0.000 C 
BRANCH   3   4
ATOM      4  C   UNL     1      32.958 -19.896 -20.854  0.00  0.00    +0.000 C 
BRANCH   4   5
ATOM      5  C   UNL     1      34.237 -19.149 -21.245  0.00  0.00    +0.000 C 
BRANCH   5   6
ATOM      6  C   UNL     1      34.527 -19.197 -22.747  0.00  0.00    +0.000 C 
ATOM      7  C   UNL     1      35.674 -18.293 -23.172  0.00  0.00    +0.000 C 
ENDBRANCH   5   6
ENDBRANCH   4   5
ENDBRANCH   3   4
ENDBRANCH   2   3
ENDBRANCH   1   2
BRANCH   1   8
ATOM      8  C   UNL     1      35.978 -22.029 -17.584  0.00  0.00    +0.092 C 
BRANCH   8   9
ATOM      9  S   UNL     1      35.778 -22.765 -15.932  0.00  0.00    +0.044 S 
ATOM     10  O   UNL     1      35.084 -24.078 -16.115  0.00  0.00    -0.256 OA
BRANCH   9  11
ATOM     11  C   UNL     1      37.537 -23.103 -15.681  0.00  0.00    +0.123 C 
BRANCH  11  12
ATOM     12  C   UNL     1      37.738 -24.323 -14.802  0.00  0.00    +0.151 C 
BRANCH  12  13
ATOM     13  O   UNL     1      37.409 -25.499 -15.532  0.00  0.00    -0.381 OA
ATOM     14  H   UNL     1      38.022 -25.600 -16.277  0.00  0.00    +0.210 HD
ENDBRANCH  12  13
ENDBRANCH  11  12
ENDBRANCH   9  11
ENDBRANCH   8   9
ENDBRANCH   1   8
TORSDOF 10
ENDMDL
