MODEL 1
REMARK VINA RESULT:     -11.8      0.000      0.000
REMARK  Name = 4615
REMARK  7 active torsions:
REMARK  status: ('A' for Active; 'I' for Inactive)
REMARK    1  A    between atoms: N_1  and  C_9
REMARK    2  A    between atoms: N_2  and  C_22
REMARK    3  A    between atoms: C_9  and  C_10
REMARK    4  A    between atoms: C_9  and  C_16
REMARK    5  A    between atoms: C_22  and  C_23
REMARK    6  A    between atoms: C_23  and  C_24
REMARK    7  A    between atoms: C_24  and  N_26
REMARK                            x       y       z     vdW  Elec       q    Type
REMARK                         _______ _______ _______ _____ _____    ______ ____
ROOT
ATOM      1  N   UNL     1      34.416 -16.942 -20.885  0.00  0.00    +0.390 N 
ATOM      2  N   UNL     1      32.909 -14.481 -21.060  0.00  0.00    +0.384 N 
ATOM      3  C   UNL     1      35.059 -15.681 -21.273  0.00  0.00    -0.100 C 
ATOM      4  C   UNL     1      33.003 -16.940 -21.283  0.00  0.00    -0.100 C 
ATOM      5  C   UNL     1      34.322 -14.483 -20.664  0.00  0.00    -0.101 C 
ATOM      6  C   UNL     1      32.266 -15.743 -20.672  0.00  0.00    -0.101 C 
ATOM      7  H   UNL     1      34.464 -17.028 -19.869  0.00  0.00    -0.079 HD
ATOM      8  H   UNL     1      32.859 -14.394 -22.075  0.00  0.00    -0.080 HD
ENDROOT
BRANCH   1   9
ATOM      9  C   UNL     1      35.118 -18.083 -21.467  0.00  0.00    -0.012 C 
BRANCH   9  10
ATOM     10  C   UNL     1      34.793 -19.388 -20.755  0.00  0.00    -0.038 C 
ATOM     11  C   UNL     1      35.831 -20.173 -20.293  0.00  0.00    -0.006 C 
ATOM     12  C   UNL     1      33.471 -19.750 -20.593  0.00  0.00    -0.006 C 
ATOM     13  C   UNL     1      35.533 -21.369 -19.641  0.00  0.00    -0.000 C 
ATOM     14  C   UNL     1      33.173 -20.946 -19.941  0.00  0.00    -0.000 C 
ATOM     15  C   UNL     1      34.204 -21.755 -19.465  0.00  0.00    -0.000 C 
ENDBRANCH   9  10
BRANCH   9  16
ATOM     16  C   UNL     1      34.907 -18.189 -22.970  0.00  0.00    -0.038 C 
ATOM     17  C   UNL     1      34.749 -19.439 -23.535  0.00  0.00    -0.006 C 
ATOM     18  C   UNL     1      34.880 -17.034 -23.724  0.00  0.00    -0.006 C 
ATOM     19  C   UNL     1      34.556 -19.537 -24.913  0.00  0.00    -0.000 C 
ATOM     20  C   UNL     1      34.687 -17.132 -25.103  0.00  0.00    -0.000 C 
ATOM     21  C   UNL     1      34.525 -18.383 -25.696  0.00  0.00    -0.000 C 
ENDBRANCH   9  16
ENDBRANCH   1   9
BRANCH   2  22
ATOM     22  C   UNL     1      32.206 -13.341 -20.475  0.00  0.00    -0.076 C 
BRANCH  22  23
ATOM     23  C   UNL     1      31.804 -12.312 -21.535  0.00  0.00    +0.002 C 
BRANCH  23  24
ATOM     24  C   UNL     1      30.871 -11.214 -21.027  0.00  0.00    +0.108 C 
BRANCH  24  26
ATOM     25  O   UNL     1      32.217 -10.108 -18.564  0.00  0.00    -0.247 OA
ATOM     26  N   UNL     1      31.545  -9.960 -20.841  0.00  0.00    -0.280 N 
ATOM     27  N   UNL     1      32.693  -8.229 -19.917  0.00  0.00    -0.305 N 
ATOM     28  C   UNL     1      31.712  -8.965 -21.821  0.00  0.00    +0.079 A 
ATOM     29  C   UNL     1      32.157  -9.516 -19.632  0.00  0.00    +0.328 A 
ATOM     30  C   UNL     1      32.416  -7.908 -21.246  0.00  0.00    +0.076 A 
ATOM     31  C   UNL     1      31.301  -8.927 -23.137  0.00  0.00    +0.019 C 
ATOM     32  C   UNL     1      32.743  -6.770 -21.949  0.00  0.00    +0.019 C 
ATOM     33  C   UNL     1      31.622  -7.782 -23.872  0.00  0.00    +0.002 C 
ATOM     34  C   UNL     1      32.335  -6.715 -23.284  0.00  0.00    +0.002 C 
ATOM     35  H   UNL     1      33.180  -7.658 -19.280  0.00  0.00    +0.170 HD
ENDBRANCH  24  26
ENDBRANCH  23  24
ENDBRANCH  22  23
ENDBRANCH   2  22
TORSDOF 7
ENDMDL
MODEL 2
REMARK VINA RESULT:     -11.8      5.138      9.608
REMARK  Name = 4615
REMARK  7 active torsions:
REMARK  status: ('A' for Active; 'I' for Inactive)
REMARK    1  A    between atoms: N_1  and  C_9
REMARK    2  A    between atoms: N_2  and  C_22
REMARK    3  A    between atoms: C_9  and  C_10
REMARK    4  A    between atoms: C_9  and  C_16
REMARK    5  A    between atoms: C_22  and  C_23
REMARK    6  A    between atoms: C_23  and  C_24
REMARK    7  A    between atoms: C_24  and  N_26
REMARK                            x       y       z     vdW  Elec       q    Type
REMARK                         _______ _______ _______ _____ _____    ______ ____
ROOT
ATOM      1  N   UNL     1      34.915 -23.260 -16.268  0.00  0.00    +0.390 N 
ATOM      2  N   UNL     1      34.862 -21.696 -18.700  0.00  0.00    +0.384 N 
ATOM      3  C   UNL     1      33.658 -22.999 -16.979  0.00  0.00    -0.100 C 
ATOM      4  C   UNL     1      35.866 -22.164 -16.491  0.00  0.00    -0.100 C 
ATOM      5  C   UNL     1      33.910 -22.791 -18.476  0.00  0.00    -0.101 C 
ATOM      6  C   UNL     1      36.120 -21.958 -17.988  0.00  0.00    -0.101 C 
ATOM      7  H   UNL     1      35.322 -24.119 -16.640  0.00  0.00    -0.079 HD
ATOM      8  H   UNL     1      34.456 -20.837 -18.330  0.00  0.00    -0.080 HD
ENDROOT
BRANCH   1   9
ATOM      9  C   UNL     1      34.674 -23.456 -14.841  0.00  0.00    -0.012 C 
BRANCH   9  10
ATOM     10  C   UNL     1      33.210 -23.731 -14.533  0.00  0.00    -0.038 C 
ATOM     11  C   UNL     1      32.300 -22.698 -14.637  0.00  0.00    -0.006 C 
ATOM     12  C   UNL     1      32.834 -25.005 -14.157  0.00  0.00    -0.006 C 
ATOM     13  C   UNL     1      30.958 -22.950 -14.354  0.00  0.00    -0.000 C 
ATOM     14  C   UNL     1      31.492 -25.257 -13.874  0.00  0.00    -0.000 C 
ATOM     15  C   UNL     1      30.554 -24.230 -13.973  0.00  0.00    -0.000 C 
ENDBRANCH   9  10
BRANCH   9  16
ATOM     16  C   UNL     1      35.589 -24.512 -14.237  0.00  0.00    -0.038 C 
ATOM     17  C   UNL     1      36.047 -25.536 -15.041  0.00  0.00    -0.006 C 
ATOM     18  C   UNL     1      35.931 -24.415 -12.904  0.00  0.00    -0.006 C 
ATOM     19  C   UNL     1      36.884 -26.504 -14.488  0.00  0.00    -0.000 C 
ATOM     20  C   UNL     1      36.769 -25.384 -12.350  0.00  0.00    -0.000 C 
ATOM     21  C   UNL     1      37.246 -26.428 -13.143  0.00  0.00    -0.000 C 
ENDBRANCH   9  16
ENDBRANCH   1   9
BRANCH   2  22
ATOM     22  C   UNL     1      35.105 -21.502 -20.127  0.00  0.00    -0.076 C 
BRANCH  22  23
ATOM     23  C   UNL     1      34.583 -20.149 -20.618  0.00  0.00    +0.002 C 
BRANCH  23  24
ATOM     24  C   UNL     1      35.666 -19.093 -20.827  0.00  0.00    +0.108 C 
BRANCH  24  26
ATOM     25  O   UNL     1      35.116 -16.279 -19.887  0.00  0.00    -0.247 OA
ATOM     26  N   UNL     1      35.193 -17.958 -21.570  0.00  0.00    -0.280 N 
ATOM     27  N   UNL     1      34.502 -15.866 -22.132  0.00  0.00    -0.305 N 
ATOM     28  C   UNL     1      34.884 -17.947 -22.942  0.00  0.00    +0.079 A 
ATOM     29  C   UNL     1      34.960 -16.655 -21.039  0.00  0.00    +0.328 A 
ATOM     30  C   UNL     1      34.461 -16.662 -23.278  0.00  0.00    +0.076 A 
ATOM     31  C   UNL     1      34.947 -18.954 -23.882  0.00  0.00    +0.019 C 
ATOM     32  C   UNL     1      34.083 -16.320 -24.556  0.00  0.00    +0.019 C 
ATOM     33  C   UNL     1      34.569 -18.631 -25.189  0.00  0.00    +0.002 C 
ATOM     34  C   UNL     1      34.141 -17.328 -25.522  0.00  0.00    +0.002 C 
ATOM     35  H   UNL     1      34.255 -14.914 -22.087  0.00  0.00    +0.170 HD
ENDBRANCH  24  26
ENDBRANCH  23  24
ENDBRANCH  22  23
ENDBRANCH   2  22
TORSDOF 7
ENDMDL
MODEL 3
REMARK VINA RESULT:     -11.8      5.121      9.563
REMARK  Name = 4615
REMARK  7 active torsions:
REMARK  status: ('A' for Active; 'I' for Inactive)
REMARK    1  A    between atoms: N_1  and  C_9
REMARK    2  A    between atoms: N_2  and  C_22
REMARK    3  A    between atoms: C_9  and  C_10
REMARK    4  A    between atoms: C_9  and  C_16
REMARK    5  A    between atoms: C_22  and  C_23
REMARK    6  A    between atoms: C_23  and  C_24
REMARK    7  A    between atoms: C_24  and  N_26
REMARK                            x       y       z     vdW  Elec       q    Type
REMARK                         _______ _______ _______ _____ _____    ______ ____
ROOT
ATOM      1  N   UNL     1      35.021 -23.143 -16.264  0.00  0.00    +0.390 N 
ATOM      2  N   UNL     1      35.259 -21.680 -18.746  0.00  0.00    +0.384 N 
ATOM      3  C   UNL     1      33.848 -22.866 -17.100  0.00  0.00    -0.100 C 
ATOM      4  C   UNL     1      36.033 -22.093 -16.436  0.00  0.00    -0.100 C 
ATOM      5  C   UNL     1      34.247 -22.730 -18.573  0.00  0.00    -0.101 C 
ATOM      6  C   UNL     1      36.433 -21.958 -17.909  0.00  0.00    -0.101 C 
ATOM      7  H   UNL     1      35.426 -24.031 -16.562  0.00  0.00    -0.079 HD
ATOM      8  H   UNL     1      34.855 -20.792 -18.449  0.00  0.00    -0.080 HD
ENDROOT
BRANCH   1   9
ATOM      9  C   UNL     1      34.640 -23.272 -14.859  0.00  0.00    -0.012 C 
BRANCH   9  10
ATOM     10  C   UNL     1      33.161 -23.585 -14.686  0.00  0.00    -0.038 C 
ATOM     11  C   UNL     1      32.236 -22.586 -14.912  0.00  0.00    -0.006 C 
ATOM     12  C   UNL     1      32.788 -24.859 -14.308  0.00  0.00    -0.006 C 
ATOM     13  C   UNL     1      30.880 -22.873 -14.753  0.00  0.00    -0.000 C 
ATOM     14  C   UNL     1      31.432 -25.146 -14.150  0.00  0.00    -0.000 C 
ATOM     15  C   UNL     1      30.479 -24.153 -14.373  0.00  0.00    -0.000 C 
ENDBRANCH   9  10
BRANCH   9  16
ATOM     16  C   UNL     1      35.520 -24.258 -14.106  0.00  0.00    -0.038 C 
ATOM     17  C   UNL     1      35.692 -24.096 -12.747  0.00  0.00    -0.006 C 
ATOM     18  C   UNL     1      36.122 -25.284 -14.805  0.00  0.00    -0.006 C 
ATOM     19  C   UNL     1      36.500 -24.999 -12.056  0.00  0.00    -0.000 C 
ATOM     20  C   UNL     1      36.930 -26.189 -14.114  0.00  0.00    -0.000 C 
ATOM     21  C   UNL     1      37.118 -26.046 -12.740  0.00  0.00    -0.000 C 
ENDBRANCH   9  16
ENDBRANCH   1   9
BRANCH   2  22
ATOM     22  C   UNL     1      35.642 -21.554 -20.150  0.00  0.00    -0.076 C 
BRANCH  22  23
ATOM     23  C   UNL     1      35.731 -20.090 -20.590  0.00  0.00    +0.002 C 
BRANCH  23  24
ATOM     24  C   UNL     1      34.414 -19.499 -21.088  0.00  0.00    +0.108 C 
BRANCH  24  26
ATOM     25  O   UNL     1      35.140 -19.856 -23.994  0.00  0.00    -0.247 OA
ATOM     26  N   UNL     1      34.606 -18.507 -22.109  0.00  0.00    -0.280 N 
ATOM     27  N   UNL     1      35.032 -17.497 -24.101  0.00  0.00    -0.305 N 
ATOM     28  C   UNL     1      34.485 -17.117 -21.936  0.00  0.00    +0.079 A 
ATOM     29  C   UNL     1      34.950 -18.770 -23.468  0.00  0.00    +0.328 A 
ATOM     30  C   UNL     1      34.748 -16.506 -23.161  0.00  0.00    +0.076 A 
ATOM     31  C   UNL     1      34.170 -16.379 -20.815  0.00  0.00    +0.019 C 
ATOM     32  C   UNL     1      34.711 -15.140 -23.327  0.00  0.00    +0.019 C 
ATOM     33  C   UNL     1      34.125 -14.989 -20.958  0.00  0.00    +0.002 C 
ATOM     34  C   UNL     1      34.393 -14.376 -22.201  0.00  0.00    +0.002 C 
ATOM     35  H   UNL     1      35.254 -17.342 -25.047  0.00  0.00    +0.170 HD
ENDBRANCH  24  26
ENDBRANCH  23  24
ENDBRANCH  22  23
ENDBRANCH   2  22
TORSDOF 7
ENDMDL
MODEL 4
REMARK VINA RESULT:     -11.8      2.023      2.500
REMARK  Name = 4615
REMARK  7 active torsions:
REMARK  status: ('A' for Active; 'I' for Inactive)
REMARK    1  A    between atoms: N_1  and  C_9
REMARK    2  A    between atoms: N_2  and  C_22
REMARK    3  A    between atoms: C_9  and  C_10
REMARK    4  A    between atoms: C_9  and  C_16
REMARK    5  A    between atoms: C_22  and  C_23
REMARK    6  A    between atoms: C_23  and  C_24
REMARK    7  A    between atoms: C_24  and  N_26
REMARK                            x       y       z     vdW  Elec       q    Type
REMARK                         _______ _______ _______ _____ _____    ______ ____
ROOT
ATOM      1  N   UNL     1      34.498 -16.635 -20.914  0.00  0.00    +0.390 N 
ATOM      2  N   UNL     1      32.673 -14.393 -20.866  0.00  0.00    +0.384 N 
ATOM      3  C   UNL     1      34.955 -15.275 -21.220  0.00  0.00    -0.100 C 
ATOM      4  C   UNL     1      33.084 -16.795 -21.277  0.00  0.00    -0.100 C 
ATOM      5  C   UNL     1      34.087 -14.234 -20.505  0.00  0.00    -0.101 C 
ATOM      6  C   UNL     1      32.217 -15.755 -20.559  0.00  0.00    -0.101 C 
ATOM      7  H   UNL     1      34.591 -16.787 -19.909  0.00  0.00    -0.079 HD
ATOM      8  H   UNL     1      32.578 -14.240 -21.870  0.00  0.00    -0.080 HD
ENDROOT
BRANCH   1   9
ATOM      9  C   UNL     1      35.325 -17.627 -21.598  0.00  0.00    -0.012 C 
BRANCH   9  10
ATOM     10  C   UNL     1      35.293 -18.983 -20.909  0.00  0.00    -0.038 C 
ATOM     11  C   UNL     1      34.072 -19.580 -20.665  0.00  0.00    -0.006 C 
ATOM     12  C   UNL     1      36.485 -19.576 -20.545  0.00  0.00    -0.006 C 
ATOM     13  C   UNL     1      34.043 -20.822 -20.033  0.00  0.00    -0.000 C 
ATOM     14  C   UNL     1      36.456 -20.818 -19.913  0.00  0.00    -0.000 C 
ATOM     15  C   UNL     1      35.236 -21.441 -19.657  0.00  0.00    -0.000 C 
ENDBRANCH   9  10
BRANCH   9  16
ATOM     16  C   UNL     1      34.994 -17.736 -23.080  0.00  0.00    -0.038 C 
ATOM     17  C   UNL     1      34.686 -18.975 -23.604  0.00  0.00    -0.006 C 
ATOM     18  C   UNL     1      35.012 -16.595 -23.854  0.00  0.00    -0.006 C 
ATOM     19  C   UNL     1      34.383 -19.076 -24.962  0.00  0.00    -0.000 C 
ATOM     20  C   UNL     1      34.709 -16.696 -25.213  0.00  0.00    -0.000 C 
ATOM     21  C   UNL     1      34.394 -17.936 -25.766  0.00  0.00    -0.000 C 
ENDBRANCH   9  16
ENDBRANCH   1   9
BRANCH   2  22
ATOM     22  C   UNL     1      31.847 -13.403 -20.179  0.00  0.00    -0.076 C 
BRANCH  22  23
ATOM     23  C   UNL     1      32.078 -11.990 -20.721  0.00  0.00    +0.002 C 
BRANCH  23  24
ATOM     24  C   UNL     1      31.641 -11.789 -22.171  0.00  0.00    +0.108 C 
BRANCH  24  26
ATOM     25  O   UNL     1      33.346 -13.540 -23.942  0.00  0.00    -0.247 OA
ATOM     26  N   UNL     1      32.734 -11.429 -23.031  0.00  0.00    -0.280 N 
ATOM     27  N   UNL     1      34.456 -11.532 -24.511  0.00  0.00    -0.305 N 
ATOM     28  C   UNL     1      33.237 -10.129 -23.217  0.00  0.00    +0.079 A 
ATOM     29  C   UNL     1      33.489 -12.330 -23.839  0.00  0.00    +0.328 A 
ATOM     30  C   UNL     1      34.292 -10.201 -24.125  0.00  0.00    +0.076 A 
ATOM     31  C   UNL     1      32.844  -8.930 -22.662  0.00  0.00    +0.019 C 
ATOM     32  C   UNL     1      35.002  -9.091 -24.522  0.00  0.00    +0.019 C 
ATOM     33  C   UNL     1      33.549  -7.786 -23.050  0.00  0.00    +0.002 C 
ATOM     34  C   UNL     1      34.616  -7.866 -23.969  0.00  0.00    +0.002 C 
ATOM     35  H   UNL     1      35.132 -11.864 -25.146  0.00  0.00    +0.170 HD
ENDBRANCH  24  26
ENDBRANCH  23  24
ENDBRANCH  22  23
ENDBRANCH   2  22
TORSDOF 7
ENDMDL
MODEL 5
REMARK VINA RESULT:     -11.6      4.237      8.153
REMARK  Name = 4615
REMARK  7 active torsions:
REMARK  status: ('A' for Active; 'I' for Inactive)
REMARK    1  A    between atoms: N_1  and  C_9
REMARK    2  A    between atoms: N_2  and  C_22
REMARK    3  A    between atoms: C_9  and  C_10
REMARK    4  A    between atoms: C_9  and  C_16
REMARK    5  A    between atoms: C_22  and  C_23
REMARK    6  A    between atoms: C_23  and  C_24
REMARK    7  A    between atoms: C_24  and  N_26
REMARK                            x       y       z     vdW  Elec       q    Type
REMARK                         _______ _______ _______ _____ _____    ______ ____
ROOT
ATOM      1  N   UNL     1      34.434 -22.378 -17.540  0.00  0.00    +0.390 N 
ATOM      2  N   UNL     1      35.447 -21.312 -20.029  0.00  0.00    +0.384 N 
ATOM      3  C   UNL     1      35.865 -22.427 -17.863  0.00  0.00    -0.100 C 
ATOM      4  C   UNL     1      33.630 -22.414 -18.768  0.00  0.00    -0.100 C 
ATOM      5  C   UNL     1      36.252 -21.278 -18.801  0.00  0.00    -0.101 C 
ATOM      6  C   UNL     1      34.016 -21.264 -19.705  0.00  0.00    -0.101 C 
ATOM      7  H   UNL     1      34.243 -21.501 -17.056  0.00  0.00    -0.079 HD
ATOM      8  H   UNL     1      35.638 -22.188 -20.515  0.00  0.00    -0.080 HD
ENDROOT
BRANCH   1   9
ATOM      9  C   UNL     1      34.066 -23.475 -16.647  0.00  0.00    -0.012 C 
BRANCH   9  10
ATOM     10  C   UNL     1      35.153 -23.780 -15.626  0.00  0.00    -0.038 C 
ATOM     11  C   UNL     1      35.455 -25.098 -15.347  0.00  0.00    -0.006 C 
ATOM     12  C   UNL     1      35.803 -22.732 -15.008  0.00  0.00    -0.006 C 
ATOM     13  C   UNL     1      36.450 -25.379 -14.412  0.00  0.00    -0.000 C 
ATOM     14  C   UNL     1      36.799 -23.012 -14.073  0.00  0.00    -0.000 C 
ATOM     15  C   UNL     1      37.122 -24.335 -13.775  0.00  0.00    -0.000 C 
ENDBRANCH   9  10
BRANCH   9  16
ATOM     16  C   UNL     1      32.713 -23.256 -15.986  0.00  0.00    -0.038 C 
ATOM     17  C   UNL     1      32.648 -23.176 -14.610  0.00  0.00    -0.006 C 
ATOM     18  C   UNL     1      31.592 -23.147 -16.783  0.00  0.00    -0.006 C 
ATOM     19  C   UNL     1      31.408 -22.977 -14.004  0.00  0.00    -0.000 C 
ATOM     20  C   UNL     1      30.350 -22.947 -16.176  0.00  0.00    -0.000 C 
ATOM     21  C   UNL     1      30.259 -22.861 -14.788  0.00  0.00    -0.000 C 
ENDBRANCH   9  16
ENDBRANCH   1   9
BRANCH   2  22
ATOM     22  C   UNL     1      35.814 -20.214 -20.921  0.00  0.00    -0.076 C 
BRANCH  22  23
ATOM     23  C   UNL     1      34.742 -19.121 -20.955  0.00  0.00    +0.002 C 
BRANCH  23  24
ATOM     24  C   UNL     1      35.292 -17.696 -20.954  0.00  0.00    +0.108 C 
BRANCH  24  26
ATOM     25  O   UNL     1      35.470 -17.995 -23.951  0.00  0.00    -0.247 OA
ATOM     26  N   UNL     1      34.715 -16.883 -21.988  0.00  0.00    -0.280 N 
ATOM     27  N   UNL     1      34.120 -16.055 -24.020  0.00  0.00    -0.305 N 
ATOM     28  C   UNL     1      33.922 -15.740 -21.786  0.00  0.00    +0.079 A 
ATOM     29  C   UNL     1      34.853 -17.101 -23.391  0.00  0.00    +0.328 A 
ATOM     30  C   UNL     1      33.561 -15.239 -23.036  0.00  0.00    +0.076 A 
ATOM     31  C   UNL     1      33.509 -15.133 -20.619  0.00  0.00    +0.019 C 
ATOM     32  C   UNL     1      32.778 -14.117 -23.183  0.00  0.00    +0.019 C 
ATOM     33  C   UNL     1      32.712 -13.990 -20.742  0.00  0.00    +0.002 C 
ATOM     34  C   UNL     1      32.350 -13.488 -22.011  0.00  0.00    +0.002 C 
ATOM     35  H   UNL     1      34.023 -15.928 -24.992  0.00  0.00    +0.170 HD
ENDBRANCH  24  26
ENDBRANCH  23  24
ENDBRANCH  22  23
ENDBRANCH   2  22
TORSDOF 7
ENDMDL
MODEL 6
REMARK VINA RESULT:     -11.6      3.535     10.184
REMARK  Name = 4615
REMARK  7 active torsions:
REMARK  status: ('A' for Active; 'I' for Inactive)
REMARK    1  A    between atoms: N_1  and  C_9
REMARK    2  A    between atoms: N_2  and  C_22
REMARK    3  A    between atoms: C_9  and  C_10
REMARK    4  A    between atoms: C_9  and  C_16
REMARK    5  A    between atoms: C_22  and  C_23
REMARK    6  A    between atoms: C_23  and  C_24
REMARK    7  A    between atoms: C_24  and  N_26
REMARK                            x       y       z     vdW  Elec       q    Type
REMARK                         _______ _______ _______ _____ _____    ______ ____
ROOT
ATOM      1  N   UNL     1      33.483 -14.816 -22.444  0.00  0.00    +0.390 N 
ATOM      2  N   UNL     1      34.494 -17.500 -22.076  0.00  0.00    +0.384 N 
ATOM      3  C   UNL     1      32.764 -15.795 -21.620  0.00  0.00    -0.100 C 
ATOM      4  C   UNL     1      34.243 -15.496 -23.500  0.00  0.00    -0.100 C 
ATOM      5  C   UNL     1      33.732 -16.820 -21.021  0.00  0.00    -0.101 C 
ATOM      6  C   UNL     1      35.213 -16.520 -22.900  0.00  0.00    -0.101 C 
ATOM      7  H   UNL     1      34.141 -14.314 -21.846  0.00  0.00    -0.079 HD
ATOM      8  H   UNL     1      33.838 -18.003 -22.674  0.00  0.00    -0.080 HD
ENDROOT
BRANCH   1   9
ATOM      9  C   UNL     1      32.559 -13.840 -23.015  0.00  0.00    -0.012 C 
BRANCH   9  10
ATOM     10  C   UNL     1      32.117 -12.796 -22.000  0.00  0.00    -0.038 C 
ATOM     11  C   UNL     1      32.321 -13.043 -20.657  0.00  0.00    -0.006 C 
ATOM     12  C   UNL     1      31.524 -11.634 -22.451  0.00  0.00    -0.006 C 
ATOM     13  C   UNL     1      31.916 -12.087 -19.726  0.00  0.00    -0.000 C 
ATOM     14  C   UNL     1      31.119 -10.678 -21.520  0.00  0.00    -0.000 C 
ATOM     15  C   UNL     1      31.315 -10.904 -20.158  0.00  0.00    -0.000 C 
ENDBRANCH   9  10
BRANCH   9  16
ATOM     16  C   UNL     1      33.101 -13.201 -24.285  0.00  0.00    -0.038 C 
ATOM     17  C   UNL     1      33.864 -12.055 -24.182  0.00  0.00    -0.006 C 
ATOM     18  C   UNL     1      32.813 -13.785 -25.502  0.00  0.00    -0.006 C 
ATOM     19  C   UNL     1      34.361 -11.469 -25.346  0.00  0.00    -0.000 C 
ATOM     20  C   UNL     1      33.311 -13.198 -26.666  0.00  0.00    -0.000 C 
ATOM     21  C   UNL     1      34.085 -12.041 -26.588  0.00  0.00    -0.000 C 
ENDBRANCH   9  16
ENDBRANCH   1   9
BRANCH   2  22
ATOM     22  C   UNL     1      35.420 -18.474 -21.504  0.00  0.00    -0.076 C 
BRANCH  22  23
ATOM     23  C   UNL     1      34.694 -19.532 -20.669  0.00  0.00    +0.002 C 
BRANCH  23  24
ATOM     24  C   UNL     1      35.527 -20.773 -20.357  0.00  0.00    +0.108 C 
BRANCH  24  26
ATOM     25  O   UNL     1      32.778 -21.987 -20.090  0.00  0.00    -0.247 OA
ATOM     26  N   UNL     1      34.975 -21.554 -19.286  0.00  0.00    -0.280 N 
ATOM     27  N   UNL     1      33.556 -22.784 -18.005  0.00  0.00    -0.305 N 
ATOM     28  C   UNL     1      35.645 -21.916 -18.105  0.00  0.00    +0.079 A 
ATOM     29  C   UNL     1      33.654 -22.092 -19.244  0.00  0.00    +0.328 A 
ATOM     30  C   UNL     1      34.769 -22.669 -17.325  0.00  0.00    +0.076 A 
ATOM     31  C   UNL     1      36.929 -21.639 -17.683  0.00  0.00    +0.019 C 
ATOM     32  C   UNL     1      35.125 -23.179 -16.097  0.00  0.00    +0.019 C 
ATOM     33  C   UNL     1      37.315 -22.146 -16.438  0.00  0.00    +0.002 C 
ATOM     34  C   UNL     1      36.423 -22.908 -15.654  0.00  0.00    +0.002 C 
ATOM     35  H   UNL     1      32.761 -23.265 -17.679  0.00  0.00    +0.170 HD
ENDBRANCH  24  26
ENDBRANCH  23  24
ENDBRANCH  22  23
ENDBRANCH   2  22
TORSDOF 7
ENDMDL
MODEL 7
REMARK VINA RESULT:     -11.6      3.204      9.943
REMARK  Name = 4615
REMARK  7 active torsions:
REMARK  status: ('A' for Active; 'I' for Inactive)
REMARK    1  A    between atoms: N_1  and  C_9
REMARK    2  A    between atoms: N_2  and  C_22
REMARK    3  A    between atoms: C_9  and  C_10
REMARK    4  A    between atoms: C_9  and  C_16
REMARK    5  A    between atoms: C_22  and  C_23
REMARK    6  A    between atoms: C_23  and  C_24
REMARK    7  A    between atoms: C_24  and  N_26
REMARK                            x       y       z     vdW  Elec       q    Type
REMARK                         _______ _______ _______ _____ _____    ______ ____
ROOT
ATOM      1  N   UNL     1      33.121 -12.417 -22.738  0.00  0.00    +0.390 N 
ATOM      2  N   UNL     1      33.161 -15.193 -21.934  0.00  0.00    +0.384 N 
ATOM      3  C   UNL     1      31.927 -13.067 -22.186  0.00  0.00    -0.100 C 
ATOM      4  C   UNL     1      33.966 -13.399 -23.429  0.00  0.00    -0.100 C 
ATOM      5  C   UNL     1      32.315 -14.212 -21.244  0.00  0.00    -0.101 C 
ATOM      6  C   UNL     1      34.355 -14.542 -22.486  0.00  0.00    -0.101 C 
ATOM      7  H   UNL     1      33.657 -12.019 -21.966  0.00  0.00    -0.079 HD
ATOM      8  H   UNL     1      32.626 -15.593 -22.705  0.00  0.00    -0.080 HD
ENDROOT
BRANCH   1   9
ATOM      9  C   UNL     1      32.751 -11.327 -23.638  0.00  0.00    -0.012 C 
BRANCH   9  10
ATOM     10  C   UNL     1      32.397 -10.051 -22.888  0.00  0.00    -0.038 C 
ATOM     11  C   UNL     1      32.056  -8.925 -23.609  0.00  0.00    -0.006 C 
ATOM     12  C   UNL     1      32.429 -10.056 -21.508  0.00  0.00    -0.006 C 
ATOM     13  C   UNL     1      31.732  -7.755 -22.922  0.00  0.00    -0.000 C 
ATOM     14  C   UNL     1      32.106  -8.887 -20.820  0.00  0.00    -0.000 C 
ATOM     15  C   UNL     1      31.757  -7.737 -21.527  0.00  0.00    -0.000 C 
ENDBRANCH   9  10
BRANCH   9  16
ATOM     16  C   UNL     1      33.798 -11.080 -24.714  0.00  0.00    -0.038 C 
ATOM     17  C   UNL     1      34.771 -10.127 -24.491  0.00  0.00    -0.006 C 
ATOM     18  C   UNL     1      33.742 -11.815 -25.880  0.00  0.00    -0.006 C 
ATOM     19  C   UNL     1      35.731  -9.900 -25.477  0.00  0.00    -0.000 C 
ATOM     20  C   UNL     1      34.703 -11.588 -26.867  0.00  0.00    -0.000 C 
ATOM     21  C   UNL     1      35.697 -10.631 -26.665  0.00  0.00    -0.000 C 
ENDBRANCH   9  16
ENDBRANCH   1   9
BRANCH   2  22
ATOM     22  C   UNL     1      33.533 -16.282 -21.033  0.00  0.00    -0.076 C 
BRANCH  22  23
ATOM     23  C   UNL     1      34.992 -16.707 -21.221  0.00  0.00    +0.002 C 
BRANCH  23  24
ATOM     24  C   UNL     1      35.178 -17.987 -22.033  0.00  0.00    +0.108 C 
BRANCH  24  26
ATOM     25  O   UNL     1      37.945 -18.977 -21.349  0.00  0.00    -0.247 OA
ATOM     26  N   UNL     1      35.573 -19.103 -21.220  0.00  0.00    -0.280 N 
ATOM     27  N   UNL     1      36.820 -20.645 -20.108  0.00  0.00    -0.305 N 
ATOM     28  C   UNL     1      34.701 -19.985 -20.558  0.00  0.00    +0.079 A 
ATOM     29  C   UNL     1      36.916 -19.500 -20.949  0.00  0.00    +0.328 A 
ATOM     30  C   UNL     1      35.473 -20.927 -19.880  0.00  0.00    +0.076 A 
ATOM     31  C   UNL     1      33.323 -20.016 -20.514  0.00  0.00    +0.019 C 
ATOM     32  C   UNL     1      34.915 -21.937 -19.129  0.00  0.00    +0.019 C 
ATOM     33  C   UNL     1      32.731 -21.032 -19.757  0.00  0.00    +0.002 C 
ATOM     34  C   UNL     1      33.519 -21.983 -19.073  0.00  0.00    +0.002 C 
ATOM     35  H   UNL     1      37.581 -21.154 -19.746  0.00  0.00    +0.170 HD
ENDBRANCH  24  26
ENDBRANCH  23  24
ENDBRANCH  22  23
ENDBRANCH   2  22
TORSDOF 7
ENDMDL
MODEL 8
REMARK VINA RESULT:     -11.6      4.327      8.331
REMARK  Name = 4615
REMARK  7 active torsions:
REMARK  status: ('A' for Active; 'I' for Inactive)
REMARK    1  A    between atoms: N_1  and  C_9
REMARK    2  A    between atoms: N_2  and  C_22
REMARK    3  A    between atoms: C_9  and  C_10
REMARK    4  A    between atoms: C_9  and  C_16
REMARK    5  A    between atoms: C_22  and  C_23
REMARK    6  A    between atoms: C_23  and  C_24
REMARK    7  A    between atoms: C_24  and  N_26
REMARK                            x       y       z     vdW  Elec       q    Type
REMARK                         _______ _______ _______ _____ _____    ______ ____
ROOT
ATOM      1  N   UNL     1      34.664 -22.411 -17.385  0.00  0.00    +0.390 N 
ATOM      2  N   UNL     1      35.919 -21.263 -19.723  0.00  0.00    +0.384 N 
ATOM      3  C   UNL     1      36.122 -22.417 -17.547  0.00  0.00    -0.100 C 
ATOM      4  C   UNL     1      34.003 -22.437 -18.695  0.00  0.00    -0.100 C 
ATOM      5  C   UNL     1      36.581 -21.239 -18.412  0.00  0.00    -0.101 C 
ATOM      6  C   UNL     1      34.460 -21.257 -19.560  0.00  0.00    -0.101 C 
ATOM      7  H   UNL     1      34.397 -21.549 -16.907  0.00  0.00    -0.079 HD
ATOM      8  H   UNL     1      36.185 -22.123 -20.202  0.00  0.00    -0.080 HD
ENDROOT
BRANCH   1   9
ATOM      9  C   UNL     1      34.228 -23.536 -16.561  0.00  0.00    -0.012 C 
BRANCH   9  10
ATOM     10  C   UNL     1      35.255 -23.912 -15.502  0.00  0.00    -0.038 C 
ATOM     11  C   UNL     1      35.639 -25.232 -15.384  0.00  0.00    -0.006 C 
ATOM     12  C   UNL     1      35.771 -22.922 -14.691  0.00  0.00    -0.006 C 
ATOM     13  C   UNL     1      36.580 -25.577 -14.414  0.00  0.00    -0.000 C 
ATOM     14  C   UNL     1      36.712 -23.266 -13.721  0.00  0.00    -0.000 C 
ATOM     15  C   UNL     1      37.116 -24.593 -13.583  0.00  0.00    -0.000 C 
ENDBRANCH   9  10
BRANCH   9  16
ATOM     16  C   UNL     1      32.848 -23.314 -15.958  0.00  0.00    -0.038 C 
ATOM     17  C   UNL     1      32.713 -23.312 -14.585  0.00  0.00    -0.006 C 
ATOM     18  C   UNL     1      31.774 -23.125 -16.803  0.00  0.00    -0.006 C 
ATOM     19  C   UNL     1      31.448 -23.109 -14.032  0.00  0.00    -0.000 C 
ATOM     20  C   UNL     1      30.509 -22.922 -16.250  0.00  0.00    -0.000 C 
ATOM     21  C   UNL     1      30.346 -22.914 -14.865  0.00  0.00    -0.000 C 
ENDBRANCH   9  16
ENDBRANCH   1   9
BRANCH   2  22
ATOM     22  C   UNL     1      36.353 -20.137 -20.545  0.00  0.00    -0.076 C 
BRANCH  22  23
ATOM     23  C   UNL     1      35.195 -19.528 -21.341  0.00  0.00    +0.002 C 
BRANCH  23  24
ATOM     24  C   UNL     1      35.626 -18.667 -22.526  0.00  0.00    +0.108 C 
BRANCH  24  26
ATOM     25  O   UNL     1      35.323 -16.773 -20.197  0.00  0.00    -0.247 OA
ATOM     26  N   UNL     1      35.053 -17.351 -22.489  0.00  0.00    -0.280 N 
ATOM     27  N   UNL     1      34.320 -15.322 -21.771  0.00  0.00    -0.305 N 
ATOM     28  C   UNL     1      34.499 -16.666 -23.585  0.00  0.00    +0.079 A 
ATOM     29  C   UNL     1      34.951 -16.521 -21.333  0.00  0.00    +0.328 A 
ATOM     30  C   UNL     1      34.052 -15.425 -23.136  0.00  0.00    +0.076 A 
ATOM     31  C   UNL     1      34.366 -17.047 -24.903  0.00  0.00    +0.019 C 
ATOM     32  C   UNL     1      33.456 -14.508 -23.972  0.00  0.00    +0.019 C 
ATOM     33  C   UNL     1      33.763 -16.134 -25.773  0.00  0.00    +0.002 C 
ATOM     34  C   UNL     1      33.313 -14.878 -25.313  0.00  0.00    +0.002 C 
ATOM     35  H   UNL     1      34.107 -14.547 -21.202  0.00  0.00    +0.170 HD
ENDBRANCH  24  26
ENDBRANCH  23  24
ENDBRANCH  22  23
ENDBRANCH   2  22
TORSDOF 7
ENDMDL
MODEL 9
REMARK VINA RESULT:     -11.3      3.637     10.474
REMARK  Name = 4615
REMARK  7 active torsions:
REMARK  status: ('A' for Active; 'I' for Inactive)
REMARK    1  A    between atoms: N_1  and  C_9
REMARK    2  A    between atoms: N_2  and  C_22
REMARK    3  A    between atoms: C_9  and  C_10
REMARK    4  A    between atoms: C_9  and  C_16
REMARK    5  A    between atoms: C_22  and  C_23
REMARK    6  A    between atoms: C_23  and  C_24
REMARK    7  A    between atoms: C_24  and  N_26
REMARK                            x       y       z     vdW  Elec       q    Type
REMARK                         _______ _______ _______ _____ _____    ______ ____
ROOT
ATOM      1  N   UNL     1      33.819 -15.425 -22.974  0.00  0.00    +0.390 N 
ATOM      2  N   UNL     1      35.037 -17.979 -22.382  0.00  0.00    +0.384 N 
ATOM      3  C   UNL     1      34.608 -16.144 -23.981  0.00  0.00    -0.100 C 
ATOM      4  C   UNL     1      34.295 -15.748 -21.624  0.00  0.00    -0.100 C 
ATOM      5  C   UNL     1      34.562 -17.656 -23.733  0.00  0.00    -0.101 C 
ATOM      6  C   UNL     1      34.246 -17.259 -21.375  0.00  0.00    -0.101 C 
ATOM      7  H   UNL     1      32.847 -15.726 -23.053  0.00  0.00    -0.079 HD
ATOM      8  H   UNL     1      36.008 -17.680 -22.302  0.00  0.00    -0.080 HD
ENDROOT
BRANCH   1   9
ATOM      9  C   UNL     1      33.865 -13.984 -23.211  0.00  0.00    -0.012 C 
BRANCH   9  10
ATOM     10  C   UNL     1      33.608 -13.627 -24.667  0.00  0.00    -0.038 C 
ATOM     11  C   UNL     1      34.076 -12.422 -25.152  0.00  0.00    -0.006 C 
ATOM     12  C   UNL     1      32.912 -14.517 -25.461  0.00  0.00    -0.006 C 
ATOM     13  C   UNL     1      33.840 -12.094 -26.487  0.00  0.00    -0.000 C 
ATOM     14  C   UNL     1      32.677 -14.189 -26.796  0.00  0.00    -0.000 C 
ATOM     15  C   UNL     1      33.140 -12.979 -27.308  0.00  0.00    -0.000 C 
ENDBRANCH   9  10
BRANCH   9  16
ATOM     16  C   UNL     1      32.954 -13.211 -22.268  0.00  0.00    -0.038 C 
ATOM     17  C   UNL     1      32.310 -12.084 -22.737  0.00  0.00    -0.006 C 
ATOM     18  C   UNL     1      32.800 -13.660 -20.972  0.00  0.00    -0.006 C 
ATOM     19  C   UNL     1      31.476 -11.376 -21.873  0.00  0.00    -0.000 C 
ATOM     20  C   UNL     1      31.964 -12.951 -20.108  0.00  0.00    -0.000 C 
ATOM     21  C   UNL     1      31.302 -11.809 -20.559  0.00  0.00    -0.000 C 
ENDBRANCH   9  16
ENDBRANCH   1   9
BRANCH   2  22
ATOM     22  C   UNL     1      34.988 -19.420 -22.145  0.00  0.00    -0.076 C 
BRANCH  22  23
ATOM     23  C   UNL     1      34.882 -19.753 -20.655  0.00  0.00    +0.002 C 
BRANCH  23  24
ATOM     24  C   UNL     1      35.673 -20.986 -20.224  0.00  0.00    +0.108 C 
BRANCH  24  26
ATOM     25  O   UNL     1      32.847 -22.018 -20.002  0.00  0.00    -0.247 OA
ATOM     26  N   UNL     1      35.043 -21.697 -19.147  0.00  0.00    -0.280 N 
ATOM     27  N   UNL     1      33.515 -22.796 -17.873  0.00  0.00    -0.305 N 
ATOM     28  C   UNL     1      35.657 -22.063 -17.936  0.00  0.00    +0.079 A 
ATOM     29  C   UNL     1      33.691 -22.150 -19.129  0.00  0.00    +0.328 A 
ATOM     30  C   UNL     1      34.714 -22.735 -17.161  0.00  0.00    +0.076 A 
ATOM     31  C   UNL     1      36.944 -21.854 -17.486  0.00  0.00    +0.019 C 
ATOM     32  C   UNL     1      35.003 -23.228 -15.909  0.00  0.00    +0.019 C 
ATOM     33  C   UNL     1      37.262 -22.344 -16.216  0.00  0.00    +0.002 C 
ATOM     34  C   UNL     1      36.303 -23.024 -15.436  0.00  0.00    +0.002 C 
ATOM     35  H   UNL     1      32.683 -23.216 -17.557  0.00  0.00    +0.170 HD
ENDBRANCH  24  26
ENDBRANCH  23  24
ENDBRANCH  22  23
ENDBRANCH   2  22
TORSDOF 7
ENDMDL
