MODEL 1
REMARK VINA RESULT:      -9.2      0.000      0.000
REMARK  Name = 102210
REMARK  2 active torsions:
REMARK  status: ('A' for Active; 'I' for Inactive)
REMARK    1  A    between atoms: C_6  and  C_21
REMARK    2  A    between atoms: C_6  and  O_23
REMARK                            x       y       z     vdW  Elec       q    Type
REMARK                         _______ _______ _______ _____ _____    ______ ____
ROOT
ATOM      1  O   UNL     1      39.704 -25.517 -13.692  0.00  0.00    -0.291 OA
ATOM      2  C   UNL     1      31.530 -23.721 -14.917  0.00  0.00    +0.029 C 
ATOM      3  C   UNL     1      32.637 -23.597 -15.990  0.00  0.00    +0.003 C 
ATOM      4  C   UNL     1      34.006 -23.249 -15.395  0.00  0.00    +0.001 C 
ATOM      5  C   UNL     1      34.423 -24.367 -14.396  0.00  0.00    +0.004 C 
ATOM      6  C   UNL     1      30.307 -23.973 -15.837  0.00  0.00    +0.139 C 
ATOM      7  C   UNL     1      31.925 -24.870 -13.975  0.00  0.00    +0.003 C 
ATOM      8  C   UNL     1      32.028 -22.656 -17.023  0.00  0.00    +0.003 C 
ATOM      9  C   UNL     1      33.315 -24.650 -13.351  0.00  0.00    +0.000 C 
ATOM     10  C   UNL     1      30.528 -23.014 -17.029  0.00  0.00    +0.034 C 
ATOM     11  C   UNL     1      35.799 -24.045 -13.736  0.00  0.00    +0.019 C 
ATOM     12  C   UNL     1      35.079 -23.094 -16.480  0.00  0.00    +0.004 C 
ATOM     13  C   UNL     1      31.321 -22.422 -14.090  0.00  0.00    +0.003 C 
ATOM     14  C   UNL     1      36.424 -22.730 -15.861  0.00  0.00    +0.022 C 
ATOM     15  C   UNL     1      36.847 -23.705 -14.789  0.00  0.00    -0.042 C 
ATOM     16  C   UNL     1      36.252 -25.214 -12.836  0.00  0.00    +0.012 C 
ATOM     17  C   UNL     1      37.710 -25.105 -12.426  0.00  0.00    +0.069 C 
ATOM     18  C   UNL     1      38.099 -24.186 -14.781  0.00  0.00    +0.029 C 
ATOM     19  C   UNL     1      38.585 -25.008 -13.649  0.00  0.00    +0.173 C 
ENDROOT
BRANCH   6  21
ATOM     20  O   UNL     1      28.523 -24.630 -14.395  0.00  0.00    -0.294 OA
ATOM     21  C   UNL     1      28.983 -23.782 -15.158  0.00  0.00    +0.175 C 
ATOM     22  C   UNL     1      28.248 -22.504 -15.453  0.00  0.00    +0.075 C 
ENDBRANCH   6  21
BRANCH   6  23
ATOM     23  O   UNL     1      30.291 -25.316 -16.310  0.00  0.00    -0.380 OA
ATOM     24  H   UNL     1      31.198 -25.605 -16.494  0.00  0.00    +0.211 HD
ENDBRANCH   6  23
TORSDOF 2
ENDMDL
MODEL 2
REMARK VINA RESULT:      -8.9      3.240      6.692
REMARK  Name = 102210
REMARK  2 active torsions:
REMARK  status: ('A' for Active; 'I' for Inactive)
REMARK    1  A    between atoms: C_6  and  C_21
REMARK    2  A    between atoms: C_6  and  O_23
REMARK                            x       y       z     vdW  Elec       q    Type
REMARK                         _______ _______ _______ _____ _____    ______ ____
ROOT
ATOM      1  O   UNL     1      33.353 -19.326 -21.373  0.00  0.00    -0.291 OA
ATOM      2  C   UNL     1      35.727 -23.944 -14.697  0.00  0.00    +0.029 C 
ATOM      3  C   UNL     1      36.601 -22.875 -15.394  0.00  0.00    +0.003 C 
ATOM      4  C   UNL     1      36.306 -22.747 -16.891  0.00  0.00    +0.001 C 
ATOM      5  C   UNL     1      34.812 -22.351 -17.081  0.00  0.00    +0.004 C 
ATOM      6  C   UNL     1      36.333 -23.881 -13.270  0.00  0.00    +0.139 C 
ATOM      7  C   UNL     1      34.261 -23.506 -14.837  0.00  0.00    +0.003 C 
ATOM      8  C   UNL     1      38.018 -23.232 -14.955  0.00  0.00    +0.003 C 
ATOM      9  C   UNL     1      33.861 -23.300 -16.310  0.00  0.00    +0.000 C 
ATOM     10  C   UNL     1      37.854 -23.745 -13.510  0.00  0.00    +0.034 C 
ATOM     11  C   UNL     1      34.449 -22.239 -18.593  0.00  0.00    +0.019 C 
ATOM     12  C   UNL     1      37.209 -21.709 -17.568  0.00  0.00    +0.004 C 
ATOM     13  C   UNL     1      35.902 -25.369 -15.291  0.00  0.00    +0.003 C 
ATOM     14  C   UNL     1      36.905 -21.618 -19.059  0.00  0.00    +0.022 C 
ATOM     15  C   UNL     1      35.445 -21.354 -19.333  0.00  0.00    -0.042 C 
ATOM     16  C   UNL     1      33.001 -21.737 -18.764  0.00  0.00    +0.012 C 
ATOM     17  C   UNL     1      32.696 -21.303 -20.187  0.00  0.00    +0.069 C 
ATOM     18  C   UNL     1      35.093 -20.410 -20.219  0.00  0.00    +0.029 C 
ATOM     19  C   UNL     1      33.678 -20.249 -20.629  0.00  0.00    +0.173 C 
ENDROOT
BRANCH   6  21
ATOM     20  O   UNL     1      34.908 -25.086 -11.782  0.00  0.00    -0.294 OA
ATOM     21  C   UNL     1      35.970 -25.049 -12.402  0.00  0.00    +0.175 C 
ATOM     22  C   UNL     1      36.966 -26.174 -12.329  0.00  0.00    +0.075 C 
ENDBRANCH   6  21
BRANCH   6  23
ATOM     23  O   UNL     1      35.863 -22.736 -12.566  0.00  0.00    -0.380 OA
ATOM     24  H   UNL     1      35.701 -22.014 -13.192  0.00  0.00    +0.211 HD
ENDBRANCH   6  23
TORSDOF 2
ENDMDL
MODEL 3
REMARK VINA RESULT:      -8.5     14.645     16.647
REMARK  Name = 102210
REMARK  2 active torsions:
REMARK  status: ('A' for Active; 'I' for Inactive)
REMARK    1  A    between atoms: C_6  and  C_21
REMARK    2  A    between atoms: C_6  and  O_23
REMARK                            x       y       z     vdW  Elec       q    Type
REMARK                         _______ _______ _______ _____ _____    ______ ____
ROOT
ATOM      1  O   UNL     1      33.764 -16.220 -21.055  0.00  0.00    -0.291 OA
ATOM      2  C   UNL     1      32.361  -8.217 -23.404  0.00  0.00    +0.029 C 
ATOM      3  C   UNL     1      32.464  -8.709 -21.941  0.00  0.00    +0.003 C 
ATOM      4  C   UNL     1      31.981 -10.151 -21.762  0.00  0.00    +0.001 C 
ATOM      5  C   UNL     1      32.849 -11.090 -22.651  0.00  0.00    +0.004 C 
ATOM      6  C   UNL     1      32.820  -6.748 -23.214  0.00  0.00    +0.139 C 
ATOM      7  C   UNL     1      33.272  -9.113 -24.258  0.00  0.00    +0.003 C 
ATOM      8  C   UNL     1      31.778  -7.604 -21.145  0.00  0.00    +0.003 C 
ATOM      9  C   UNL     1      32.907 -10.602 -24.120  0.00  0.00    +0.000 C 
ATOM     10  C   UNL     1      32.143  -6.307 -21.896  0.00  0.00    +0.034 C 
ATOM     11  C   UNL     1      32.377 -12.572 -22.530  0.00  0.00    +0.019 C 
ATOM     12  C   UNL     1      32.057 -10.604 -20.299  0.00  0.00    +0.004 C 
ATOM     13  C   UNL     1      30.915  -8.259 -23.971  0.00  0.00    +0.003 C 
ATOM     14  C   UNL     1      31.552 -12.036 -20.150  0.00  0.00    +0.022 C 
ATOM     15  C   UNL     1      32.265 -12.995 -21.071  0.00  0.00    -0.042 C 
ATOM     16  C   UNL     1      33.315 -13.503 -23.326  0.00  0.00    +0.012 C 
ATOM     17  C   UNL     1      33.105 -14.969 -22.991  0.00  0.00    +0.069 C 
ATOM     18  C   UNL     1      32.720 -14.164 -20.594  0.00  0.00    +0.029 C 
ATOM     19  C   UNL     1      33.270 -15.191 -21.510  0.00  0.00    +0.173 C 
ENDROOT
BRANCH   6  21
ATOM     20  O   UNL     1      33.139  -5.906 -25.425  0.00  0.00    -0.294 OA
ATOM     21  C   UNL     1      32.499  -5.854 -24.376  0.00  0.00    +0.175 C 
ATOM     22  C   UNL     1      31.354  -4.895 -24.196  0.00  0.00    +0.075 C 
ENDBRANCH   6  21
BRANCH   6  23
ATOM     23  O   UNL     1      34.234  -6.669 -23.066  0.00  0.00    -0.380 OA
ATOM     24  H   UNL     1      34.661  -6.921 -23.899  0.00  0.00    +0.211 HD
ENDBRANCH   6  23
TORSDOF 2
ENDMDL
MODEL 4
REMARK VINA RESULT:      -8.4     13.952     15.968
REMARK  Name = 102210
REMARK  2 active torsions:
REMARK  status: ('A' for Active; 'I' for Inactive)
REMARK    1  A    between atoms: C_6  and  C_21
REMARK    2  A    between atoms: C_6  and  O_23
REMARK                            x       y       z     vdW  Elec       q    Type
REMARK                         _______ _______ _______ _____ _____    ______ ____
ROOT
ATOM      1  O   UNL     1      34.566 -17.062 -23.188  0.00  0.00    -0.291 OA
ATOM      2  C   UNL     1      32.367  -8.905 -22.778  0.00  0.00    +0.029 C 
ATOM      3  C   UNL     1      32.533  -9.843 -21.559  0.00  0.00    +0.003 C 
ATOM      4  C   UNL     1      32.195 -11.302 -21.880  0.00  0.00    +0.001 C 
ATOM      5  C   UNL     1      33.140 -11.805 -23.010  0.00  0.00    +0.004 C 
ATOM      6  C   UNL     1      32.684  -7.546 -22.101  0.00  0.00    +0.139 C 
ATOM      7  C   UNL     1      33.352  -9.375 -23.861  0.00  0.00    +0.003 C 
ATOM      8  C   UNL     1      31.751  -9.136 -20.457  0.00  0.00    +0.003 C 
ATOM      9  C   UNL     1      33.135 -10.853 -24.233  0.00  0.00    +0.000 C 
ATOM     10  C   UNL     1      31.981  -7.635 -20.727  0.00  0.00    +0.034 C 
ATOM     11  C   UNL     1      32.816 -13.280 -23.399  0.00  0.00    +0.019 C 
ATOM     12  C   UNL     1      32.330 -12.207 -20.649  0.00  0.00    +0.004 C 
ATOM     13  C   UNL     1      30.926  -8.894 -23.358  0.00  0.00    +0.003 C 
ATOM     14  C   UNL     1      31.969 -13.647 -20.995  0.00  0.00    +0.022 C 
ATOM     15  C   UNL     1      32.761 -14.174 -22.166  0.00  0.00    -0.042 C 
ATOM     16  C   UNL     1      33.831 -13.800 -24.437  0.00  0.00    +0.012 C 
ATOM     17  C   UNL     1      33.768 -15.307 -24.613  0.00  0.00    +0.069 C 
ATOM     18  C   UNL     1      33.332 -15.385 -22.094  0.00  0.00    +0.029 C 
ATOM     19  C   UNL     1      33.970 -15.992 -23.286  0.00  0.00    +0.173 C 
ENDROOT
BRANCH   6  21
ATOM     20  O   UNL     1      32.785  -6.091 -23.990  0.00  0.00    -0.294 OA
ATOM     21  C   UNL     1      32.265  -6.352 -22.907  0.00  0.00    +0.175 C 
ATOM     22  C   UNL     1      31.176  -5.492 -22.327  0.00  0.00    +0.075 C 
ENDBRANCH   6  21
BRANCH   6  23
ATOM     23  O   UNL     1      34.085  -7.387 -21.904  0.00  0.00    -0.380 OA
ATOM     24  H   UNL     1      34.264  -6.501 -21.555  0.00  0.00    +0.211 HD
ENDBRANCH   6  23
TORSDOF 2
ENDMDL
MODEL 5
REMARK VINA RESULT:      -8.3      9.980     12.525
REMARK  Name = 102210
REMARK  2 active torsions:
REMARK  status: ('A' for Active; 'I' for Inactive)
REMARK    1  A    between atoms: C_6  and  C_21
REMARK    2  A    between atoms: C_6  and  O_23
REMARK                            x       y       z     vdW  Elec       q    Type
REMARK                         _______ _______ _______ _____ _____    ______ ____
ROOT
ATOM      1  O   UNL     1      33.643 -10.535 -25.267  0.00  0.00    -0.291 OA
ATOM      2  C   UNL     1      34.767 -18.118 -21.694  0.00  0.00    +0.029 C 
ATOM      3  C   UNL     1      34.977 -17.802 -23.194  0.00  0.00    +0.003 C 
ATOM      4  C   UNL     1      34.055 -16.691 -23.703  0.00  0.00    +0.001 C 
ATOM      5  C   UNL     1      34.331 -15.392 -22.892  0.00  0.00    +0.004 C 
ATOM      6  C   UNL     1      35.751 -19.307 -21.542  0.00  0.00    +0.139 C 
ATOM      7  C   UNL     1      35.105 -16.845 -20.902  0.00  0.00    +0.003 C 
ATOM      8  C   UNL     1      34.908 -19.173 -23.860  0.00  0.00    +0.003 C 
ATOM      9  C   UNL     1      34.265 -15.640 -21.364  0.00  0.00    +0.000 C 
ATOM     10  C   UNL     1      35.556 -20.128 -22.837  0.00  0.00    +0.034 C 
ATOM     11  C   UNL     1      33.393 -14.233 -23.350  0.00  0.00    +0.019 C 
ATOM     12  C   UNL     1      34.254 -16.421 -25.200  0.00  0.00    +0.004 C 
ATOM     13  C   UNL     1      33.320 -18.571 -21.355  0.00  0.00    +0.003 C 
ATOM     14  C   UNL     1      33.311 -15.324 -25.682  0.00  0.00    +0.022 C 
ATOM     15  C   UNL     1      33.431 -14.062 -24.864  0.00  0.00    -0.042 C 
ATOM     16  C   UNL     1      33.755 -12.924 -22.618  0.00  0.00    +0.012 C 
ATOM     17  C   UNL     1      33.104 -11.704 -23.245  0.00  0.00    +0.069 C 
ATOM     18  C   UNL     1      33.522 -12.874 -25.481  0.00  0.00    +0.029 C 
ATOM     19  C   UNL     1      33.471 -11.614 -24.704  0.00  0.00    +0.173 C 
ENDROOT
BRANCH   6  21
ATOM     20  O   UNL     1      36.390 -20.137 -19.397  0.00  0.00    -0.294 OA
ATOM     21  C   UNL     1      35.547 -20.111 -20.292  0.00  0.00    +0.175 C 
ATOM     22  C   UNL     1      34.259 -20.881 -20.185  0.00  0.00    +0.075 C 
ENDBRANCH   6  21
BRANCH   6  23
ATOM     23  O   UNL     1      37.098 -18.851 -21.473  0.00  0.00    -0.380 OA
ATOM     24  H   UNL     1      37.495 -18.876 -22.357  0.00  0.00    +0.211 HD
ENDBRANCH   6  23
TORSDOF 2
ENDMDL
MODEL 6
REMARK VINA RESULT:      -8.2      1.469      7.260
REMARK  Name = 102210
REMARK  2 active torsions:
REMARK  status: ('A' for Active; 'I' for Inactive)
REMARK    1  A    between atoms: C_6  and  C_21
REMARK    2  A    between atoms: C_6  and  O_23
REMARK                            x       y       z     vdW  Elec       q    Type
REMARK                         _______ _______ _______ _____ _____    ______ ____
ROOT
ATOM      1  O   UNL     1      27.446 -23.609 -16.254  0.00  0.00    -0.291 OA
ATOM      2  C   UNL     1      35.801 -23.942 -14.986  0.00  0.00    +0.029 C 
ATOM      3  C   UNL     1      34.746 -24.728 -14.171  0.00  0.00    +0.003 C 
ATOM      4  C   UNL     1      33.409 -23.990 -14.062  0.00  0.00    +0.001 C 
ATOM      5  C   UNL     1      32.840 -23.757 -15.492  0.00  0.00    +0.004 C 
ATOM      6  C   UNL     1      37.015 -24.894 -14.820  0.00  0.00    +0.139 C 
ATOM      7  C   UNL     1      35.253 -23.776 -16.413  0.00  0.00    +0.003 C 
ATOM      8  C   UNL     1      35.488 -25.094 -12.890  0.00  0.00    +0.003 C 
ATOM      9  C   UNL     1      33.878 -23.083 -16.423  0.00  0.00    +0.000 C 
ATOM     10  C   UNL     1      36.938 -25.351 -13.346  0.00  0.00    +0.034 C 
ATOM     11  C   UNL     1      31.489 -22.979 -15.439  0.00  0.00    +0.019 C 
ATOM     12  C   UNL     1      32.392 -24.770 -13.219  0.00  0.00    +0.004 C 
ATOM     13  C   UNL     1      36.128 -22.545 -14.391  0.00  0.00    +0.003 C 
ATOM     14  C   UNL     1      31.078 -24.003 -13.112  0.00  0.00    +0.022 C 
ATOM     15  C   UNL     1      30.518 -23.631 -14.463  0.00  0.00    -0.042 C 
ATOM     16  C   UNL     1      30.883 -22.855 -16.852  0.00  0.00    +0.012 C 
ATOM     17  C   UNL     1      29.434 -22.400 -16.829  0.00  0.00    +0.069 C 
ATOM     18  C   UNL     1      29.220 -23.843 -14.728  0.00  0.00    +0.029 C 
ATOM     19  C   UNL     1      28.612 -23.334 -15.979  0.00  0.00    +0.173 C 
ENDROOT
BRANCH   6  21
ATOM     20  O   UNL     1      38.395 -23.172 -15.730  0.00  0.00    -0.294 OA
ATOM     21  C   UNL     1      38.331 -24.271 -15.182  0.00  0.00    +0.175 C 
ATOM     22  C   UNL     1      39.568 -25.055 -14.840  0.00  0.00    +0.075 C 
ENDBRANCH   6  21
BRANCH   6  23
ATOM     23  O   UNL     1      36.895 -26.029 -15.673  0.00  0.00    -0.380 OA
ATOM     24  H   UNL     1      37.281 -25.826 -16.538  0.00  0.00    +0.211 HD
ENDBRANCH   6  23
TORSDOF 2
ENDMDL
MODEL 7
REMARK VINA RESULT:      -8.2      4.929      6.788
REMARK  Name = 102210
REMARK  2 active torsions:
REMARK  status: ('A' for Active; 'I' for Inactive)
REMARK    1  A    between atoms: C_6  and  C_21
REMARK    2  A    between atoms: C_6  and  O_23
REMARK                            x       y       z     vdW  Elec       q    Type
REMARK                         _______ _______ _______ _____ _____    ______ ____
ROOT
ATOM      1  O   UNL     1      35.580 -24.174 -12.904  0.00  0.00    -0.291 OA
ATOM      2  C   UNL     1      35.371 -20.454 -20.498  0.00  0.00    +0.029 C 
ATOM      3  C   UNL     1      34.135 -20.731 -19.609  0.00  0.00    +0.003 C 
ATOM      4  C   UNL     1      34.295 -21.982 -18.740  0.00  0.00    +0.001 C 
ATOM      5  C   UNL     1      35.529 -21.798 -17.809  0.00  0.00    +0.004 C 
ATOM      6  C   UNL     1      34.851 -19.224 -21.286  0.00  0.00    +0.139 C 
ATOM      7  C   UNL     1      36.567 -20.212 -19.563  0.00  0.00    +0.003 C 
ATOM      8  C   UNL     1      32.970 -20.666 -20.591  0.00  0.00    +0.003 C 
ATOM      9  C   UNL     1      36.796 -21.393 -18.603  0.00  0.00    +0.000 C 
ATOM     10  C   UNL     1      33.376 -19.569 -21.596  0.00  0.00    +0.034 C 
ATOM     11  C   UNL     1      35.756 -23.060 -16.922  0.00  0.00    +0.019 C 
ATOM     12  C   UNL     1      33.043 -22.258 -17.897  0.00  0.00    +0.004 C 
ATOM     13  C   UNL     1      35.704 -21.616 -21.474  0.00  0.00    +0.003 C 
ATOM     14  C   UNL     1      33.225 -23.518 -17.057  0.00  0.00    +0.022 C 
ATOM     15  C   UNL     1      34.472 -23.470 -16.210  0.00  0.00    -0.042 C 
ATOM     16  C   UNL     1      36.910 -22.819 -15.927  0.00  0.00    +0.012 C 
ATOM     17  C   UNL     1      36.970 -23.872 -14.834  0.00  0.00    +0.069 C 
ATOM     18  C   UNL     1      34.414 -23.818 -14.915  0.00  0.00    +0.029 C 
ATOM     19  C   UNL     1      35.650 -23.940 -14.109  0.00  0.00    +0.173 C 
ENDROOT
BRANCH   6  21
ATOM     20  O   UNL     1      36.807 -18.472 -22.429  0.00  0.00    -0.294 OA
ATOM     21  C   UNL     1      35.656 -18.899 -22.509  0.00  0.00    +0.175 C 
ATOM     22  C   UNL     1      34.989 -19.123 -23.838  0.00  0.00    +0.075 C 
ENDBRANCH   6  21
BRANCH   6  23
ATOM     23  O   UNL     1      34.900 -18.046 -20.486  0.00  0.00    -0.380 OA
ATOM     24  H   UNL     1      35.412 -17.364 -20.946  0.00  0.00    +0.211 HD
ENDBRANCH   6  23
TORSDOF 2
ENDMDL
MODEL 8
REMARK VINA RESULT:      -7.9     10.034     12.692
REMARK  Name = 102210
REMARK  2 active torsions:
REMARK  status: ('A' for Active; 'I' for Inactive)
REMARK    1  A    between atoms: C_6  and  C_21
REMARK    2  A    between atoms: C_6  and  O_23
REMARK                            x       y       z     vdW  Elec       q    Type
REMARK                         _______ _______ _______ _____ _____    ______ ____
ROOT
ATOM      1  O   UNL     1      31.812  -9.413 -21.675  0.00  0.00    -0.291 OA
ATOM      2  C   UNL     1      34.544 -17.416 -21.781  0.00  0.00    +0.029 C 
ATOM      3  C   UNL     1      34.541 -16.462 -22.999  0.00  0.00    +0.003 C 
ATOM      4  C   UNL     1      33.399 -15.442 -22.953  0.00  0.00    +0.001 C 
ATOM      5  C   UNL     1      33.540 -14.582 -21.664  0.00  0.00    +0.004 C 
ATOM      6  C   UNL     1      35.722 -18.342 -22.183  0.00  0.00    +0.139 C 
ATOM      7  C   UNL     1      34.748 -16.559 -20.522  0.00  0.00    +0.003 C 
ATOM      8  C   UNL     1      34.630 -17.408 -24.192  0.00  0.00    +0.003 C 
ATOM      9  C   UNL     1      33.676 -15.460 -20.395  0.00  0.00    +0.000 C 
ATOM     10  C   UNL     1      35.531 -18.559 -23.702  0.00  0.00    +0.034 C 
ATOM     11  C   UNL     1      32.380 -13.545 -21.551  0.00  0.00    +0.019 C 
ATOM     12  C   UNL     1      33.393 -14.532 -24.188  0.00  0.00    +0.004 C 
ATOM     13  C   UNL     1      33.236 -18.242 -21.639  0.00  0.00    +0.003 C 
ATOM     14  C   UNL     1      32.235 -13.541 -24.123  0.00  0.00    +0.022 C 
ATOM     15  C   UNL     1      32.230 -12.746 -22.841  0.00  0.00    -0.042 C 
ATOM     16  C   UNL     1      32.595 -12.626 -20.331  0.00  0.00    +0.012 C 
ATOM     17  C   UNL     1      31.689 -11.407 -20.350  0.00  0.00    +0.069 C 
ATOM     18  C   UNL     1      32.058 -11.416 -22.881  0.00  0.00    +0.029 C 
ATOM     19  C   UNL     1      31.881 -10.639 -21.633  0.00  0.00    +0.173 C 
ENDROOT
BRANCH   6  21
ATOM     20  O   UNL     1      34.989 -20.537 -21.600  0.00  0.00    -0.294 OA
ATOM     21  C   UNL     1      35.785 -19.621 -21.402  0.00  0.00    +0.175 C 
ATOM     22  C   UNL     1      36.872 -19.730 -20.367  0.00  0.00    +0.075 C 
ENDBRANCH   6  21
BRANCH   6  23
ATOM     23  O   UNL     1      36.975 -17.705 -21.953  0.00  0.00    -0.380 OA
ATOM     24  H   UNL     1      37.653 -18.112 -22.512  0.00  0.00    +0.211 HD
ENDBRANCH   6  23
TORSDOF 2
ENDMDL
MODEL 9
REMARK VINA RESULT:      -7.5      3.873      5.977
REMARK  Name = 102210
REMARK  2 active torsions:
REMARK  status: ('A' for Active; 'I' for Inactive)
REMARK    1  A    between atoms: C_6  and  C_21
REMARK    2  A    between atoms: C_6  and  O_23
REMARK                            x       y       z     vdW  Elec       q    Type
REMARK                         _______ _______ _______ _____ _____    ______ ____
ROOT
ATOM      1  O   UNL     1      35.987 -18.058 -22.172  0.00  0.00    -0.291 OA
ATOM      2  C   UNL     1      32.981 -23.410 -16.354  0.00  0.00    +0.029 C 
ATOM      3  C   UNL     1      34.375 -22.739 -16.309  0.00  0.00    +0.003 C 
ATOM      4  C   UNL     1      34.950 -22.468 -17.702  0.00  0.00    +0.001 C 
ATOM      5  C   UNL     1      33.983 -21.524 -18.475  0.00  0.00    +0.004 C 
ATOM      6  C   UNL     1      32.749 -23.621 -14.835  0.00  0.00    +0.139 C 
ATOM      7  C   UNL     1      32.024 -22.440 -17.064  0.00  0.00    +0.003 C 
ATOM      8  C   UNL     1      35.165 -23.623 -15.349  0.00  0.00    +0.003 C 
ATOM      9  C   UNL     1      32.529 -22.057 -18.467  0.00  0.00    +0.000 C 
ATOM     10  C   UNL     1      34.127 -24.072 -14.300  0.00  0.00    +0.034 C 
ATOM     11  C   UNL     1      34.508 -21.241 -19.916  0.00  0.00    +0.019 C 
ATOM     12  C   UNL     1      36.347 -21.837 -17.632  0.00  0.00    +0.004 C 
ATOM     13  C   UNL     1      32.977 -24.776 -17.094  0.00  0.00    +0.003 C 
ATOM     14  C   UNL     1      36.901 -21.597 -19.033  0.00  0.00    +0.022 C 
ATOM     15  C   UNL     1      35.963 -20.786 -19.892  0.00  0.00    -0.042 C 
ATOM     16  C   UNL     1      33.601 -20.218 -20.629  0.00  0.00    +0.012 C 
ATOM     17  C   UNL     1      34.228 -19.663 -21.896  0.00  0.00    +0.069 C 
ATOM     18  C   UNL     1      36.436 -19.756 -20.609  0.00  0.00    +0.029 C 
ATOM     19  C   UNL     1      35.571 -19.054 -21.585  0.00  0.00    +0.173 C 
ENDROOT
BRANCH   6  21
ATOM     20  O   UNL     1      31.875 -25.709 -14.076  0.00  0.00    -0.294 OA
ATOM     21  C   UNL     1      31.643 -24.584 -14.517  0.00  0.00    +0.175 C 
ATOM     22  C   UNL     1      30.238 -24.106 -14.760  0.00  0.00    +0.075 C 
ENDBRANCH   6  21
BRANCH   6  23
ATOM     23  O   UNL     1      32.373 -22.403 -14.201  0.00  0.00    -0.380 OA
ATOM     24  H   UNL     1      32.713 -22.392 -13.293  0.00  0.00    +0.211 HD
ENDBRANCH   6  23
TORSDOF 2
ENDMDL
