MODEL 1
REMARK VINA RESULT:      -9.9      0.000      0.000
REMARK  Name = 4369413
REMARK  8 active torsions:
REMARK  status: ('A' for Active; 'I' for Inactive)
REMARK    1  A    between atoms: N_1  and  C_2
REMARK    2  A    between atoms: N_1  and  N_10
REMARK    3  A    between atoms: N_1  and  C_15
REMARK    4  A    between atoms: C_7  and  C_9
REMARK    5  A    between atoms: C_15  and  C_16
REMARK    6  A    between atoms: C_21  and  O_22
REMARK    7  A    between atoms: O_22  and  S_23
REMARK    8  A    between atoms: S_23  and  N_26
REMARK                            x       y       z     vdW  Elec       q    Type
REMARK                         _______ _______ _______ _____ _____    ______ ____
ROOT
ATOM      1  N   UNL     1      35.127 -24.005 -14.533  0.00  0.00    -0.227 N 
ENDROOT
BRANCH   1   2
ATOM      2  C   UNL     1      35.214 -23.337 -15.771  0.00  0.00    +0.066 C 
ATOM      3  C   UNL     1      34.169 -23.429 -16.689  0.00  0.00    +0.017 C 
ATOM      4  C   UNL     1      36.348 -22.585 -16.080  0.00  0.00    +0.017 C 
ATOM      5  C   UNL     1      34.256 -22.770 -17.916  0.00  0.00    +0.012 C 
ATOM      6  C   UNL     1      36.435 -21.925 -17.305  0.00  0.00    +0.012 C 
ATOM      7  C   UNL     1      35.389 -22.017 -18.223  0.00  0.00    +0.069 C 
BRANCH   7   9
ATOM      8  N   UNL     1      35.552 -20.791 -20.500  0.00  0.00    -0.191 NA
ATOM      9  C   UNL     1      35.479 -21.341 -19.479  0.00  0.00    +0.100 C 
ENDBRANCH   7   9
ENDBRANCH   1   2
BRANCH   1  10
ATOM     10  N   UNL     1      35.902 -25.105 -14.174  0.00  0.00    -0.174 N 
ATOM     11  N   UNL     1      37.035 -26.947 -14.297  0.00  0.00    -0.127 NA
ATOM     12  N   UNL     1      37.055 -26.505 -12.989  0.00  0.00    -0.127 NA
ATOM     13  C   UNL     1      36.331 -26.084 -14.995  0.00  0.00    +0.210 C 
ATOM     14  C   UNL     1      36.363 -25.389 -12.939  0.00  0.00    +0.210 C 
ENDBRANCH   1  10
BRANCH   1  15
ATOM     15  C   UNL     1      34.181 -23.569 -13.510  0.00  0.00    +0.139 C 
BRANCH  15  16
ATOM     16  C   UNL     1      32.762 -23.731 -13.981  0.00  0.00    -0.000 C 
ATOM     17  C   UNL     1      32.000 -22.604 -14.259  0.00  0.00    +0.001 C 
ATOM     18  C   UNL     1      32.231 -25.005 -14.132  0.00  0.00    +0.001 C 
ATOM     19  C   UNL     1      30.683 -22.754 -14.694  0.00  0.00    +0.040 C 
ATOM     20  C   UNL     1      30.915 -25.155 -14.568  0.00  0.00    +0.040 C 
ATOM     21  C   UNL     1      30.141 -24.030 -14.849  0.00  0.00    +0.173 C 
BRANCH  21  22
ATOM     22  O   UNL     1      28.856 -24.175 -15.276  0.00  0.00    -0.349 OA
BRANCH  22  23
ATOM     23  S   UNL     1      28.256 -23.425 -16.606  0.00  0.00    +0.086 S 
ATOM     24  O   UNL     1      27.726 -24.439 -17.500  0.00  0.00    -0.046 OA
ATOM     25  O   UNL     1      29.239 -22.464 -17.071  0.00  0.00    -0.046 OA
BRANCH  23  26
ATOM     26  N   UNL     1      26.923 -22.539 -15.988  0.00  0.00    -0.194 NA
ATOM     27  H   UNL     1      26.963 -22.531 -14.969  0.00  0.00    +0.145 HD
ATOM     28  H   UNL     1      26.053 -22.977 -16.291  0.00  0.00    +0.145 HD
ENDBRANCH  23  26
ENDBRANCH  22  23
ENDBRANCH  21  22
ENDBRANCH  15  16
ENDBRANCH   1  15
TORSDOF 8
ENDMDL
MODEL 2
REMARK VINA RESULT:      -9.9      0.031      1.518
REMARK  Name = 4369413
REMARK  8 active torsions:
REMARK  status: ('A' for Active; 'I' for Inactive)
REMARK    1  A    between atoms: N_1  and  C_2
REMARK    2  A    between atoms: N_1  and  N_10
REMARK    3  A    between atoms: N_1  and  C_15
REMARK    4  A    between atoms: C_7  and  C_9
REMARK    5  A    between atoms: C_15  and  C_16
REMARK    6  A    between atoms: C_21  and  O_22
REMARK    7  A    between atoms: O_22  and  S_23
REMARK    8  A    between atoms: S_23  and  N_26
REMARK                            x       y       z     vdW  Elec       q    Type
REMARK                         _______ _______ _______ _____ _____    ______ ____
ROOT
ATOM      1  N   UNL     1      35.143 -24.011 -14.541  0.00  0.00    -0.227 N 
ENDROOT
BRANCH   1   2
ATOM      2  C   UNL     1      35.233 -23.336 -15.775  0.00  0.00    +0.066 C 
ATOM      3  C   UNL     1      36.375 -22.598 -16.085  0.00  0.00    +0.017 C 
ATOM      4  C   UNL     1      34.180 -23.405 -16.687  0.00  0.00    +0.017 C 
ATOM      5  C   UNL     1      36.464 -21.928 -17.306  0.00  0.00    +0.012 C 
ATOM      6  C   UNL     1      34.269 -22.737 -17.908  0.00  0.00    +0.012 C 
ATOM      7  C   UNL     1      35.411 -21.999 -18.217  0.00  0.00    +0.069 C 
BRANCH   7   9
ATOM      8  N   UNL     1      35.576 -20.756 -20.485  0.00  0.00    -0.191 NA
ATOM      9  C   UNL     1      35.502 -21.314 -19.468  0.00  0.00    +0.100 C 
ENDBRANCH   7   9
ENDBRANCH   1   2
BRANCH   1  10
ATOM     10  N   UNL     1      35.911 -25.118 -14.189  0.00  0.00    -0.174 N 
ATOM     11  N   UNL     1      37.065 -26.529 -13.018  0.00  0.00    -0.127 NA
ATOM     12  N   UNL     1      37.023 -26.973 -14.325  0.00  0.00    -0.127 NA
ATOM     13  C   UNL     1      36.385 -25.405 -12.961  0.00  0.00    +0.210 C 
ATOM     14  C   UNL     1      36.319 -26.103 -15.014  0.00  0.00    +0.210 C 
ENDBRANCH   1  10
BRANCH   1  15
ATOM     15  C   UNL     1      34.200 -23.575 -13.514  0.00  0.00    +0.139 C 
BRANCH  15  16
ATOM     16  C   UNL     1      32.779 -23.734 -13.982  0.00  0.00    -0.000 C 
ATOM     17  C   UNL     1      32.246 -25.008 -14.127  0.00  0.00    +0.001 C 
ATOM     18  C   UNL     1      32.020 -22.607 -14.262  0.00  0.00    +0.001 C 
ATOM     19  C   UNL     1      30.929 -25.155 -14.562  0.00  0.00    +0.040 C 
ATOM     20  C   UNL     1      30.703 -22.754 -14.696  0.00  0.00    +0.040 C 
ATOM     21  C   UNL     1      30.158 -24.028 -14.846  0.00  0.00    +0.173 C 
BRANCH  21  22
ATOM     22  O   UNL     1      28.871 -24.175 -15.269  0.00  0.00    -0.349 OA
BRANCH  22  23
ATOM     23  S   UNL     1      28.273 -23.446 -16.612  0.00  0.00    +0.086 S 
ATOM     24  O   UNL     1      27.726 -24.472 -17.482  0.00  0.00    -0.046 OA
ATOM     25  O   UNL     1      29.267 -22.508 -17.103  0.00  0.00    -0.046 OA
BRANCH  23  26
ATOM     26  N   UNL     1      26.956 -22.530 -16.006  0.00  0.00    -0.194 NA
ATOM     27  H   UNL     1      26.497 -22.043 -16.776  0.00  0.00    +0.145 HD
ATOM     28  H   UNL     1      27.299 -21.848 -15.329  0.00  0.00    +0.145 HD
ENDBRANCH  23  26
ENDBRANCH  22  23
ENDBRANCH  21  22
ENDBRANCH  15  16
ENDBRANCH   1  15
TORSDOF 8
ENDMDL
MODEL 3
REMARK VINA RESULT:      -9.6      7.001     10.881
REMARK  Name = 4369413
REMARK  8 active torsions:
REMARK  status: ('A' for Active; 'I' for Inactive)
REMARK    1  A    between atoms: N_1  and  C_2
REMARK    2  A    between atoms: N_1  and  N_10
REMARK    3  A    between atoms: N_1  and  C_15
REMARK    4  A    between atoms: C_7  and  C_9
REMARK    5  A    between atoms: C_15  and  C_16
REMARK    6  A    between atoms: C_21  and  O_22
REMARK    7  A    between atoms: O_22  and  S_23
REMARK    8  A    between atoms: S_23  and  N_26
REMARK                            x       y       z     vdW  Elec       q    Type
REMARK                         _______ _______ _______ _____ _____    ______ ____
ROOT
ATOM      1  N   UNL     1      34.888 -18.046 -22.091  0.00  0.00    -0.227 N 
ENDROOT
BRANCH   1   2
ATOM      2  C   UNL     1      34.610 -19.161 -21.274  0.00  0.00    +0.066 C 
ATOM      3  C   UNL     1      35.652 -19.960 -20.805  0.00  0.00    +0.017 C 
ATOM      4  C   UNL     1      33.292 -19.466 -20.935  0.00  0.00    +0.017 C 
ATOM      5  C   UNL     1      35.377 -21.065 -19.998  0.00  0.00    +0.012 C 
ATOM      6  C   UNL     1      33.016 -20.570 -20.129  0.00  0.00    +0.012 C 
ATOM      7  C   UNL     1      34.058 -21.369 -19.660  0.00  0.00    +0.069 C 
BRANCH   7   9
ATOM      8  N   UNL     1      33.547 -23.420 -18.161  0.00  0.00    -0.191 NA
ATOM      9  C   UNL     1      33.776 -22.500 -18.833  0.00  0.00    +0.100 C 
ENDBRANCH   7   9
ENDBRANCH   1   2
BRANCH   1  10
ATOM     10  N   UNL     1      34.733 -18.024 -23.474  0.00  0.00    -0.174 N 
ATOM     11  N   UNL     1      34.720 -17.337 -25.529  0.00  0.00    -0.127 NA
ATOM     12  N   UNL     1      34.286 -18.648 -25.501  0.00  0.00    -0.127 NA
ATOM     13  C   UNL     1      34.984 -16.982 -24.292  0.00  0.00    +0.210 C 
ATOM     14  C   UNL     1      34.302 -19.041 -24.248  0.00  0.00    +0.210 C 
ENDBRANCH   1  10
BRANCH   1  15
ATOM     15  C   UNL     1      35.376 -16.797 -21.514  0.00  0.00    +0.139 C 
BRANCH  15  16
ATOM     16  C   UNL     1      34.359 -15.699 -21.662  0.00  0.00    -0.000 C 
ATOM     17  C   UNL     1      34.627 -14.626 -22.501  0.00  0.00    +0.001 C 
ATOM     18  C   UNL     1      33.165 -15.772 -20.958  0.00  0.00    +0.001 C 
ATOM     19  C   UNL     1      33.685 -13.607 -22.637  0.00  0.00    +0.040 C 
ATOM     20  C   UNL     1      32.221 -14.754 -21.095  0.00  0.00    +0.040 C 
ATOM     21  C   UNL     1      32.482 -13.671 -21.934  0.00  0.00    +0.173 C 
BRANCH  21  22
ATOM     22  O   UNL     1      31.562 -12.676 -22.069  0.00  0.00    -0.349 OA
BRANCH  22  23
ATOM     23  S   UNL     1      31.359 -11.477 -20.968  0.00  0.00    +0.086 S 
ATOM     24  O   UNL     1      32.167 -11.787 -19.802  0.00  0.00    -0.046 OA
ATOM     25  O   UNL     1      29.937 -11.213 -20.838  0.00  0.00    -0.046 OA
BRANCH  23  26
ATOM     26  N   UNL     1      32.066 -10.116 -21.736  0.00  0.00    -0.194 NA
ATOM     27  H   UNL     1      31.331  -9.503 -22.088  0.00  0.00    +0.145 HD
ATOM     28  H   UNL     1      32.649 -10.429 -22.513  0.00  0.00    +0.145 HD
ENDBRANCH  23  26
ENDBRANCH  22  23
ENDBRANCH  21  22
ENDBRANCH  15  16
ENDBRANCH   1  15
TORSDOF 8
ENDMDL
MODEL 4
REMARK VINA RESULT:      -9.3      6.247     10.134
REMARK  Name = 4369413
REMARK  8 active torsions:
REMARK  status: ('A' for Active; 'I' for Inactive)
REMARK    1  A    between atoms: N_1  and  C_2
REMARK    2  A    between atoms: N_1  and  N_10
REMARK    3  A    between atoms: N_1  and  C_15
REMARK    4  A    between atoms: C_7  and  C_9
REMARK    5  A    between atoms: C_15  and  C_16
REMARK    6  A    between atoms: C_21  and  O_22
REMARK    7  A    between atoms: O_22  and  S_23
REMARK    8  A    between atoms: S_23  and  N_26
REMARK                            x       y       z     vdW  Elec       q    Type
REMARK                         _______ _______ _______ _____ _____    ______ ____
ROOT
ATOM      1  N   UNL     1      34.520 -16.489 -22.508  0.00  0.00    -0.227 N 
ENDROOT
BRANCH   1   2
ATOM      2  C   UNL     1      33.738 -15.381 -22.124  0.00  0.00    +0.066 C 
ATOM      3  C   UNL     1      33.529 -15.109 -20.772  0.00  0.00    +0.017 C 
ATOM      4  C   UNL     1      33.171 -14.557 -23.096  0.00  0.00    +0.017 C 
ATOM      5  C   UNL     1      32.753 -14.013 -20.392  0.00  0.00    +0.012 C 
ATOM      6  C   UNL     1      32.396 -13.461 -22.717  0.00  0.00    +0.012 C 
ATOM      7  C   UNL     1      32.187 -13.189 -21.365  0.00  0.00    +0.069 C 
BRANCH   7   9
ATOM      8  N   UNL     1      30.748 -11.154 -20.659  0.00  0.00    -0.191 NA
ATOM      9  C   UNL     1      31.393 -12.067 -20.976  0.00  0.00    +0.100 C 
ENDBRANCH   7   9
ENDBRANCH   1   2
BRANCH   1  10
ATOM     10  N   UNL     1      34.550 -17.026 -23.793  0.00  0.00    -0.174 N 
ATOM     11  N   UNL     1      34.580 -18.453 -25.423  0.00  0.00    -0.127 NA
ATOM     12  N   UNL     1      34.608 -17.178 -25.954  0.00  0.00    -0.127 NA
ATOM     13  C   UNL     1      34.545 -18.335 -24.114  0.00  0.00    +0.210 C 
ATOM     14  C   UNL     1      34.589 -16.332 -24.949  0.00  0.00    +0.210 C 
ENDBRANCH   1  10
BRANCH   1  15
ATOM     15  C   UNL     1      35.381 -17.170 -21.546  0.00  0.00    +0.139 C 
BRANCH  15  16
ATOM     16  C   UNL     1      34.753 -18.452 -21.071  0.00  0.00    -0.000 C 
ATOM     17  C   UNL     1      35.560 -19.547 -20.792  0.00  0.00    +0.001 C 
ATOM     18  C   UNL     1      33.376 -18.524 -20.918  0.00  0.00    +0.001 C 
ATOM     19  C   UNL     1      34.978 -20.736 -20.353  0.00  0.00    +0.040 C 
ATOM     20  C   UNL     1      32.793 -19.713 -20.478  0.00  0.00    +0.040 C 
ATOM     21  C   UNL     1      33.595 -20.818 -20.196  0.00  0.00    +0.173 C 
BRANCH  21  22
ATOM     22  O   UNL     1      33.028 -21.980 -19.766  0.00  0.00    -0.349 OA
BRANCH  22  23
ATOM     23  S   UNL     1      33.740 -22.985 -18.681  0.00  0.00    +0.086 S 
ATOM     24  O   UNL     1      34.959 -22.356 -18.208  0.00  0.00    -0.046 OA
ATOM     25  O   UNL     1      33.764 -24.322 -19.246  0.00  0.00    -0.046 OA
BRANCH  23  26
ATOM     26  N   UNL     1      32.629 -22.999 -17.374  0.00  0.00    -0.194 NA
ATOM     27  H   UNL     1      31.752 -22.569 -17.667  0.00  0.00    +0.145 HD
ATOM     28  H   UNL     1      33.020 -22.475 -16.590  0.00  0.00    +0.145 HD
ENDBRANCH  23  26
ENDBRANCH  22  23
ENDBRANCH  21  22
ENDBRANCH  15  16
ENDBRANCH   1  15
TORSDOF 8
ENDMDL
MODEL 5
REMARK VINA RESULT:      -8.9      4.234      6.910
REMARK  Name = 4369413
REMARK  8 active torsions:
REMARK  status: ('A' for Active; 'I' for Inactive)
REMARK    1  A    between atoms: N_1  and  C_2
REMARK    2  A    between atoms: N_1  and  N_10
REMARK    3  A    between atoms: N_1  and  C_15
REMARK    4  A    between atoms: C_7  and  C_9
REMARK    5  A    between atoms: C_15  and  C_16
REMARK    6  A    between atoms: C_21  and  O_22
REMARK    7  A    between atoms: O_22  and  S_23
REMARK    8  A    between atoms: S_23  and  N_26
REMARK                            x       y       z     vdW  Elec       q    Type
REMARK                         _______ _______ _______ _____ _____    ______ ____
ROOT
ATOM      1  N   UNL     1      33.537 -23.525 -16.637  0.00  0.00    -0.227 N 
ENDROOT
BRANCH   1   2
ATOM      2  C   UNL     1      34.742 -23.754 -15.943  0.00  0.00    +0.066 C 
ATOM      3  C   UNL     1      35.611 -22.694 -15.686  0.00  0.00    +0.017 C 
ATOM      4  C   UNL     1      35.067 -25.041 -15.514  0.00  0.00    +0.017 C 
ATOM      5  C   UNL     1      36.805 -22.921 -15.001  0.00  0.00    +0.012 C 
ATOM      6  C   UNL     1      36.260 -25.268 -14.828  0.00  0.00    +0.012 C 
ATOM      7  C   UNL     1      37.129 -24.208 -14.572  0.00  0.00    +0.069 C 
BRANCH   7   9
ATOM      8  N   UNL     1      39.345 -24.630 -13.297  0.00  0.00    -0.191 NA
ATOM      9  C   UNL     1      38.351 -24.440 -13.869  0.00  0.00    +0.100 C 
ENDBRANCH   7   9
ENDBRANCH   1   2
BRANCH   1  10
ATOM     10  N   UNL     1      32.340 -23.144 -16.035  0.00  0.00    -0.174 N 
ATOM     11  N   UNL     1      30.264 -22.592 -15.761  0.00  0.00    -0.127 NA
ATOM     12  N   UNL     1      30.889 -22.573 -14.530  0.00  0.00    -0.127 NA
ATOM     13  C   UNL     1      31.161 -22.940 -16.655  0.00  0.00    +0.210 C 
ATOM     14  C   UNL     1      32.145 -22.911 -14.721  0.00  0.00    +0.210 C 
ENDBRANCH   1  10
BRANCH   1  15
ATOM     15  C   UNL     1      33.464 -23.680 -18.087  0.00  0.00    +0.139 C 
BRANCH  15  16
ATOM     16  C   UNL     1      34.033 -22.477 -18.789  0.00  0.00    -0.000 C 
ATOM     17  C   UNL     1      35.410 -22.308 -18.848  0.00  0.00    +0.001 C 
ATOM     18  C   UNL     1      33.175 -21.553 -19.368  0.00  0.00    +0.001 C 
ATOM     19  C   UNL     1      35.937 -21.192 -19.497  0.00  0.00    +0.040 C 
ATOM     20  C   UNL     1      33.702 -20.437 -20.018  0.00  0.00    +0.040 C 
ATOM     21  C   UNL     1      35.083 -20.257 -20.082  0.00  0.00    +0.173 C 
BRANCH  21  22
ATOM     22  O   UNL     1      35.601 -19.169 -20.717  0.00  0.00    -0.349 OA
BRANCH  22  23
ATOM     23  S   UNL     1      34.902 -18.469 -22.027  0.00  0.00    +0.086 S 
ATOM     24  O   UNL     1      34.026 -17.408 -21.564  0.00  0.00    -0.046 OA
ATOM     25  O   UNL     1      34.400 -19.521 -22.893  0.00  0.00    -0.046 OA
BRANCH  23  26
ATOM     26  N   UNL     1      36.226 -17.730 -22.829  0.00  0.00    -0.194 NA
ATOM     27  H   UNL     1      36.263 -16.741 -22.584  0.00  0.00    +0.145 HD
ATOM     28  H   UNL     1      36.108 -17.826 -23.838  0.00  0.00    +0.145 HD
ENDBRANCH  23  26
ENDBRANCH  22  23
ENDBRANCH  21  22
ENDBRANCH  15  16
ENDBRANCH   1  15
TORSDOF 8
ENDMDL
MODEL 6
REMARK VINA RESULT:      -8.9      4.970      6.782
REMARK  Name = 4369413
REMARK  8 active torsions:
REMARK  status: ('A' for Active; 'I' for Inactive)
REMARK    1  A    between atoms: N_1  and  C_2
REMARK    2  A    between atoms: N_1  and  N_10
REMARK    3  A    between atoms: N_1  and  C_15
REMARK    4  A    between atoms: C_7  and  C_9
REMARK    5  A    between atoms: C_15  and  C_16
REMARK    6  A    between atoms: C_21  and  O_22
REMARK    7  A    between atoms: O_22  and  S_23
REMARK    8  A    between atoms: S_23  and  N_26
REMARK                            x       y       z     vdW  Elec       q    Type
REMARK                         _______ _______ _______ _____ _____    ______ ____
ROOT
ATOM      1  N   UNL     1      33.376 -23.751 -14.964  0.00  0.00    -0.227 N 
ENDROOT
BRANCH   1   2
ATOM      2  C   UNL     1      34.069 -23.190 -16.056  0.00  0.00    +0.066 C 
ATOM      3  C   UNL     1      33.521 -23.253 -17.337  0.00  0.00    +0.017 C 
ATOM      4  C   UNL     1      35.303 -22.573 -15.857  0.00  0.00    +0.017 C 
ATOM      5  C   UNL     1      34.207 -22.700 -18.418  0.00  0.00    +0.012 C 
ATOM      6  C   UNL     1      35.990 -22.019 -16.937  0.00  0.00    +0.012 C 
ATOM      7  C   UNL     1      35.442 -22.082 -18.218  0.00  0.00    +0.069 C 
BRANCH   7   9
ATOM      8  N   UNL     1      36.717 -21.055 -20.225  0.00  0.00    -0.191 NA
ATOM      9  C   UNL     1      36.145 -21.515 -19.325  0.00  0.00    +0.100 C 
ENDBRANCH   7   9
ENDBRANCH   1   2
BRANCH   1  10
ATOM     10  N   UNL     1      32.052 -24.180 -15.007  0.00  0.00    -0.174 N 
ATOM     11  N   UNL     1      30.230 -25.267 -14.568  0.00  0.00    -0.127 NA
ATOM     12  N   UNL     1      29.968 -24.358 -15.574  0.00  0.00    -0.127 NA
ATOM     13  C   UNL     1      31.497 -25.141 -14.241  0.00  0.00    +0.210 C 
ATOM     14  C   UNL     1      31.085 -23.713 -15.822  0.00  0.00    +0.210 C 
ENDBRANCH   1  10
BRANCH   1  15
ATOM     15  C   UNL     1      34.028 -23.922 -13.669  0.00  0.00    +0.139 C 
BRANCH  15  16
ATOM     16  C   UNL     1      35.325 -24.671 -13.811  0.00  0.00    -0.000 C 
ATOM     17  C   UNL     1      36.329 -24.484 -12.871  0.00  0.00    +0.001 C 
ATOM     18  C   UNL     1      35.501 -25.538 -14.880  0.00  0.00    +0.001 C 
ATOM     19  C   UNL     1      37.532 -25.178 -13.003  0.00  0.00    +0.040 C 
ATOM     20  C   UNL     1      36.703 -26.233 -15.012  0.00  0.00    +0.040 C 
ATOM     21  C   UNL     1      37.718 -26.052 -14.074  0.00  0.00    +0.173 C 
BRANCH  21  22
ATOM     22  O   UNL     1      38.893 -26.730 -14.201  0.00  0.00    -0.349 OA
BRANCH  22  23
ATOM     23  S   UNL     1      40.339 -25.994 -14.444  0.00  0.00    +0.086 S 
ATOM     24  O   UNL     1      41.391 -26.919 -14.065  0.00  0.00    -0.046 OA
ATOM     25  O   UNL     1      40.277 -24.663 -13.867  0.00  0.00    -0.046 OA
BRANCH  23  26
ATOM     26  N   UNL     1      40.404 -25.813 -16.149  0.00  0.00    -0.194 NA
ATOM     27  H   UNL     1      41.356 -25.578 -16.430  0.00  0.00    +0.145 HD
ATOM     28  H   UNL     1      39.771 -25.066 -16.436  0.00  0.00    +0.145 HD
ENDBRANCH  23  26
ENDBRANCH  22  23
ENDBRANCH  21  22
ENDBRANCH  15  16
ENDBRANCH   1  15
TORSDOF 8
ENDMDL
MODEL 7
REMARK VINA RESULT:      -8.3     13.540     16.950
REMARK  Name = 4369413
REMARK  8 active torsions:
REMARK  status: ('A' for Active; 'I' for Inactive)
REMARK    1  A    between atoms: N_1  and  C_2
REMARK    2  A    between atoms: N_1  and  N_10
REMARK    3  A    between atoms: N_1  and  C_15
REMARK    4  A    between atoms: C_7  and  C_9
REMARK    5  A    between atoms: C_15  and  C_16
REMARK    6  A    between atoms: C_21  and  O_22
REMARK    7  A    between atoms: O_22  and  S_23
REMARK    8  A    between atoms: S_23  and  N_26
REMARK                            x       y       z     vdW  Elec       q    Type
REMARK                         _______ _______ _______ _____ _____    ______ ____
ROOT
ATOM      1  N   UNL     1      32.060  -8.069 -22.759  0.00  0.00    -0.227 N 
ENDROOT
BRANCH   1   2
ATOM      2  C   UNL     1      32.576  -7.216 -23.756  0.00  0.00    +0.066 C 
ATOM      3  C   UNL     1      31.737  -6.309 -24.402  0.00  0.00    +0.017 C 
ATOM      4  C   UNL     1      33.928  -7.278 -24.096  0.00  0.00    +0.017 C 
ATOM      5  C   UNL     1      32.248  -5.465 -25.389  0.00  0.00    +0.012 C 
ATOM      6  C   UNL     1      34.439  -6.435 -25.082  0.00  0.00    +0.012 C 
ATOM      7  C   UNL     1      33.599  -5.528 -25.728  0.00  0.00    +0.069 C 
BRANCH   7   9
ATOM      8  N   UNL     1      34.548  -3.961 -27.560  0.00  0.00    -0.191 NA
ATOM      9  C   UNL     1      34.123  -4.664 -26.738  0.00  0.00    +0.100 C 
ENDBRANCH   7   9
ENDBRANCH   1   2
BRANCH   1  10
ATOM     10  N   UNL     1      32.236  -7.881 -21.391  0.00  0.00    -0.174 N 
ATOM     11  N   UNL     1      32.713  -6.960 -19.489  0.00  0.00    -0.127 NA
ATOM     12  N   UNL     1      32.279  -8.250 -19.256  0.00  0.00    -0.127 NA
ATOM     13  C   UNL     1      32.678  -6.760 -20.788  0.00  0.00    +0.210 C 
ATOM     14  C   UNL     1      31.997  -8.787 -20.421  0.00  0.00    +0.210 C 
ENDBRANCH   1  10
BRANCH   1  15
ATOM     15  C   UNL     1      31.278  -9.249 -23.114  0.00  0.00    +0.139 C 
BRANCH  15  16
ATOM     16  C   UNL     1      32.147 -10.476 -23.178  0.00  0.00    -0.000 C 
ATOM     17  C   UNL     1      31.839 -11.574 -22.386  0.00  0.00    +0.001 C 
ATOM     18  C   UNL     1      33.246 -10.493 -24.025  0.00  0.00    +0.001 C 
ATOM     19  C   UNL     1      32.645 -12.710 -22.444  0.00  0.00    +0.040 C 
ATOM     20  C   UNL     1      34.052 -11.630 -24.084  0.00  0.00    +0.040 C 
ATOM     21  C   UNL     1      33.752 -12.738 -23.293  0.00  0.00    +0.173 C 
BRANCH  21  22
ATOM     22  O   UNL     1      34.537 -13.849 -23.349  0.00  0.00    -0.349 OA
BRANCH  22  23
ATOM     23  S   UNL     1      33.962 -15.346 -23.696  0.00  0.00    +0.086 S 
ATOM     24  O   UNL     1      33.279 -15.287 -24.976  0.00  0.00    -0.046 OA
ATOM     25  O   UNL     1      33.289 -15.861 -22.518  0.00  0.00    -0.046 OA
BRANCH  23  26
ATOM     26  N   UNL     1      35.389 -16.272 -23.919  0.00  0.00    -0.194 NA
ATOM     27  H   UNL     1      35.972 -16.204 -23.085  0.00  0.00    +0.145 HD
ATOM     28  H   UNL     1      35.904 -15.914 -24.724  0.00  0.00    +0.145 HD
ENDBRANCH  23  26
ENDBRANCH  22  23
ENDBRANCH  21  22
ENDBRANCH  15  16
ENDBRANCH   1  15
TORSDOF 8
ENDMDL
MODEL 8
REMARK VINA RESULT:      -8.3     11.711     15.091
REMARK  Name = 4369413
REMARK  8 active torsions:
REMARK  status: ('A' for Active; 'I' for Inactive)
REMARK    1  A    between atoms: N_1  and  C_2
REMARK    2  A    between atoms: N_1  and  N_10
REMARK    3  A    between atoms: N_1  and  C_15
REMARK    4  A    between atoms: C_7  and  C_9
REMARK    5  A    between atoms: C_15  and  C_16
REMARK    6  A    between atoms: C_21  and  O_22
REMARK    7  A    between atoms: O_22  and  S_23
REMARK    8  A    between atoms: S_23  and  N_26
REMARK                            x       y       z     vdW  Elec       q    Type
REMARK                         _______ _______ _______ _____ _____    ______ ____
ROOT
ATOM      1  N   UNL     1      31.670 -10.267 -22.035  0.00  0.00    -0.227 N 
ENDROOT
BRANCH   1   2
ATOM      2  C   UNL     1      32.109  -9.196 -22.840  0.00  0.00    +0.066 C 
ATOM      3  C   UNL     1      33.448  -9.111 -23.218  0.00  0.00    +0.017 C 
ATOM      4  C   UNL     1      31.203  -8.221 -23.258  0.00  0.00    +0.017 C 
ATOM      5  C   UNL     1      33.883  -8.050 -24.013  0.00  0.00    +0.012 C 
ATOM      6  C   UNL     1      31.637  -7.161 -24.053  0.00  0.00    +0.012 C 
ATOM      7  C   UNL     1      32.977  -7.075 -24.431  0.00  0.00    +0.069 C 
BRANCH   7   9
ATOM      8  N   UNL     1      33.782  -5.105 -25.909  0.00  0.00    -0.191 NA
ATOM      9  C   UNL     1      33.421  -5.989 -25.246  0.00  0.00    +0.100 C 
ENDBRANCH   7   9
ENDBRANCH   1   2
BRANCH   1  10
ATOM     10  N   UNL     1      31.660 -10.254 -20.643  0.00  0.00    -0.174 N 
ATOM     11  N   UNL     1      32.080  -9.701 -18.591  0.00  0.00    -0.127 NA
ATOM     12  N   UNL     1      31.208 -10.771 -18.587  0.00  0.00    -0.127 NA
ATOM     13  C   UNL     1      32.339  -9.406 -19.845  0.00  0.00    +0.210 C 
ATOM     14  C   UNL     1      30.968 -11.088 -19.840  0.00  0.00    +0.210 C 
ENDBRANCH   1  10
BRANCH   1  15
ATOM     15  C   UNL     1      31.180 -11.505 -22.634  0.00  0.00    +0.139 C 
BRANCH  15  16
ATOM     16  C   UNL     1      32.233 -12.579 -22.595  0.00  0.00    -0.000 C 
ATOM     17  C   UNL     1      32.296 -13.435 -21.503  0.00  0.00    +0.001 C 
ATOM     18  C   UNL     1      33.128 -12.700 -23.649  0.00  0.00    +0.001 C 
ATOM     19  C   UNL     1      33.273 -14.429 -21.466  0.00  0.00    +0.040 C 
ATOM     20  C   UNL     1      34.104 -13.695 -23.612  0.00  0.00    +0.040 C 
ATOM     21  C   UNL     1      34.177 -14.560 -22.521  0.00  0.00    +0.173 C 
BRANCH  21  22
ATOM     22  O   UNL     1      35.129 -15.532 -22.483  0.00  0.00    -0.349 OA
BRANCH  22  23
ATOM     23  S   UNL     1      34.821 -17.111 -22.807  0.00  0.00    +0.086 S 
ATOM     24  O   UNL     1      34.247 -17.201 -24.137  0.00  0.00    -0.046 OA
ATOM     25  O   UNL     1      34.138 -17.687 -21.662  0.00  0.00    -0.046 OA
BRANCH  23  26
ATOM     26  N   UNL     1      36.387 -17.809 -22.875  0.00  0.00    -0.194 NA
ATOM     27  H   UNL     1      36.308 -18.826 -22.861  0.00  0.00    +0.145 HD
ATOM     28  H   UNL     1      36.933 -17.499 -22.070  0.00  0.00    +0.145 HD
ENDBRANCH  23  26
ENDBRANCH  22  23
ENDBRANCH  21  22
ENDBRANCH  15  16
ENDBRANCH   1  15
TORSDOF 8
ENDMDL
MODEL 9
REMARK VINA RESULT:      -8.2      1.628      2.182
REMARK  Name = 4369413
REMARK  8 active torsions:
REMARK  status: ('A' for Active; 'I' for Inactive)
REMARK    1  A    between atoms: N_1  and  C_2
REMARK    2  A    between atoms: N_1  and  N_10
REMARK    3  A    between atoms: N_1  and  C_15
REMARK    4  A    between atoms: C_7  and  C_9
REMARK    5  A    between atoms: C_15  and  C_16
REMARK    6  A    between atoms: C_21  and  O_22
REMARK    7  A    between atoms: O_22  and  S_23
REMARK    8  A    between atoms: S_23  and  N_26
REMARK                            x       y       z     vdW  Elec       q    Type
REMARK                         _______ _______ _______ _____ _____    ______ ____
ROOT
ATOM      1  N   UNL     1      35.381 -23.965 -13.892  0.00  0.00    -0.227 N 
ENDROOT
BRANCH   1   2
ATOM      2  C   UNL     1      35.633 -23.328 -15.124  0.00  0.00    +0.066 C 
ATOM      3  C   UNL     1      34.649 -23.304 -16.111  0.00  0.00    +0.017 C 
ATOM      4  C   UNL     1      36.868 -22.721 -15.356  0.00  0.00    +0.017 C 
ATOM      5  C   UNL     1      34.899 -22.675 -17.332  0.00  0.00    +0.012 C 
ATOM      6  C   UNL     1      37.118 -22.093 -16.576  0.00  0.00    +0.012 C 
ATOM      7  C   UNL     1      36.133 -22.069 -17.563  0.00  0.00    +0.069 C 
BRANCH   7   9
ATOM      8  N   UNL     1      36.598 -20.901 -19.829  0.00  0.00    -0.191 NA
ATOM      9  C   UNL     1      36.389 -21.424 -18.812  0.00  0.00    +0.100 C 
ENDBRANCH   7   9
ENDBRANCH   1   2
BRANCH   1  10
ATOM     10  N   UNL     1      36.041 -23.668 -12.702  0.00  0.00    -0.174 N 
ATOM     11  N   UNL     1      36.544 -23.592 -10.596  0.00  0.00    -0.127 NA
ATOM     12  N   UNL     1      37.487 -22.869 -11.299  0.00  0.00    -0.127 NA
ATOM     13  C   UNL     1      35.680 -24.066 -11.466  0.00  0.00    +0.210 C 
ATOM     14  C   UNL     1      37.162 -22.930 -12.570  0.00  0.00    +0.210 C 
ENDBRANCH   1  10
BRANCH   1  15
ATOM     15  C   UNL     1      34.374 -25.016 -13.782  0.00  0.00    +0.139 C 
BRANCH  15  16
ATOM     16  C   UNL     1      33.001 -24.483 -14.085  0.00  0.00    -0.000 C 
ATOM     17  C   UNL     1      32.032 -25.338 -14.594  0.00  0.00    +0.001 C 
ATOM     18  C   UNL     1      32.719 -23.144 -13.851  0.00  0.00    +0.001 C 
ATOM     19  C   UNL     1      30.759 -24.843 -14.877  0.00  0.00    +0.040 C 
ATOM     20  C   UNL     1      31.445 -22.649 -14.133  0.00  0.00    +0.040 C 
ATOM     21  C   UNL     1      30.466 -23.499 -14.645  0.00  0.00    +0.173 C 
BRANCH  21  22
ATOM     22  O   UNL     1      29.221 -23.019 -14.920  0.00  0.00    -0.349 OA
BRANCH  22  23
ATOM     23  S   UNL     1      28.723 -22.609 -16.429  0.00  0.00    +0.086 S 
ATOM     24  O   UNL     1      29.895 -22.300 -17.228  0.00  0.00    -0.046 OA
ATOM     25  O   UNL     1      27.635 -21.656 -16.307  0.00  0.00    -0.046 OA
BRANCH  23  26
ATOM     26  N   UNL     1      28.061 -24.071 -17.033  0.00  0.00    -0.194 NA
ATOM     27  H   UNL     1      28.746 -24.535 -17.629  0.00  0.00    +0.145 HD
ATOM     28  H   UNL     1      27.221 -23.866 -17.575  0.00  0.00    +0.145 HD
ENDBRANCH  23  26
ENDBRANCH  22  23
ENDBRANCH  21  22
ENDBRANCH  15  16
ENDBRANCH   1  15
TORSDOF 8
ENDMDL
