MODEL 1
REMARK VINA RESULT:      -8.6      0.000      0.000
REMARK  Name = 447695
REMARK  7 active torsions:
REMARK  status: ('A' for Active; 'I' for Inactive)
REMARK    1  A    between atoms: N_2  and  C_4
REMARK    2  A    between atoms: N_2  and  C_16
REMARK    3  A    between atoms: C_3  and  C_27
REMARK    4  A    between atoms: C_12  and  O_14
REMARK    5  A    between atoms: C_17  and  C_23
REMARK    6  A    between atoms: C_23  and  O_24
REMARK    7  A    between atoms: C_27  and  O_28
REMARK                            x       y       z     vdW  Elec       q    Type
REMARK                         _______ _______ _______ _____ _____    ______ ____
ROOT
ATOM      1  O   UNL     1      32.957 -22.372 -15.331  0.00  0.00    -0.262 OA
ATOM      2  N   UNL     1      34.985 -23.575 -15.587  0.00  0.00    -0.228 N 
ATOM      3  C   UNL     1      33.699 -23.302 -15.033  0.00  0.00    +0.332 C 
ENDROOT
BRANCH   2   4
ATOM      4  C   UNL     1      35.747 -24.648 -15.107  0.00  0.00    +0.059 C 
ATOM      5  C   UNL     1      36.549 -24.530 -13.960  0.00  0.00    +0.017 C 
ATOM      6  C   UNL     1      37.298 -25.648 -13.522  0.00  0.00    +0.001 C 
ATOM      7  C   UNL     1      35.685 -25.850 -15.811  0.00  0.00    +0.015 C 
ATOM      8  C   UNL     1      36.624 -23.327 -13.238  0.00  0.00    +0.038 C 
ATOM      9  C   UNL     1      37.223 -26.851 -14.243  0.00  0.00    +0.000 C 
ATOM     10  C   UNL     1      38.100 -25.530 -12.374  0.00  0.00    +0.003 C 
ATOM     11  C   UNL     1      36.421 -26.950 -15.380  0.00  0.00    +0.001 C 
ATOM     12  C   UNL     1      37.426 -23.228 -12.101  0.00  0.00    +0.134 C 
ATOM     13  C   UNL     1      38.162 -24.328 -11.669  0.00  0.00    +0.037 C 
BRANCH  12  14
ATOM     14  O   UNL     1      37.488 -22.056 -11.412  0.00  0.00    -0.506 OA
ATOM     15  H   UNL     1      36.740 -21.493 -11.377  0.00  0.00    +0.292 HD
ENDBRANCH  12  14
ENDBRANCH   2   4
BRANCH   2  16
ATOM     16  C   UNL     1      35.499 -22.729 -16.656  0.00  0.00    +0.065 C 
ATOM     17  C   UNL     1      34.823 -22.683 -17.842  0.00  0.00    +0.089 C 
ATOM     18  C   UNL     1      36.643 -22.029 -16.395  0.00  0.00    +0.015 C 
ATOM     19  C   UNL     1      35.332 -21.867 -18.851  0.00  0.00    +0.008 C 
ATOM     20  C   UNL     1      37.153 -21.214 -17.404  0.00  0.00    +0.001 C 
ATOM     21  C   UNL     1      36.498 -21.132 -18.633  0.00  0.00    +0.000 C 
BRANCH  17  23
ATOM     22  O   UNL     1      33.550 -24.648 -18.339  0.00  0.00    -0.245 OA
ATOM     23  C   UNL     1      33.603 -23.438 -18.104  0.00  0.00    +0.339 C 
BRANCH  23  24
ATOM     24  O   UNL     1      32.492 -22.655 -18.061  0.00  0.00    -0.477 OA
ATOM     25  H   UNL     1      31.855 -22.782 -17.386  0.00  0.00    +0.295 HD
ENDBRANCH  23  24
ENDBRANCH  17  23
ENDBRANCH   2  16
BRANCH   3  27
ATOM     26  O   UNL     1      32.604 -25.226 -14.150  0.00  0.00    -0.240 OA
ATOM     27  C   UNL     1      33.186 -24.183 -13.931  0.00  0.00    +0.393 C 
BRANCH  27  28
ATOM     28  O   UNL     1      33.415 -23.600 -12.746  0.00  0.00    -0.474 OA
ATOM     29  H   UNL     1      32.957 -23.893 -11.982  0.00  0.00    +0.296 HD
ENDBRANCH  27  28
ENDBRANCH   3  27
TORSDOF 7
ENDMDL
MODEL 2
REMARK VINA RESULT:      -6.8      1.631      3.266
REMARK  Name = 447695
REMARK  7 active torsions:
REMARK  status: ('A' for Active; 'I' for Inactive)
REMARK    1  A    between atoms: N_2  and  C_4
REMARK    2  A    between atoms: N_2  and  C_16
REMARK    3  A    between atoms: C_3  and  C_27
REMARK    4  A    between atoms: C_12  and  O_14
REMARK    5  A    between atoms: C_17  and  C_23
REMARK    6  A    between atoms: C_23  and  O_24
REMARK    7  A    between atoms: C_27  and  O_28
REMARK                            x       y       z     vdW  Elec       q    Type
REMARK                         _______ _______ _______ _____ _____    ______ ____
ROOT
ATOM      1  O   UNL     1      35.109 -21.434 -16.672  0.00  0.00    -0.262 OA
ATOM      2  N   UNL     1      35.027 -23.496 -15.502  0.00  0.00    -0.228 N 
ATOM      3  C   UNL     1      35.659 -22.423 -16.199  0.00  0.00    +0.332 C 
ENDROOT
BRANCH   2   4
ATOM      4  C   UNL     1      35.779 -24.594 -15.063  0.00  0.00    +0.059 C 
ATOM      5  C   UNL     1      36.519 -24.553 -13.869  0.00  0.00    +0.017 C 
ATOM      6  C   UNL     1      37.260 -25.693 -13.477  0.00  0.00    +0.001 C 
ATOM      7  C   UNL     1      35.772 -25.740 -15.857  0.00  0.00    +0.015 C 
ATOM      8  C   UNL     1      36.538 -23.407 -13.057  0.00  0.00    +0.038 C 
ATOM      9  C   UNL     1      37.241 -26.839 -14.289  0.00  0.00    +0.000 C 
ATOM     10  C   UNL     1      37.999 -25.653 -12.283  0.00  0.00    +0.003 C 
ATOM     11  C   UNL     1      36.500 -26.861 -15.471  0.00  0.00    +0.001 C 
ATOM     12  C   UNL     1      37.277 -23.385 -11.875  0.00  0.00    +0.134 C 
ATOM     13  C   UNL     1      38.007 -24.507 -11.488  0.00  0.00    +0.037 C 
BRANCH  12  14
ATOM     14  O   UNL     1      37.287 -22.268 -11.098  0.00  0.00    -0.506 OA
ATOM     15  H   UNL     1      36.666 -22.176 -10.402  0.00  0.00    +0.292 HD
ENDBRANCH  12  14
ENDBRANCH   2   4
BRANCH   2  16
ATOM     16  C   UNL     1      33.594 -23.440 -15.249  0.00  0.00    +0.065 C 
ATOM     17  C   UNL     1      32.739 -23.371 -16.312  0.00  0.00    +0.089 C 
ATOM     18  C   UNL     1      33.196 -23.457 -13.941  0.00  0.00    +0.015 C 
ATOM     19  C   UNL     1      31.371 -23.318 -16.046  0.00  0.00    +0.008 C 
ATOM     20  C   UNL     1      31.828 -23.403 -13.676  0.00  0.00    +0.001 C 
ATOM     21  C   UNL     1      30.915 -23.333 -14.728  0.00  0.00    +0.000 C 
BRANCH  17  23
ATOM     22  O   UNL     1      33.753 -24.281 -18.280  0.00  0.00    -0.245 OA
ATOM     23  C   UNL     1      33.181 -23.353 -17.701  0.00  0.00    +0.339 C 
BRANCH  23  24
ATOM     24  O   UNL     1      32.893 -22.177 -18.319  0.00  0.00    -0.477 OA
ATOM     25  H   UNL     1      33.357 -21.929 -19.095  0.00  0.00    +0.295 HD
ENDBRANCH  23  24
ENDBRANCH  17  23
ENDBRANCH   2  16
BRANCH   3  27
ATOM     26  O   UNL     1      37.957 -22.320 -15.574  0.00  0.00    -0.240 OA
ATOM     27  C   UNL     1      37.137 -22.499 -16.452  0.00  0.00    +0.393 C 
BRANCH  27  28
ATOM     28  O   UNL     1      37.359 -22.712 -17.756  0.00  0.00    -0.474 OA
ATOM     29  H   UNL     1      36.988 -22.136 -18.396  0.00  0.00    +0.296 HD
ENDBRANCH  27  28
ENDBRANCH   3  27
TORSDOF 7
ENDMDL
MODEL 3
REMARK VINA RESULT:      -6.7      1.314      2.257
REMARK  Name = 447695
REMARK  7 active torsions:
REMARK  status: ('A' for Active; 'I' for Inactive)
REMARK    1  A    between atoms: N_2  and  C_4
REMARK    2  A    between atoms: N_2  and  C_16
REMARK    3  A    between atoms: C_3  and  C_27
REMARK    4  A    between atoms: C_12  and  O_14
REMARK    5  A    between atoms: C_17  and  C_23
REMARK    6  A    between atoms: C_23  and  O_24
REMARK    7  A    between atoms: C_27  and  O_28
REMARK                            x       y       z     vdW  Elec       q    Type
REMARK                         _______ _______ _______ _____ _____    ______ ____
ROOT
ATOM      1  O   UNL     1      32.890 -22.559 -14.907  0.00  0.00    -0.262 OA
ATOM      2  N   UNL     1      34.841 -23.773 -15.497  0.00  0.00    -0.228 N 
ATOM      3  C   UNL     1      33.712 -23.443 -14.689  0.00  0.00    +0.332 C 
ENDROOT
BRANCH   2   4
ATOM      4  C   UNL     1      35.730 -24.777 -15.092  0.00  0.00    +0.059 C 
ATOM      5  C   UNL     1      36.558 -24.620 -13.967  0.00  0.00    +0.017 C 
ATOM      6  C   UNL     1      37.437 -25.669 -13.605  0.00  0.00    +0.001 C 
ATOM      7  C   UNL     1      35.770 -25.948 -15.847  0.00  0.00    +0.015 C 
ATOM      8  C   UNL     1      36.531 -23.447 -13.195  0.00  0.00    +0.038 C 
ATOM      9  C   UNL     1      37.463 -26.841 -14.378  0.00  0.00    +0.000 C 
ATOM     10  C   UNL     1      38.264 -25.512 -12.481  0.00  0.00    +0.003 C 
ATOM     11  C   UNL     1      36.634 -26.979 -15.491  0.00  0.00    +0.001 C 
ATOM     12  C   UNL     1      37.360 -23.309 -12.082  0.00  0.00    +0.134 C 
ATOM     13  C   UNL     1      38.225 -24.341 -11.725  0.00  0.00    +0.037 C 
BRANCH  12  14
ATOM     14  O   UNL     1      37.323 -22.167 -11.343  0.00  0.00    -0.506 OA
ATOM     15  H   UNL     1      37.014 -22.191 -10.459  0.00  0.00    +0.292 HD
ENDBRANCH  12  14
ENDBRANCH   2   4
BRANCH   2  16
ATOM     16  C   UNL     1      35.059 -23.059 -16.748  0.00  0.00    +0.065 C 
ATOM     17  C   UNL     1      36.251 -22.422 -16.944  0.00  0.00    +0.089 C 
ATOM     18  C   UNL     1      34.037 -23.074 -17.655  0.00  0.00    +0.015 C 
ATOM     19  C   UNL     1      36.438 -21.744 -18.148  0.00  0.00    +0.008 C 
ATOM     20  C   UNL     1      34.224 -22.396 -18.859  0.00  0.00    +0.001 C 
ATOM     21  C   UNL     1      35.425 -21.731 -19.106  0.00  0.00    +0.000 C 
BRANCH  17  23
ATOM     22  O   UNL     1      37.423 -21.639 -15.009  0.00  0.00    -0.245 OA
ATOM     23  C   UNL     1      37.331 -22.415 -15.964  0.00  0.00    +0.339 C 
BRANCH  23  24
ATOM     24  O   UNL     1      38.258 -23.379 -16.211  0.00  0.00    -0.477 OA
ATOM     25  H   UNL     1      38.929 -23.557 -15.581  0.00  0.00    +0.295 HD
ENDBRANCH  23  24
ENDBRANCH  17  23
ENDBRANCH   2  16
BRANCH   3  27
ATOM     26  O   UNL     1      33.961 -23.804 -12.347  0.00  0.00    -0.240 OA
ATOM     27  C   UNL     1      33.503 -24.188 -13.403  0.00  0.00    +0.393 C 
BRANCH  27  28
ATOM     28  O   UNL     1      32.823 -25.318 -13.644  0.00  0.00    -0.474 OA
ATOM     29  H   UNL     1      33.283 -26.105 -13.864  0.00  0.00    +0.296 HD
ENDBRANCH  27  28
ENDBRANCH   3  27
TORSDOF 7
ENDMDL
MODEL 4
REMARK VINA RESULT:      -6.2      2.422      6.151
REMARK  Name = 447695
REMARK  7 active torsions:
REMARK  status: ('A' for Active; 'I' for Inactive)
REMARK    1  A    between atoms: N_2  and  C_4
REMARK    2  A    between atoms: N_2  and  C_16
REMARK    3  A    between atoms: C_3  and  C_27
REMARK    4  A    between atoms: C_12  and  O_14
REMARK    5  A    between atoms: C_17  and  C_23
REMARK    6  A    between atoms: C_23  and  O_24
REMARK    7  A    between atoms: C_27  and  O_28
REMARK                            x       y       z     vdW  Elec       q    Type
REMARK                         _______ _______ _______ _____ _____    ______ ____
ROOT
ATOM      1  O   UNL     1      37.189 -27.108 -13.253  0.00  0.00    -0.262 OA
ATOM      2  N   UNL     1      36.599 -24.900 -13.890  0.00  0.00    -0.228 N 
ATOM      3  C   UNL     1      37.017 -26.247 -14.109  0.00  0.00    +0.332 C 
ENDROOT
BRANCH   2   4
ATOM      4  C   UNL     1      36.498 -24.008 -14.966  0.00  0.00    +0.059 C 
ATOM      5  C   UNL     1      35.266 -23.731 -15.581  0.00  0.00    +0.017 C 
ATOM      6  C   UNL     1      35.224 -22.821 -16.664  0.00  0.00    +0.001 C 
ATOM      7  C   UNL     1      37.669 -23.397 -15.412  0.00  0.00    +0.015 C 
ATOM      8  C   UNL     1      34.075 -24.337 -15.146  0.00  0.00    +0.038 C 
ATOM      9  C   UNL     1      36.414 -22.215 -17.100  0.00  0.00    +0.000 C 
ATOM     10  C   UNL     1      33.992 -22.544 -17.280  0.00  0.00    +0.003 C 
ATOM     11  C   UNL     1      37.627 -22.502 -16.476  0.00  0.00    +0.001 C 
ATOM     12  C   UNL     1      32.861 -24.050 -15.769  0.00  0.00    +0.134 C 
ATOM     13  C   UNL     1      32.819 -23.154 -16.834  0.00  0.00    +0.037 C 
BRANCH  12  14
ATOM     14  O   UNL     1      31.716 -24.645 -15.336  0.00  0.00    -0.506 OA
ATOM     15  H   UNL     1      31.761 -25.432 -14.829  0.00  0.00    +0.292 HD
ENDBRANCH  12  14
ENDBRANCH   2   4
BRANCH   2  16
ATOM     16  C   UNL     1      36.280 -24.460 -12.538  0.00  0.00    +0.065 C 
ATOM     17  C   UNL     1      37.285 -23.984 -11.745  0.00  0.00    +0.089 C 
ATOM     18  C   UNL     1      34.973 -24.559 -12.150  0.00  0.00    +0.015 C 
ATOM     19  C   UNL     1      36.956 -23.569 -10.456  0.00  0.00    +0.008 C 
ATOM     20  C   UNL     1      34.645 -24.145 -10.859  0.00  0.00    +0.001 C 
ATOM     21  C   UNL     1      35.636 -23.650 -10.012  0.00  0.00    +0.000 C 
BRANCH  17  23
ATOM     22  O   UNL     1      39.234 -24.662 -12.956  0.00  0.00    -0.245 OA
ATOM     23  C   UNL     1      38.674 -23.887 -12.177  0.00  0.00    +0.339 C 
BRANCH  23  24
ATOM     24  O   UNL     1      39.314 -22.824 -11.620  0.00  0.00    -0.477 OA
ATOM     25  H   UNL     1      38.941 -22.385 -10.881  0.00  0.00    +0.295 HD
ENDBRANCH  23  24
ENDBRANCH  17  23
ENDBRANCH   2  16
BRANCH   3  27
ATOM     26  O   UNL     1      36.527 -27.218 -16.230  0.00  0.00    -0.240 OA
ATOM     27  C   UNL     1      37.343 -26.682 -15.508  0.00  0.00    +0.393 C 
BRANCH  27  28
ATOM     28  O   UNL     1      38.639 -26.448 -15.761  0.00  0.00    -0.474 OA
ATOM     29  H   UNL     1      39.289 -27.063 -15.485  0.00  0.00    +0.296 HD
ENDBRANCH  27  28
ENDBRANCH   3  27
TORSDOF 7
ENDMDL
MODEL 5
REMARK VINA RESULT:      -5.8      1.335      2.634
REMARK  Name = 447695
REMARK  7 active torsions:
REMARK  status: ('A' for Active; 'I' for Inactive)
REMARK    1  A    between atoms: N_2  and  C_4
REMARK    2  A    between atoms: N_2  and  C_16
REMARK    3  A    between atoms: C_3  and  C_27
REMARK    4  A    between atoms: C_12  and  O_14
REMARK    5  A    between atoms: C_17  and  C_23
REMARK    6  A    between atoms: C_23  and  O_24
REMARK    7  A    between atoms: C_27  and  O_28
REMARK                            x       y       z     vdW  Elec       q    Type
REMARK                         _______ _______ _______ _____ _____    ______ ____
ROOT
ATOM      1  O   UNL     1      32.566 -22.544 -15.569  0.00  0.00    -0.262 OA
ATOM      2  N   UNL     1      34.760 -23.168 -14.917  0.00  0.00    -0.228 N 
ATOM      3  C   UNL     1      33.339 -23.109 -14.802  0.00  0.00    +0.332 C 
ENDROOT
BRANCH   2   4
ATOM      4  C   UNL     1      35.523 -23.805 -13.930  0.00  0.00    +0.059 C 
ATOM      5  C   UNL     1      36.143 -25.045 -14.161  0.00  0.00    +0.017 C 
ATOM      6  C   UNL     1      36.901 -25.642 -13.126  0.00  0.00    +0.001 C 
ATOM      7  C   UNL     1      35.649 -23.166 -12.697  0.00  0.00    +0.015 C 
ATOM      8  C   UNL     1      36.026 -25.704 -15.396  0.00  0.00    +0.038 C 
ATOM      9  C   UNL     1      37.018 -24.983 -11.891  0.00  0.00    +0.000 C 
ATOM     10  C   UNL     1      37.521 -26.881 -13.357  0.00  0.00    +0.003 C 
ATOM     11  C   UNL     1      36.396 -23.753 -11.680  0.00  0.00    +0.001 C 
ATOM     12  C   UNL     1      36.648 -26.934 -15.608  0.00  0.00    +0.134 C 
ATOM     13  C   UNL     1      37.395 -27.522 -14.590  0.00  0.00    +0.037 C 
BRANCH  12  14
ATOM     14  O   UNL     1      36.526 -27.561 -16.809  0.00  0.00    -0.506 OA
ATOM     15  H   UNL     1      35.782 -27.390 -17.353  0.00  0.00    +0.292 HD
ENDBRANCH  12  14
ENDBRANCH   2   4
BRANCH   2  16
ATOM     16  C   UNL     1      35.411 -22.560 -16.070  0.00  0.00    +0.065 C 
ATOM     17  C   UNL     1      34.870 -22.752 -17.309  0.00  0.00    +0.089 C 
ATOM     18  C   UNL     1      36.539 -21.828 -15.827  0.00  0.00    +0.015 C 
ATOM     19  C   UNL     1      35.510 -22.161 -18.398  0.00  0.00    +0.008 C 
ATOM     20  C   UNL     1      37.179 -21.237 -16.917  0.00  0.00    +0.001 C 
ATOM     21  C   UNL     1      36.665 -21.404 -18.202  0.00  0.00    +0.000 C 
BRANCH  17  23
ATOM     22  O   UNL     1      33.532 -24.736 -17.288  0.00  0.00    -0.245 OA
ATOM     23  C   UNL     1      33.666 -23.537 -17.549  0.00  0.00    +0.339 C 
BRANCH  23  24
ATOM     24  O   UNL     1      32.670 -22.798 -18.107  0.00  0.00    -0.477 OA
ATOM     25  H   UNL     1      32.875 -22.023 -18.590  0.00  0.00    +0.295 HD
ENDBRANCH  23  24
ENDBRANCH  17  23
ENDBRANCH   2  16
BRANCH   3  27
ATOM     26  O   UNL     1      32.527 -24.940 -13.510  0.00  0.00    -0.240 OA
ATOM     27  C   UNL     1      32.685 -23.740 -13.607  0.00  0.00    +0.393 C 
BRANCH  27  28
ATOM     28  O   UNL     1      32.274 -22.783 -12.762  0.00  0.00    -0.474 OA
ATOM     29  H   UNL     1      32.653 -21.927 -12.803  0.00  0.00    +0.296 HD
ENDBRANCH  27  28
ENDBRANCH   3  27
TORSDOF 7
ENDMDL
