MODEL 1
REMARK VINA RESULT:      -9.0      0.000      0.000
REMARK  Name = 71301276
REMARK  2 active torsions:
REMARK  status: ('A' for Active; 'I' for Inactive)
REMARK    1  A    between atoms: C_3  and  C_20
REMARK    2  A    between atoms: C_20  and  O_21
REMARK                            x       y       z     vdW  Elec       q    Type
REMARK                         _______ _______ _______ _____ _____    ______ ____
ROOT
ATOM      1  O   UNL     1      32.406 -22.861 -17.919  0.00  0.00    -0.460 OA
ATOM      2  N   UNL     1      32.725 -24.269 -14.501  0.00  0.00    +0.393 N 
ATOM      3  C   UNL     1      30.577 -23.488 -15.549  0.00  0.00    +0.017 C 
ATOM      4  C   UNL     1      31.991 -24.112 -15.801  0.00  0.00    +0.003 C 
ATOM      5  C   UNL     1      29.824 -24.383 -14.524  0.00  0.00    -0.001 C 
ATOM      6  C   UNL     1      32.026 -25.199 -13.610  0.00  0.00    -0.077 C 
ATOM      7  C   UNL     1      30.639 -24.669 -13.267  0.00  0.00    -0.023 C 
ATOM      8  C   UNL     1      32.867 -23.341 -16.740  0.00  0.00    +0.100 A 
ATOM      9  C   UNL     1      34.137 -24.680 -14.685  0.00  0.00    -0.072 C 
ATOM     10  C   UNL     1      30.668 -22.044 -15.008  0.00  0.00    +0.001 C 
ATOM     11  C   UNL     1      34.218 -23.106 -16.601  0.00  0.00    +0.007 A 
ATOM     12  C   UNL     1      34.958 -23.589 -15.412  0.00  0.00    +0.006 C 
ATOM     13  C   UNL     1      34.618 -22.385 -17.753  0.00  0.00    +0.033 A 
ATOM     14  C   UNL     1      33.469 -22.261 -18.532  0.00  0.00    +0.144 A 
ATOM     15  C   UNL     1      35.819 -21.833 -18.233  0.00  0.00    +0.003 C 
ATOM     16  C   UNL     1      33.431 -21.616 -19.767  0.00  0.00    +0.037 C 
ATOM     17  C   UNL     1      35.808 -21.176 -19.472  0.00  0.00    +0.000 C 
ATOM     18  C   UNL     1      34.635 -21.071 -20.223  0.00  0.00    +0.003 C 
ATOM     19  H   UNL     1      32.741 -23.347 -14.066  0.00  0.00    -0.079 HD
ENDROOT
BRANCH   3  20
ATOM     20  C   UNL     1      29.714 -23.468 -16.830  0.00  0.00    +0.141 C 
BRANCH  20  21
ATOM     21  O   UNL     1      29.033 -22.235 -16.873  0.00  0.00    -0.351 OA
ATOM     22  C   UNL     1      27.619 -22.408 -16.922  0.00  0.00    +0.174 C 
ENDBRANCH  20  21
ENDBRANCH   3  20
TORSDOF 2
ENDMDL
MODEL 2
REMARK VINA RESULT:      -8.6      3.152      5.753
REMARK  Name = 71301276
REMARK  2 active torsions:
REMARK  status: ('A' for Active; 'I' for Inactive)
REMARK    1  A    between atoms: C_3  and  C_20
REMARK    2  A    between atoms: C_20  and  O_21
REMARK                            x       y       z     vdW  Elec       q    Type
REMARK                         _______ _______ _______ _____ _____    ______ ____
ROOT
ATOM      1  O   UNL     1      36.231 -22.943 -16.503  0.00  0.00    -0.460 OA
ATOM      2  N   UNL     1      35.007 -24.586 -13.410  0.00  0.00    +0.393 N 
ATOM      3  C   UNL     1      37.335 -24.800 -14.337  0.00  0.00    +0.017 C 
ATOM      4  C   UNL     1      36.074 -23.882 -14.197  0.00  0.00    +0.003 C 
ATOM      5  C   UNL     1      37.799 -25.213 -12.912  0.00  0.00    -0.001 C 
ATOM      6  C   UNL     1      35.458 -24.865 -12.044  0.00  0.00    -0.077 C 
ATOM      7  C   UNL     1      36.672 -25.787 -12.060  0.00  0.00    -0.023 C 
ATOM      8  C   UNL     1      35.472 -23.427 -15.492  0.00  0.00    +0.100 A 
ATOM      9  C   UNL     1      33.721 -23.849 -13.398  0.00  0.00    -0.072 C 
ATOM     10  C   UNL     1      37.042 -26.065 -15.175  0.00  0.00    +0.001 C 
ATOM     11  C   UNL     1      34.130 -23.342 -15.792  0.00  0.00    +0.007 A 
ATOM     12  C   UNL     1      33.101 -23.763 -14.812  0.00  0.00    +0.006 C 
ATOM     13  C   UNL     1      34.047 -22.813 -17.103  0.00  0.00    +0.033 A 
ATOM     14  C   UNL     1      35.365 -22.584 -17.496  0.00  0.00    +0.144 A 
ATOM     15  C   UNL     1      33.012 -22.491 -18.000  0.00  0.00    +0.003 C 
ATOM     16  C   UNL     1      35.727 -22.055 -18.733  0.00  0.00    +0.037 C 
ATOM     17  C   UNL     1      33.350 -21.959 -19.252  0.00  0.00    +0.000 C 
ATOM     18  C   UNL     1      34.683 -21.746 -19.609  0.00  0.00    +0.003 C 
ATOM     19  H   UNL     1      34.835 -25.472 -13.885  0.00  0.00    -0.079 HD
ENDROOT
BRANCH   3  20
ATOM     20  C   UNL     1      38.524 -24.058 -14.987  0.00  0.00    +0.141 C 
BRANCH  20  21
ATOM     21  O   UNL     1      39.703 -24.491 -14.348  0.00  0.00    -0.351 OA
ATOM     22  C   UNL     1      40.435 -25.415 -15.150  0.00  0.00    +0.174 C 
ENDBRANCH  20  21
ENDBRANCH   3  20
TORSDOF 2
ENDMDL
MODEL 3
REMARK VINA RESULT:      -7.6      1.555      2.327
REMARK  Name = 71301276
REMARK  2 active torsions:
REMARK  status: ('A' for Active; 'I' for Inactive)
REMARK    1  A    between atoms: C_3  and  C_20
REMARK    2  A    between atoms: C_20  and  O_21
REMARK                            x       y       z     vdW  Elec       q    Type
REMARK                         _______ _______ _______ _____ _____    ______ ____
ROOT
ATOM      1  O   UNL     1      33.739 -22.826 -17.794  0.00  0.00    -0.460 OA
ATOM      2  N   UNL     1      35.543 -23.717 -14.677  0.00  0.00    +0.393 N 
ATOM      3  C   UNL     1      33.043 -23.687 -14.943  0.00  0.00    +0.017 C 
ATOM      4  C   UNL     1      34.420 -23.911 -15.654  0.00  0.00    +0.003 C 
ATOM      5  C   UNL     1      32.963 -24.645 -13.720  0.00  0.00    -0.001 C 
ATOM      6  C   UNL     1      35.479 -24.706 -13.598  0.00  0.00    -0.077 C 
ATOM      7  C   UNL     1      34.183 -24.554 -12.810  0.00  0.00    -0.023 C 
ATOM      8  C   UNL     1      34.675 -23.029 -16.838  0.00  0.00    +0.100 A 
ATOM      9  C   UNL     1      36.876 -23.732 -15.324  0.00  0.00    -0.072 C 
ATOM     10  C   UNL     1      32.864 -22.227 -14.472  0.00  0.00    +0.001 C 
ATOM     11  C   UNL     1      35.862 -22.410 -17.164  0.00  0.00    +0.007 A 
ATOM     12  C   UNL     1      37.053 -22.537 -16.291  0.00  0.00    +0.006 C 
ATOM     13  C   UNL     1      35.637 -21.732 -18.387  0.00  0.00    +0.033 A 
ATOM     14  C   UNL     1      34.317 -22.019 -18.733  0.00  0.00    +0.144 A 
ATOM     15  C   UNL     1      36.396 -20.918 -19.246  0.00  0.00    +0.003 C 
ATOM     16  C   UNL     1      33.694 -21.546 -19.886  0.00  0.00    +0.037 C 
ATOM     17  C   UNL     1      35.793 -20.426 -20.412  0.00  0.00    +0.000 C 
ATOM     18  C   UNL     1      34.466 -20.736 -20.724  0.00  0.00    +0.003 C 
ATOM     19  H   UNL     1      35.420 -22.787 -14.277  0.00  0.00    -0.079 HD
ENDROOT
BRANCH   3  20
ATOM     20  C   UNL     1      31.851 -24.047 -15.859  0.00  0.00    +0.141 C 
BRANCH  20  21
ATOM     21  O   UNL     1      30.715 -23.368 -15.375  0.00  0.00    -0.351 OA
ATOM     22  C   UNL     1      29.567 -24.211 -15.334  0.00  0.00    +0.174 C 
ENDBRANCH  20  21
ENDBRANCH   3  20
TORSDOF 2
ENDMDL
MODEL 4
REMARK VINA RESULT:      -7.5      1.525      5.473
REMARK  Name = 71301276
REMARK  2 active torsions:
REMARK  status: ('A' for Active; 'I' for Inactive)
REMARK    1  A    between atoms: C_3  and  C_20
REMARK    2  A    between atoms: C_20  and  O_21
REMARK                            x       y       z     vdW  Elec       q    Type
REMARK                         _______ _______ _______ _____ _____    ______ ____
ROOT
ATOM      1  O   UNL     1      31.645 -22.666 -17.150  0.00  0.00    -0.460 OA
ATOM      2  N   UNL     1      35.310 -22.848 -16.607  0.00  0.00    +0.393 N 
ATOM      3  C   UNL     1      34.199 -22.192 -18.765  0.00  0.00    +0.017 C 
ATOM      4  C   UNL     1      34.095 -22.200 -17.203  0.00  0.00    +0.003 C 
ATOM      5  C   UNL     1      35.527 -21.486 -19.163  0.00  0.00    -0.001 C 
ATOM      6  C   UNL     1      36.523 -22.090 -16.928  0.00  0.00    -0.077 C 
ATOM      7  C   UNL     1      36.743 -22.048 -18.435  0.00  0.00    -0.023 C 
ATOM      8  C   UNL     1      32.883 -22.886 -16.650  0.00  0.00    +0.100 A 
ATOM      9  C   UNL     1      35.193 -23.055 -15.144  0.00  0.00    -0.072 C 
ATOM     10  C   UNL     1      34.173 -23.619 -19.355  0.00  0.00    +0.001 C 
ATOM     11  C   UNL     1      32.836 -23.716 -15.551  0.00  0.00    +0.007 A 
ATOM     12  C   UNL     1      34.066 -24.057 -14.800  0.00  0.00    +0.006 C 
ATOM     13  C   UNL     1      31.477 -24.079 -15.383  0.00  0.00    +0.033 A 
ATOM     14  C   UNL     1      30.785 -23.407 -16.390  0.00  0.00    +0.144 A 
ATOM     15  C   UNL     1      30.750 -24.887 -14.492  0.00  0.00    +0.003 C 
ATOM     16  C   UNL     1      29.407 -23.488 -16.575  0.00  0.00    +0.037 C 
ATOM     17  C   UNL     1      29.361 -24.988 -14.657  0.00  0.00    +0.000 C 
ATOM     18  C   UNL     1      28.704 -24.300 -15.680  0.00  0.00    +0.003 C 
ATOM     19  H   UNL     1      35.380 -23.773 -17.031  0.00  0.00    -0.079 HD
ENDROOT
BRANCH   3  20
ATOM     20  C   UNL     1      33.058 -21.380 -19.419  0.00  0.00    +0.141 C 
BRANCH  20  21
ATOM     21  O   UNL     1      33.641 -20.301 -20.113  0.00  0.00    -0.351 OA
ATOM     22  C   UNL     1      32.676 -19.565 -20.862  0.00  0.00    +0.174 C 
ENDBRANCH  20  21
ENDBRANCH   3  20
TORSDOF 2
ENDMDL
MODEL 5
REMARK VINA RESULT:      -7.4     12.849     15.791
REMARK  Name = 71301276
REMARK  2 active torsions:
REMARK  status: ('A' for Active; 'I' for Inactive)
REMARK    1  A    between atoms: C_3  and  C_20
REMARK    2  A    between atoms: C_20  and  O_21
REMARK                            x       y       z     vdW  Elec       q    Type
REMARK                         _______ _______ _______ _____ _____    ______ ____
ROOT
ATOM      1  O   UNL     1      32.521 -10.526 -22.308  0.00  0.00    -0.460 OA
ATOM      2  N   UNL     1      34.052  -8.187 -24.747  0.00  0.00    +0.393 N 
ATOM      3  C   UNL     1      32.079  -7.659 -23.279  0.00  0.00    +0.017 C 
ATOM      4  C   UNL     1      33.406  -8.478 -23.423  0.00  0.00    +0.003 C 
ATOM      5  C   UNL     1      32.410  -6.153 -23.481  0.00  0.00    -0.001 C 
ATOM      6  C   UNL     1      34.434  -6.775 -24.847  0.00  0.00    -0.077 C 
ATOM      7  C   UNL     1      33.203  -5.881 -24.755  0.00  0.00    -0.023 C 
ATOM      8  C   UNL     1      33.253  -9.963 -23.297  0.00  0.00    +0.100 A 
ATOM      9  C   UNL     1      35.212  -9.065 -25.026  0.00  0.00    -0.072 C 
ATOM     10  C   UNL     1      31.012  -8.098 -24.307  0.00  0.00    +0.001 C 
ATOM     11  C   UNL     1      33.880 -10.924 -24.060  0.00  0.00    +0.007 A 
ATOM     12  C   UNL     1      34.783 -10.545 -25.172  0.00  0.00    +0.006 C 
ATOM     13  C   UNL     1      33.471 -12.176 -23.541  0.00  0.00    +0.033 A 
ATOM     14  C   UNL     1      32.636 -11.878 -22.465  0.00  0.00    +0.144 A 
ATOM     15  C   UNL     1      33.715 -13.526 -23.848  0.00  0.00    +0.003 C 
ATOM     16  C   UNL     1      32.020 -12.840 -21.667  0.00  0.00    +0.037 C 
ATOM     17  C   UNL     1      33.106 -14.515 -23.062  0.00  0.00    +0.000 C 
ATOM     18  C   UNL     1      32.275 -14.175 -21.992  0.00  0.00    +0.003 C 
ATOM     19  H   UNL     1      33.351  -8.388 -25.460  0.00  0.00    -0.079 HD
ENDROOT
BRANCH   3  20
ATOM     20  C   UNL     1      31.467  -7.788 -21.866  0.00  0.00    +0.141 C 
BRANCH  20  21
ATOM     21  O   UNL     1      31.998  -6.752 -21.071  0.00  0.00    -0.351 OA
ATOM     22  C   UNL     1      32.633  -7.254 -19.897  0.00  0.00    +0.174 C 
ENDBRANCH  20  21
ENDBRANCH   3  20
TORSDOF 2
ENDMDL
MODEL 6
REMARK VINA RESULT:      -7.3      7.615     10.976
REMARK  Name = 71301276
REMARK  2 active torsions:
REMARK  status: ('A' for Active; 'I' for Inactive)
REMARK    1  A    between atoms: C_3  and  C_20
REMARK    2  A    between atoms: C_20  and  O_21
REMARK                            x       y       z     vdW  Elec       q    Type
REMARK                         _______ _______ _______ _____ _____    ______ ____
ROOT
ATOM      1  O   UNL     1      32.688 -14.928 -21.571  0.00  0.00    -0.460 OA
ATOM      2  N   UNL     1      34.131 -16.287 -24.707  0.00  0.00    +0.393 N 
ATOM      3  C   UNL     1      34.410 -17.307 -22.425  0.00  0.00    +0.017 C 
ATOM      4  C   UNL     1      33.481 -16.468 -23.366  0.00  0.00    +0.003 C 
ATOM      5  C   UNL     1      34.736 -18.652 -23.134  0.00  0.00    -0.001 C 
ATOM      6  C   UNL     1      34.326 -17.576 -25.376  0.00  0.00    -0.077 C 
ATOM      7  C   UNL     1      35.252 -18.468 -24.557  0.00  0.00    -0.023 C 
ATOM      8  C   UNL     1      33.105 -15.114 -22.845  0.00  0.00    +0.100 A 
ATOM      9  C   UNL     1      33.390 -15.348 -25.582  0.00  0.00    -0.072 C 
ATOM     10  C   UNL     1      35.723 -16.564 -22.094  0.00  0.00    +0.001 C 
ATOM     11  C   UNL     1      33.034 -13.943 -23.567  0.00  0.00    +0.007 A 
ATOM     12  C   UNL     1      33.390 -13.912 -25.006  0.00  0.00    +0.006 C 
ATOM     13  C   UNL     1      32.587 -12.945 -22.668  0.00  0.00    +0.033 A 
ATOM     14  C   UNL     1      32.388 -13.600 -21.454  0.00  0.00    +0.144 A 
ATOM     15  C   UNL     1      32.319 -11.566 -22.740  0.00  0.00    +0.003 C 
ATOM     16  C   UNL     1      31.938 -12.972 -20.295  0.00  0.00    +0.037 C 
ATOM     17  C   UNL     1      31.866 -10.909 -21.587  0.00  0.00    +0.000 C 
ATOM     18  C   UNL     1      31.680 -11.601 -20.388  0.00  0.00    +0.003 C 
ATOM     19  H   UNL     1      35.044 -15.867 -24.530  0.00  0.00    -0.079 HD
ENDROOT
BRANCH   3  20
ATOM     20  C   UNL     1      33.714 -17.670 -21.095  0.00  0.00    +0.141 C 
BRANCH  20  21
ATOM     21  O   UNL     1      33.984 -19.026 -20.823  0.00  0.00    -0.351 OA
ATOM     22  C   UNL     1      32.795 -19.764 -20.552  0.00  0.00    +0.174 C 
ENDBRANCH  20  21
ENDBRANCH   3  20
TORSDOF 2
ENDMDL
MODEL 7
REMARK VINA RESULT:      -7.2      3.072      6.207
REMARK  Name = 71301276
REMARK  2 active torsions:
REMARK  status: ('A' for Active; 'I' for Inactive)
REMARK    1  A    between atoms: C_3  and  C_20
REMARK    2  A    between atoms: C_20  and  O_21
REMARK                            x       y       z     vdW  Elec       q    Type
REMARK                         _______ _______ _______ _____ _____    ______ ____
ROOT
ATOM      1  O   UNL     1      34.685 -23.342 -15.369  0.00  0.00    -0.460 OA
ATOM      2  N   UNL     1      36.642 -24.576 -12.469  0.00  0.00    +0.393 N 
ATOM      3  C   UNL     1      37.475 -24.478 -14.840  0.00  0.00    +0.017 C 
ATOM      4  C   UNL     1      36.534 -23.832 -13.768  0.00  0.00    +0.003 C 
ATOM      5  C   UNL     1      38.921 -24.504 -14.268  0.00  0.00    -0.001 C 
ATOM      6  C   UNL     1      37.999 -24.487 -11.923  0.00  0.00    -0.077 C 
ATOM      7  C   UNL     1      39.002 -25.124 -12.877  0.00  0.00    -0.023 C 
ATOM      8  C   UNL     1      35.086 -23.769 -14.149  0.00  0.00    +0.100 A 
ATOM      9  C   UNL     1      35.643 -24.134 -11.469  0.00  0.00    -0.072 C 
ATOM     10  C   UNL     1      37.037 -25.912 -15.208  0.00  0.00    +0.001 C 
ATOM     11  C   UNL     1      34.007 -24.023 -13.332  0.00  0.00    +0.007 A 
ATOM     12  C   UNL     1      34.200 -24.452 -11.926  0.00  0.00    +0.006 C 
ATOM     13  C   UNL     1      32.850 -23.785 -14.111  0.00  0.00    +0.033 A 
ATOM     14  C   UNL     1      33.319 -23.368 -15.356  0.00  0.00    +0.144 A 
ATOM     15  C   UNL     1      31.460 -23.864 -13.909  0.00  0.00    +0.003 C 
ATOM     16  C   UNL     1      32.494 -23.023 -16.424  0.00  0.00    +0.037 C 
ATOM     17  C   UNL     1      30.606 -23.524 -14.968  0.00  0.00    +0.000 C 
ATOM     18  C   UNL     1      31.117 -23.112 -16.202  0.00  0.00    +0.003 C 
ATOM     19  H   UNL     1      36.437 -25.553 -12.679  0.00  0.00    -0.079 HD
ENDROOT
BRANCH   3  20
ATOM     20  C   UNL     1      37.534 -23.644 -16.140  0.00  0.00    +0.141 C 
BRANCH  20  21
ATOM     21  O   UNL     1      37.849 -22.317 -15.787  0.00  0.00    -0.351 OA
ATOM     22  C   UNL     1      37.281 -21.375 -16.694  0.00  0.00    +0.174 C 
ENDBRANCH  20  21
ENDBRANCH   3  20
TORSDOF 2
ENDMDL
MODEL 8
REMARK VINA RESULT:      -7.1     14.501     16.843
REMARK  Name = 71301276
REMARK  2 active torsions:
REMARK  status: ('A' for Active; 'I' for Inactive)
REMARK    1  A    between atoms: C_3  and  C_20
REMARK    2  A    between atoms: C_20  and  O_21
REMARK                            x       y       z     vdW  Elec       q    Type
REMARK                         _______ _______ _______ _____ _____    ______ ____
ROOT
ATOM      1  O   UNL     1      32.809  -7.322 -23.996  0.00  0.00    -0.460 OA
ATOM      2  N   UNL     1      31.835  -8.363 -20.571  0.00  0.00    +0.393 N 
ATOM      3  C   UNL     1      32.142  -9.918 -22.523  0.00  0.00    +0.017 C 
ATOM      4  C   UNL     1      32.589  -8.577 -21.851  0.00  0.00    +0.003 C 
ATOM      5  C   UNL     1      32.341 -11.069 -21.495  0.00  0.00    -0.001 C 
ATOM      6  C   UNL     1      32.134  -9.420 -19.601  0.00  0.00    -0.077 C 
ATOM      7  C   UNL     1      31.702 -10.778 -20.142  0.00  0.00    -0.023 C 
ATOM      8  C   UNL     1      32.420  -7.353 -22.700  0.00  0.00    +0.100 A 
ATOM      9  C   UNL     1      32.074  -7.025 -19.979  0.00  0.00    -0.072 C 
ATOM     10  C   UNL     1      30.665  -9.877 -22.975  0.00  0.00    +0.001 C 
ATOM     11  C   UNL     1      31.964  -6.121 -22.287  0.00  0.00    +0.007 A 
ATOM     12  C   UNL     1      31.533  -5.896 -20.888  0.00  0.00    +0.006 C 
ATOM     13  C   UNL     1      32.028  -5.272 -23.419  0.00  0.00    +0.033 A 
ATOM     14  C   UNL     1      32.555  -6.057 -24.444  0.00  0.00    +0.144 A 
ATOM     15  C   UNL     1      31.712  -3.929 -23.695  0.00  0.00    +0.003 C 
ATOM     16  C   UNL     1      32.788  -5.595 -25.737  0.00  0.00    +0.037 C 
ATOM     17  C   UNL     1      31.935  -3.439 -24.990  0.00  0.00    +0.000 C 
ATOM     18  C   UNL     1      32.464  -4.259 -25.990  0.00  0.00    +0.003 C 
ATOM     19  H   UNL     1      30.844  -8.407 -20.809  0.00  0.00    -0.079 HD
ENDROOT
BRANCH   3  20
ATOM     20  C   UNL     1      33.011 -10.272 -23.750  0.00  0.00    +0.141 C 
BRANCH  20  21
ATOM     21  O   UNL     1      33.389 -11.624 -23.636  0.00  0.00    -0.351 OA
ATOM     22  C   UNL     1      33.893 -12.143 -24.864  0.00  0.00    +0.174 C 
ENDBRANCH  20  21
ENDBRANCH   3  20
TORSDOF 2
ENDMDL
MODEL 9
REMARK VINA RESULT:      -7.0     11.057     13.780
REMARK  Name = 71301276
REMARK  2 active torsions:
REMARK  status: ('A' for Active; 'I' for Inactive)
REMARK    1  A    between atoms: C_3  and  C_20
REMARK    2  A    between atoms: C_20  and  O_21
REMARK                            x       y       z     vdW  Elec       q    Type
REMARK                         _______ _______ _______ _____ _____    ______ ____
ROOT
ATOM      1  O   UNL     1      32.373 -10.601 -22.404  0.00  0.00    -0.460 OA
ATOM      2  N   UNL     1      33.835 -13.360 -24.407  0.00  0.00    +0.393 N 
ATOM      3  C   UNL     1      32.898 -13.598 -22.086  0.00  0.00    +0.017 C 
ATOM      4  C   UNL     1      32.815 -12.825 -23.445  0.00  0.00    +0.003 C 
ATOM      5  C   UNL     1      32.727 -15.116 -22.376  0.00  0.00    -0.001 C 
ATOM      6  C   UNL     1      33.572 -14.767 -24.725  0.00  0.00    -0.077 C 
ATOM      7  C   UNL     1      33.663 -15.624 -23.468  0.00  0.00    -0.023 C 
ATOM      8  C   UNL     1      33.004 -11.342 -23.345  0.00  0.00    +0.100 A 
ATOM      9  C   UNL     1      33.936 -12.553 -25.646  0.00  0.00    -0.072 C 
ATOM     10  C   UNL     1      34.241 -13.356 -21.362  0.00  0.00    +0.001 C 
ATOM     11  C   UNL     1      33.725 -10.543 -24.206  0.00  0.00    +0.007 A 
ATOM     12  C   UNL     1      34.458 -11.126 -25.354  0.00  0.00    +0.006 C 
ATOM     13  C   UNL     1      33.572  -9.214 -23.740  0.00  0.00    +0.033 A 
ATOM     14  C   UNL     1      32.732  -9.303 -22.631  0.00  0.00    +0.144 A 
ATOM     15  C   UNL     1      34.036  -7.946 -24.132  0.00  0.00    +0.003 C 
ATOM     16  C   UNL     1      32.321  -8.207 -21.876  0.00  0.00    +0.037 C 
ATOM     17  C   UNL     1      33.640  -6.826 -23.387  0.00  0.00    +0.000 C 
ATOM     18  C   UNL     1      32.797  -6.957 -22.281  0.00  0.00    +0.003 C 
ATOM     19  H   UNL     1      34.738 -13.294 -23.937  0.00  0.00    -0.079 HD
ENDROOT
BRANCH   3  20
ATOM     20  C   UNL     1      31.755 -13.205 -21.123  0.00  0.00    +0.141 C 
BRANCH  20  21
ATOM     21  O   UNL     1      32.336 -12.636 -19.972  0.00  0.00    -0.351 OA
ATOM     22  C   UNL     1      31.602 -11.508 -19.506  0.00  0.00    +0.174 C 
ENDBRANCH  20  21
ENDBRANCH   3  20
TORSDOF 2
ENDMDL
