MODEL 1
REMARK VINA RESULT:     -11.1      0.000      0.000
REMARK  Name = 11596613
REMARK  6 active torsions:
REMARK  status: ('A' for Active; 'I' for Inactive)
REMARK    1  A    between atoms: C_4  and  N_21
REMARK    2  A    between atoms: C_5  and  C_12
REMARK    3  A    between atoms: C_18  and  O_19
REMARK    4  A    between atoms: N_21  and  C_23
REMARK    5  A    between atoms: C_23  and  C_27
REMARK    6  A    between atoms: C_23  and  C_30
REMARK                            x       y       z     vdW  Elec       q    Type
REMARK                         _______ _______ _______ _____ _____    ______ ____
ROOT
ATOM      1  N   UNL     1      32.647 -11.984 -22.876  0.00  0.00    -0.152 N 
ATOM      2  N   UNL     1      31.782 -12.172 -21.838  0.00  0.00    -0.179 NA
ATOM      3  N   UNL     1      33.522 -10.198 -24.235  0.00  0.00    -0.393 NA
ATOM      4  C   UNL     1      33.399 -12.958 -23.554  0.00  0.00    +0.126 C 
ATOM      5  C   UNL     1      31.873  -9.961 -22.374  0.00  0.00    +0.128 C 
ATOM      6  C   UNL     1      32.721 -10.634 -23.224  0.00  0.00    +0.192 C 
ATOM      7  C   UNL     1      31.327 -10.953 -21.552  0.00  0.00    +0.067 C 
ATOM      8  C   UNL     1      34.200 -12.564 -24.557  0.00  0.00    +0.059 C 
ATOM      9  C   UNL     1      34.216 -11.102 -24.861  0.00  0.00    +0.113 C 
ATOM     10  C   UNL     1      30.353 -10.787 -20.458  0.00  0.00    +0.050 C 
ATOM     11  C   UNL     1      35.111 -10.645 -25.985  0.00  0.00    +0.067 C 
ENDROOT
BRANCH   5  12
ATOM     12  C   UNL     1      31.663  -8.544 -22.407  0.00  0.00    -0.013 C 
ATOM     13  C   UNL     1      32.093  -7.723 -21.360  0.00  0.00    -0.022 C 
ATOM     14  C   UNL     1      31.017  -7.978 -23.508  0.00  0.00    -0.001 C 
ATOM     15  C   UNL     1      31.877  -6.346 -21.416  0.00  0.00    +0.032 C 
ATOM     16  C   UNL     1      32.789  -8.288 -20.164  0.00  0.00    +0.031 C 
ATOM     17  C   UNL     1      30.801  -6.600 -23.564  0.00  0.00    +0.037 C 
ATOM     18  C   UNL     1      31.232  -5.785 -22.518  0.00  0.00    +0.138 C 
BRANCH  18  19
ATOM     19  O   UNL     1      31.021  -4.441 -22.572  0.00  0.00    -0.471 OA
ATOM     20  C   UNL     1      31.293  -3.791 -23.812  0.00  0.00    +0.252 C 
ENDBRANCH  18  19
ENDBRANCH   5  12
BRANCH   4  21
ATOM     21  N   UNL     1      33.266 -14.255 -23.146  0.00  0.00    -0.313 N 
ATOM     22  H   UNL     1      32.363 -14.634 -23.056  0.00  0.00    +0.148 HD
BRANCH  21  23
ATOM     23  C   UNL     1      34.396 -15.083 -22.846  0.00  0.00    +0.164 C 
BRANCH  23  27
ATOM     24  O   UNL     1      34.257 -16.137 -25.004  0.00  0.00    -0.314 OA
ATOM     25  N   UNL     1      34.729 -17.529 -23.313  0.00  0.00    -0.315 NA
ATOM     26  N   UNL     1      34.383 -17.411 -25.573  0.00  0.00    -0.012 NA
ATOM     27  C   UNL     1      34.478 -16.338 -23.701  0.00  0.00    +0.311 C 
ATOM     28  C   UNL     1      34.661 -18.177 -24.513  0.00  0.00    +0.105 C 
ATOM     29  C   UNL     1      34.881 -19.622 -24.636  0.00  0.00    +0.132 C 
ENDBRANCH  23  27
BRANCH  23  30
ATOM     30  C   UNL     1      34.380 -15.446 -21.348  0.00  0.00    +0.030 C 
ATOM     31  C   UNL     1      32.992 -15.328 -20.728  0.00  0.00    +0.002 C 
ENDBRANCH  23  30
ENDBRANCH  21  23
ENDBRANCH   4  21
TORSDOF 6
ENDMDL
MODEL 2
REMARK VINA RESULT:     -10.6     12.868     16.050
REMARK  Name = 11596613
REMARK  6 active torsions:
REMARK  status: ('A' for Active; 'I' for Inactive)
REMARK    1  A    between atoms: C_4  and  N_21
REMARK    2  A    between atoms: C_5  and  C_12
REMARK    3  A    between atoms: C_18  and  O_19
REMARK    4  A    between atoms: N_21  and  C_23
REMARK    5  A    between atoms: C_23  and  C_27
REMARK    6  A    between atoms: C_23  and  C_30
REMARK                            x       y       z     vdW  Elec       q    Type
REMARK                         _______ _______ _______ _____ _____    ______ ____
ROOT
ATOM      1  N   UNL     1      32.979 -23.377 -15.448  0.00  0.00    -0.152 N 
ATOM      2  N   UNL     1      32.914 -23.655 -14.114  0.00  0.00    -0.179 NA
ATOM      3  N   UNL     1      34.564 -23.441 -17.261  0.00  0.00    -0.393 NA
ATOM      4  C   UNL     1      31.952 -22.893 -16.275  0.00  0.00    +0.126 C 
ATOM      5  C   UNL     1      35.008 -24.097 -14.892  0.00  0.00    +0.128 C 
ATOM      6  C   UNL     1      34.254 -23.641 -15.951  0.00  0.00    +0.192 C 
ATOM      7  C   UNL     1      34.136 -24.083 -13.798  0.00  0.00    +0.067 C 
ATOM      8  C   UNL     1      32.221 -22.684 -17.574  0.00  0.00    +0.059 C 
ATOM      9  C   UNL     1      33.611 -22.992 -18.023  0.00  0.00    +0.113 C 
ATOM     10  C   UNL     1      34.422 -24.476 -12.407  0.00  0.00    +0.050 C 
ATOM     11  C   UNL     1      33.928 -22.761 -19.480  0.00  0.00    +0.067 C 
ENDROOT
BRANCH   5  12
ATOM     12  C   UNL     1      36.384 -24.480 -14.994  0.00  0.00    -0.013 C 
ATOM     13  C   UNL     1      37.378 -23.542 -15.294  0.00  0.00    -0.022 C 
ATOM     14  C   UNL     1      36.735 -25.816 -14.788  0.00  0.00    -0.001 C 
ATOM     15  C   UNL     1      38.712 -23.941 -15.386  0.00  0.00    +0.032 C 
ATOM     16  C   UNL     1      37.046 -22.103 -15.520  0.00  0.00    +0.031 C 
ATOM     17  C   UNL     1      38.069 -26.214 -14.881  0.00  0.00    +0.037 C 
ATOM     18  C   UNL     1      39.057 -25.276 -15.179  0.00  0.00    +0.138 C 
BRANCH  18  19
ATOM     19  O   UNL     1      40.358 -25.665 -15.270  0.00  0.00    -0.471 OA
ATOM     20  C   UNL     1      40.862 -26.499 -14.228  0.00  0.00    +0.252 C 
ENDBRANCH  18  19
ENDBRANCH   5  12
BRANCH   4  21
ATOM     21  N   UNL     1      30.734 -22.664 -15.701  0.00  0.00    -0.313 N 
ATOM     22  H   UNL     1      30.619 -21.869 -15.133  0.00  0.00    +0.148 HD
BRANCH  21  23
ATOM     23  C   UNL     1      29.617 -23.540 -15.896  0.00  0.00    +0.164 C 
BRANCH  23  27
ATOM     24  O   UNL     1      27.388 -22.880 -15.280  0.00  0.00    -0.314 OA
ATOM     25  N   UNL     1      28.046 -22.171 -17.300  0.00  0.00    -0.315 NA
ATOM     26  N   UNL     1      26.311 -22.155 -15.807  0.00  0.00    -0.012 NA
ATOM     27  C   UNL     1      28.323 -22.816 -16.233  0.00  0.00    +0.311 C 
ATOM     28  C   UNL     1      26.776 -21.770 -17.000  0.00  0.00    +0.105 C 
ATOM     29  C   UNL     1      25.970 -20.966 -17.924  0.00  0.00    +0.132 C 
ENDBRANCH  23  27
BRANCH  23  30
ATOM     30  C   UNL     1      29.436 -24.424 -14.646  0.00  0.00    +0.030 C 
ATOM     31  C   UNL     1      30.181 -25.750 -14.750  0.00  0.00    +0.002 C 
ENDBRANCH  23  30
ENDBRANCH  21  23
ENDBRANCH   4  21
TORSDOF 6
ENDMDL
MODEL 3
REMARK VINA RESULT:     -10.4      2.369      8.964
REMARK  Name = 11596613
REMARK  6 active torsions:
REMARK  status: ('A' for Active; 'I' for Inactive)
REMARK    1  A    between atoms: C_4  and  N_21
REMARK    2  A    between atoms: C_5  and  C_12
REMARK    3  A    between atoms: C_18  and  O_19
REMARK    4  A    between atoms: N_21  and  C_23
REMARK    5  A    between atoms: C_23  and  C_27
REMARK    6  A    between atoms: C_23  and  C_30
REMARK                            x       y       z     vdW  Elec       q    Type
REMARK                         _______ _______ _______ _____ _____    ______ ____
ROOT
ATOM      1  N   UNL     1      33.319  -9.835 -23.448  0.00  0.00    -0.152 N 
ATOM      2  N   UNL     1      34.233  -9.548 -24.418  0.00  0.00    -0.179 NA
ATOM      3  N   UNL     1      32.132 -11.729 -22.548  0.00  0.00    -0.393 NA
ATOM      4  C   UNL     1      32.713  -8.944 -22.547  0.00  0.00    +0.126 C 
ATOM      5  C   UNL     1      33.776 -11.778 -24.427  0.00  0.00    +0.128 C 
ATOM      6  C   UNL     1      33.021 -11.199 -23.432  0.00  0.00    +0.192 C 
ATOM      7  C   UNL     1      34.495 -10.720 -24.994  0.00  0.00    +0.067 C 
ATOM      8  C   UNL     1      31.831  -9.431 -21.659  0.00  0.00    +0.059 C 
ATOM      9  C   UNL     1      31.573 -10.901 -21.716  0.00  0.00    +0.113 C 
ATOM     10  C   UNL     1      35.462 -10.775 -26.106  0.00  0.00    +0.050 C 
ATOM     11  C   UNL     1      30.584 -11.462 -20.726  0.00  0.00    +0.067 C 
ENDROOT
BRANCH   5  12
ATOM     12  C   UNL     1      33.758 -13.177 -24.737  0.00  0.00    -0.013 C 
ATOM     13  C   UNL     1      33.277 -13.642 -25.965  0.00  0.00    -0.022 C 
ATOM     14  C   UNL     1      34.233 -14.088 -23.791  0.00  0.00    -0.001 C 
ATOM     15  C   UNL     1      33.272 -15.009 -26.243  0.00  0.00    +0.032 C 
ATOM     16  C   UNL     1      32.762 -12.700 -27.006  0.00  0.00    +0.031 C 
ATOM     17  C   UNL     1      34.226 -15.456 -24.069  0.00  0.00    +0.037 C 
ATOM     18  C   UNL     1      33.747 -15.915 -25.295  0.00  0.00    +0.138 C 
BRANCH  18  19
ATOM     19  O   UNL     1      33.740 -17.249 -25.566  0.00  0.00    -0.471 OA
ATOM     20  C   UNL     1      34.578 -18.079 -24.763  0.00  0.00    +0.252 C 
ENDBRANCH  18  19
ENDBRANCH   5  12
BRANCH   4  21
ATOM     21  N   UNL     1      33.063  -7.626 -22.630  0.00  0.00    -0.313 N 
ATOM     22  H   UNL     1      33.952  -7.351 -22.313  0.00  0.00    +0.148 HD
BRANCH  21  23
ATOM     23  C   UNL     1      32.182  -6.631 -23.166  0.00  0.00    +0.164 C 
BRANCH  23  27
ATOM     24  O   UNL     1      33.925  -6.360 -24.802  0.00  0.00    -0.314 OA
ATOM     25  N   UNL     1      32.064  -5.183 -25.215  0.00  0.00    -0.315 NA
ATOM     26  N   UNL     1      34.161  -5.665 -25.995  0.00  0.00    -0.012 NA
ATOM     27  C   UNL     1      32.685  -5.999 -24.454  0.00  0.00    +0.311 C 
ATOM     28  C   UNL     1      33.018  -4.993 -26.172  0.00  0.00    +0.105 C 
ATOM     29  C   UNL     1      32.808  -4.110 -27.324  0.00  0.00    +0.132 C 
ENDBRANCH  23  27
BRANCH  23  30
ATOM     30  C   UNL     1      31.921  -5.552 -22.097  0.00  0.00    +0.030 C 
ATOM     31  C   UNL     1      30.436  -5.265 -21.900  0.00  0.00    +0.002 C 
ENDBRANCH  23  30
ENDBRANCH  21  23
ENDBRANCH   4  21
TORSDOF 6
ENDMDL
MODEL 4
REMARK VINA RESULT:     -10.1      3.133      9.579
REMARK  Name = 11596613
REMARK  6 active torsions:
REMARK  status: ('A' for Active; 'I' for Inactive)
REMARK    1  A    between atoms: C_4  and  N_21
REMARK    2  A    between atoms: C_5  and  C_12
REMARK    3  A    between atoms: C_18  and  O_19
REMARK    4  A    between atoms: N_21  and  C_23
REMARK    5  A    between atoms: C_23  and  C_27
REMARK    6  A    between atoms: C_23  and  C_30
REMARK                            x       y       z     vdW  Elec       q    Type
REMARK                         _______ _______ _______ _____ _____    ______ ____
ROOT
ATOM      1  N   UNL     1      33.552 -15.298 -23.488  0.00  0.00    -0.152 N 
ATOM      2  N   UNL     1      33.940 -15.983 -24.602  0.00  0.00    -0.179 NA
ATOM      3  N   UNL     1      33.345 -15.629 -21.111  0.00  0.00    -0.393 NA
ATOM      4  C   UNL     1      33.086 -13.975 -23.412  0.00  0.00    +0.126 C 
ATOM      5  C   UNL     1      34.152 -17.314 -22.768  0.00  0.00    +0.128 C 
ATOM      6  C   UNL     1      33.673 -16.094 -22.347  0.00  0.00    +0.192 C 
ATOM      7  C   UNL     1      34.294 -17.186 -24.154  0.00  0.00    +0.067 C 
ATOM      8  C   UNL     1      32.752 -13.483 -22.208  0.00  0.00    +0.059 C 
ATOM      9  C   UNL     1      32.913 -14.405 -21.045  0.00  0.00    +0.113 C 
ATOM     10  C   UNL     1      34.774 -18.198 -25.112  0.00  0.00    +0.050 C 
ATOM     11  C   UNL     1      32.542 -13.864 -19.686  0.00  0.00    +0.067 C 
ENDROOT
BRANCH   5  12
ATOM     12  C   UNL     1      34.416 -18.417 -21.893  0.00  0.00    -0.013 C 
ATOM     13  C   UNL     1      35.723 -18.824 -21.611  0.00  0.00    -0.022 C 
ATOM     14  C   UNL     1      33.341 -19.096 -21.312  0.00  0.00    -0.001 C 
ATOM     15  C   UNL     1      35.953 -19.900 -20.754  0.00  0.00    +0.032 C 
ATOM     16  C   UNL     1      36.901 -18.125 -22.210  0.00  0.00    +0.031 C 
ATOM     17  C   UNL     1      33.572 -20.173 -20.455  0.00  0.00    +0.037 C 
ATOM     18  C   UNL     1      34.878 -20.574 -20.176  0.00  0.00    +0.138 C 
BRANCH  18  19
ATOM     19  O   UNL     1      35.102 -21.625 -19.341  0.00  0.00    -0.471 OA
ATOM     20  C   UNL     1      36.341 -21.641 -18.635  0.00  0.00    +0.252 C 
ENDBRANCH  18  19
ENDBRANCH   5  12
BRANCH   4  21
ATOM     21  N   UNL     1      33.000 -13.268 -24.577  0.00  0.00    -0.313 N 
ATOM     22  H   UNL     1      32.196 -13.368 -25.135  0.00  0.00    +0.148 HD
BRANCH  21  23
ATOM     23  C   UNL     1      34.040 -12.385 -25.016  0.00  0.00    +0.164 C 
BRANCH  23  27
ATOM     24  O   UNL     1      32.740 -10.683 -23.920  0.00  0.00    -0.314 OA
ATOM     25  N   UNL     1      34.849 -10.090 -24.389  0.00  0.00    -0.315 NA
ATOM     26  N   UNL     1      32.888  -9.370 -23.455  0.00  0.00    -0.012 NA
ATOM     27  C   UNL     1      33.937 -10.984 -24.435  0.00  0.00    +0.311 C 
ATOM     28  C   UNL     1      34.157  -9.091 -23.769  0.00  0.00    +0.105 C 
ATOM     29  C   UNL     1      34.764  -7.791 -23.463  0.00  0.00    +0.132 C 
ENDBRANCH  23  27
BRANCH  23  30
ATOM     30  C   UNL     1      34.051 -12.334 -26.557  0.00  0.00    +0.030 C 
ATOM     31  C   UNL     1      33.245 -13.464 -27.189  0.00  0.00    +0.002 C 
ENDBRANCH  23  30
ENDBRANCH  21  23
ENDBRANCH   4  21
TORSDOF 6
ENDMDL
MODEL 5
REMARK VINA RESULT:      -9.9      1.589      1.795
REMARK  Name = 11596613
REMARK  6 active torsions:
REMARK  status: ('A' for Active; 'I' for Inactive)
REMARK    1  A    between atoms: C_4  and  N_21
REMARK    2  A    between atoms: C_5  and  C_12
REMARK    3  A    between atoms: C_18  and  O_19
REMARK    4  A    between atoms: N_21  and  C_23
REMARK    5  A    between atoms: C_23  and  C_27
REMARK    6  A    between atoms: C_23  and  C_30
REMARK                            x       y       z     vdW  Elec       q    Type
REMARK                         _______ _______ _______ _____ _____    ______ ____
ROOT
ATOM      1  N   UNL     1      32.890 -11.928 -23.105  0.00  0.00    -0.152 N 
ATOM      2  N   UNL     1      32.406 -11.628 -21.865  0.00  0.00    -0.179 NA
ATOM      3  N   UNL     1      33.392 -10.836 -25.193  0.00  0.00    -0.393 NA
ATOM      4  C   UNL     1      33.304 -13.182 -23.585  0.00  0.00    +0.126 C 
ATOM      5  C   UNL     1      32.473  -9.745 -23.143  0.00  0.00    +0.128 C 
ATOM      6  C   UNL     1      32.942 -10.788 -23.909  0.00  0.00    +0.192 C 
ATOM      7  C   UNL     1      32.161 -10.319 -21.906  0.00  0.00    +0.067 C 
ATOM      8  C   UNL     1      33.754 -13.267 -24.847  0.00  0.00    +0.059 C 
ATOM      9  C   UNL     1      33.773 -11.998 -25.634  0.00  0.00    +0.113 C 
ATOM     10  C   UNL     1      31.618  -9.652 -20.709  0.00  0.00    +0.050 C 
ATOM     11  C   UNL     1      34.276 -12.080 -27.053  0.00  0.00    +0.067 C 
ENDROOT
BRANCH   5  12
ATOM     12  C   UNL     1      32.366  -8.394 -23.607  0.00  0.00    -0.013 C 
ATOM     13  C   UNL     1      33.501  -7.595 -23.783  0.00  0.00    -0.022 C 
ATOM     14  C   UNL     1      31.102  -7.869 -23.888  0.00  0.00    -0.001 C 
ATOM     15  C   UNL     1      33.370  -6.283 -24.237  0.00  0.00    +0.032 C 
ATOM     16  C   UNL     1      34.871  -8.117 -23.495  0.00  0.00    +0.031 C 
ATOM     17  C   UNL     1      30.972  -6.556 -24.342  0.00  0.00    +0.037 C 
ATOM     18  C   UNL     1      32.106  -5.764 -24.517  0.00  0.00    +0.138 C 
BRANCH  18  19
ATOM     19  O   UNL     1      31.979  -4.483 -24.959  0.00  0.00    -0.471 OA
ATOM     20  C   UNL     1      32.539  -4.177 -26.235  0.00  0.00    +0.252 C 
ENDBRANCH  18  19
ENDBRANCH   5  12
BRANCH   4  21
ATOM     21  N   UNL     1      33.221 -14.244 -22.730  0.00  0.00    -0.313 N 
ATOM     22  H   UNL     1      32.333 -14.593 -22.492  0.00  0.00    +0.148 HD
BRANCH  21  23
ATOM     23  C   UNL     1      34.382 -14.868 -22.168  0.00  0.00    +0.164 C 
BRANCH  23  27
ATOM     24  O   UNL     1      35.421 -17.026 -21.943  0.00  0.00    -0.314 OA
ATOM     25  N   UNL     1      34.260 -16.741 -23.838  0.00  0.00    -0.315 NA
ATOM     26  N   UNL     1      35.539 -18.226 -22.655  0.00  0.00    -0.012 NA
ATOM     27  C   UNL     1      34.662 -16.253 -22.728  0.00  0.00    +0.311 C 
ATOM     28  C   UNL     1      34.828 -17.980 -23.761  0.00  0.00    +0.105 C 
ATOM     29  C   UNL     1      34.670 -18.981 -24.821  0.00  0.00    +0.132 C 
ENDBRANCH  23  27
BRANCH  23  30
ATOM     30  C   UNL     1      34.242 -14.920 -20.633  0.00  0.00    +0.030 C 
ATOM     31  C   UNL     1      32.788 -14.909 -20.174  0.00  0.00    +0.002 C 
ENDBRANCH  23  30
ENDBRANCH  21  23
ENDBRANCH   4  21
TORSDOF 6
ENDMDL
MODEL 6
REMARK VINA RESULT:      -9.9      3.225      9.712
REMARK  Name = 11596613
REMARK  6 active torsions:
REMARK  status: ('A' for Active; 'I' for Inactive)
REMARK    1  A    between atoms: C_4  and  N_21
REMARK    2  A    between atoms: C_5  and  C_12
REMARK    3  A    between atoms: C_18  and  O_19
REMARK    4  A    between atoms: N_21  and  C_23
REMARK    5  A    between atoms: C_23  and  C_27
REMARK    6  A    between atoms: C_23  and  C_30
REMARK                            x       y       z     vdW  Elec       q    Type
REMARK                         _______ _______ _______ _____ _____    ______ ____
ROOT
ATOM      1  N   UNL     1      33.651 -15.642 -23.257  0.00  0.00    -0.152 N 
ATOM      2  N   UNL     1      34.055 -16.297 -24.383  0.00  0.00    -0.179 NA
ATOM      3  N   UNL     1      33.635 -15.942 -20.867  0.00  0.00    -0.393 NA
ATOM      4  C   UNL     1      33.024 -14.388 -23.171  0.00  0.00    +0.126 C 
ATOM      5  C   UNL     1      34.548 -17.548 -22.546  0.00  0.00    +0.128 C 
ATOM      6  C   UNL     1      33.943 -16.389 -22.114  0.00  0.00    +0.192 C 
ATOM      7  C   UNL     1      34.588 -17.435 -23.940  0.00  0.00    +0.067 C 
ATOM      8  C   UNL     1      32.705 -13.914 -21.956  0.00  0.00    +0.059 C 
ATOM      9  C   UNL     1      33.053 -14.781 -20.791  0.00  0.00    +0.113 C 
ATOM     10  C   UNL     1      35.134 -18.400 -24.912  0.00  0.00    +0.050 C 
ATOM     11  C   UNL     1      32.700 -14.261 -19.420  0.00  0.00    +0.067 C 
ENDROOT
BRANCH   5  12
ATOM     12  C   UNL     1      35.005 -18.588 -21.673  0.00  0.00    -0.013 C 
ATOM     13  C   UNL     1      34.112 -19.499 -21.101  0.00  0.00    -0.022 C 
ATOM     14  C   UNL     1      36.370 -18.688 -21.391  0.00  0.00    -0.001 C 
ATOM     15  C   UNL     1      34.583 -20.504 -20.254  0.00  0.00    +0.032 C 
ATOM     16  C   UNL     1      32.645 -19.428 -21.377  0.00  0.00    +0.031 C 
ATOM     17  C   UNL     1      36.840 -19.693 -20.544  0.00  0.00    +0.037 C 
ATOM     18  C   UNL     1      35.946 -20.600 -19.976  0.00  0.00    +0.138 C 
BRANCH  18  19
ATOM     19  O   UNL     1      36.404 -21.579 -19.150  0.00  0.00    -0.471 OA
ATOM     20  C   UNL     1      35.502 -22.069 -18.159  0.00  0.00    +0.252 C 
ENDBRANCH  18  19
ENDBRANCH   5  12
BRANCH   4  21
ATOM     21  N   UNL     1      32.777 -13.724 -24.339  0.00  0.00    -0.313 N 
ATOM     22  H   UNL     1      31.897 -13.827 -24.766  0.00  0.00    +0.148 HD
BRANCH  21  23
ATOM     23  C   UNL     1      33.754 -12.884 -24.965  0.00  0.00    +0.164 C 
BRANCH  23  27
ATOM     24  O   UNL     1      34.923 -10.800 -24.687  0.00  0.00    -0.314 OA
ATOM     25  N   UNL     1      32.931 -10.896 -23.667  0.00  0.00    -0.315 NA
ATOM     26  N   UNL     1      34.747  -9.560 -24.059  0.00  0.00    -0.012 NA
ATOM     27  C   UNL     1      33.810 -11.478 -24.388  0.00  0.00    +0.311 C 
ATOM     28  C   UNL     1      33.550  -9.695 -23.478  0.00  0.00    +0.105 C 
ATOM     29  C   UNL     1      32.945  -8.616 -22.690  0.00  0.00    +0.132 C 
ENDBRANCH  23  27
BRANCH  23  30
ATOM     30  C   UNL     1      33.491 -12.838 -26.483  0.00  0.00    +0.030 C 
ATOM     31  C   UNL     1      32.987 -14.167 -27.035  0.00  0.00    +0.002 C 
ENDBRANCH  23  30
ENDBRANCH  21  23
ENDBRANCH   4  21
TORSDOF 6
ENDMDL
MODEL 7
REMARK VINA RESULT:      -9.7      2.220      8.618
REMARK  Name = 11596613
REMARK  6 active torsions:
REMARK  status: ('A' for Active; 'I' for Inactive)
REMARK    1  A    between atoms: C_4  and  N_21
REMARK    2  A    between atoms: C_5  and  C_12
REMARK    3  A    between atoms: C_18  and  O_19
REMARK    4  A    between atoms: N_21  and  C_23
REMARK    5  A    between atoms: C_23  and  C_27
REMARK    6  A    between atoms: C_23  and  C_30
REMARK                            x       y       z     vdW  Elec       q    Type
REMARK                         _______ _______ _______ _____ _____    ______ ____
ROOT
ATOM      1  N   UNL     1      33.485 -10.272 -23.408  0.00  0.00    -0.152 N 
ATOM      2  N   UNL     1      32.614 -10.667 -22.435  0.00  0.00    -0.179 NA
ATOM      3  N   UNL     1      34.785 -11.220 -25.201  0.00  0.00    -0.393 NA
ATOM      4  C   UNL     1      33.941  -8.971 -23.676  0.00  0.00    +0.126 C 
ATOM      5  C   UNL     1      33.282 -12.473 -23.650  0.00  0.00    +0.128 C 
ATOM      6  C   UNL     1      33.911 -11.363 -24.168  0.00  0.00    +0.192 C 
ATOM      7  C   UNL     1      32.505 -11.985 -22.593  0.00  0.00    +0.067 C 
ATOM      8  C   UNL     1      34.805  -8.791 -24.688  0.00  0.00    +0.059 C 
ATOM      9  C   UNL     1      35.205 -10.014 -25.446  0.00  0.00    +0.113 C 
ATOM     10  C   UNL     1      31.624 -12.748 -21.690  0.00  0.00    +0.050 C 
ATOM     11  C   UNL     1      36.176  -9.827 -26.585  0.00  0.00    +0.067 C 
ENDROOT
BRANCH   5  12
ATOM     12  C   UNL     1      33.455 -13.802 -24.156  0.00  0.00    -0.013 C 
ATOM     13  C   UNL     1      34.096 -14.789 -23.401  0.00  0.00    -0.022 C 
ATOM     14  C   UNL     1      32.971 -14.112 -25.429  0.00  0.00    -0.001 C 
ATOM     15  C   UNL     1      34.250 -16.076 -23.916  0.00  0.00    +0.032 C 
ATOM     16  C   UNL     1      34.628 -14.499 -22.034  0.00  0.00    +0.031 C 
ATOM     17  C   UNL     1      33.125 -15.400 -25.945  0.00  0.00    +0.037 C 
ATOM     18  C   UNL     1      33.765 -16.381 -25.188  0.00  0.00    +0.138 C 
BRANCH  18  19
ATOM     19  O   UNL     1      33.916 -17.637 -25.691  0.00  0.00    -0.471 OA
ATOM     20  C   UNL     1      34.460 -18.625 -24.818  0.00  0.00    +0.252 C 
ENDBRANCH  18  19
ENDBRANCH   5  12
BRANCH   4  21
ATOM     21  N   UNL     1      33.473  -7.962 -22.883  0.00  0.00    -0.313 N 
ATOM     22  H   UNL     1      34.095  -7.515 -22.266  0.00  0.00    +0.148 HD
BRANCH  21  23
ATOM     23  C   UNL     1      32.107  -7.530 -22.919  0.00  0.00    +0.164 C 
BRANCH  23  27
ATOM     24  O   UNL     1      30.785  -5.604 -23.492  0.00  0.00    -0.314 OA
ATOM     25  N   UNL     1      32.586  -5.919 -24.786  0.00  0.00    -0.315 NA
ATOM     26  N   UNL     1      30.780  -4.560 -24.426  0.00  0.00    -0.012 NA
ATOM     27  C   UNL     1      31.873  -6.316 -23.804  0.00  0.00    +0.311 C 
ATOM     28  C   UNL     1      31.873  -4.815 -25.154  0.00  0.00    +0.105 C 
ATOM     29  C   UNL     1      32.276  -3.959 -26.274  0.00  0.00    +0.132 C 
ENDBRANCH  23  27
BRANCH  23  30
ATOM     30  C   UNL     1      31.619  -7.257 -21.482  0.00  0.00    +0.030 C 
ATOM     31  C   UNL     1      32.674  -7.584 -20.430  0.00  0.00    +0.002 C 
ENDBRANCH  23  30
ENDBRANCH  21  23
ENDBRANCH   4  21
TORSDOF 6
ENDMDL
MODEL 8
REMARK VINA RESULT:      -9.6      1.807      3.220
REMARK  Name = 11596613
REMARK  6 active torsions:
REMARK  status: ('A' for Active; 'I' for Inactive)
REMARK    1  A    between atoms: C_4  and  N_21
REMARK    2  A    between atoms: C_5  and  C_12
REMARK    3  A    between atoms: C_18  and  O_19
REMARK    4  A    between atoms: N_21  and  C_23
REMARK    5  A    between atoms: C_23  and  C_27
REMARK    6  A    between atoms: C_23  and  C_30
REMARK                            x       y       z     vdW  Elec       q    Type
REMARK                         _______ _______ _______ _____ _____    ______ ____
ROOT
ATOM      1  N   UNL     1      33.268 -10.925 -23.300  0.00  0.00    -0.152 N 
ATOM      2  N   UNL     1      34.239 -10.471 -24.144  0.00  0.00    -0.179 NA
ATOM      3  N   UNL     1      31.410 -10.083 -22.019  0.00  0.00    -0.393 NA
ATOM      4  C   UNL     1      33.048 -12.246 -22.876  0.00  0.00    +0.126 C 
ATOM      5  C   UNL     1      32.935  -8.733 -23.464  0.00  0.00    +0.128 C 
ATOM      6  C   UNL     1      32.452  -9.877 -22.869  0.00  0.00    +0.192 C 
ATOM      7  C   UNL     1      34.026  -9.159 -24.230  0.00  0.00    +0.067 C 
ATOM      8  C   UNL     1      32.028 -12.487 -22.036  0.00  0.00    +0.059 C 
ATOM      9  C   UNL     1      31.210 -11.307 -21.628  0.00  0.00    +0.113 C 
ATOM     10  C   UNL     1      34.912  -8.340 -25.077  0.00  0.00    +0.050 C 
ATOM     11  C   UNL     1      30.061 -11.563 -20.684  0.00  0.00    +0.067 C 
ENDROOT
BRANCH   5  12
ATOM     12  C   UNL     1      32.368  -7.431 -23.276  0.00  0.00    -0.013 C 
ATOM     13  C   UNL     1      32.466  -6.767 -22.049  0.00  0.00    -0.022 C 
ATOM     14  C   UNL     1      31.706  -6.817 -24.342  0.00  0.00    -0.001 C 
ATOM     15  C   UNL     1      31.906  -5.499 -21.892  0.00  0.00    +0.032 C 
ATOM     16  C   UNL     1      33.167  -7.387 -20.884  0.00  0.00    +0.031 C 
ATOM     17  C   UNL     1      31.146  -5.549 -24.185  0.00  0.00    +0.037 C 
ATOM     18  C   UNL     1      31.247  -4.890 -22.960  0.00  0.00    +0.138 C 
BRANCH  18  19
ATOM     19  O   UNL     1      30.700  -3.653 -22.806  0.00  0.00    -0.471 OA
ATOM     20  C   UNL     1      31.259  -2.595 -23.581  0.00  0.00    +0.252 C 
ENDBRANCH  18  19
ENDBRANCH   5  12
BRANCH   4  21
ATOM     21  N   UNL     1      33.892 -13.210 -23.348  0.00  0.00    -0.313 N 
ATOM     22  H   UNL     1      34.808 -12.956 -23.600  0.00  0.00    +0.148 HD
BRANCH  21  23
ATOM     23  C   UNL     1      33.492 -14.579 -23.488  0.00  0.00    +0.164 C 
BRANCH  23  27
ATOM     24  O   UNL     1      34.322 -15.020 -21.274  0.00  0.00    -0.314 OA
ATOM     25  N   UNL     1      34.605 -16.700 -22.729  0.00  0.00    -0.315 NA
ATOM     26  N   UNL     1      34.960 -16.046 -20.565  0.00  0.00    -0.012 NA
ATOM     27  C   UNL     1      34.173 -15.518 -22.506  0.00  0.00    +0.311 C 
ATOM     28  C   UNL     1      35.092 -17.001 -21.491  0.00  0.00    +0.105 C 
ATOM     29  C   UNL     1      35.721 -18.292 -21.190  0.00  0.00    +0.132 C 
ENDBRANCH  23  27
BRANCH  23  30
ATOM     30  C   UNL     1      33.739 -15.037 -24.939  0.00  0.00    +0.030 C 
ATOM     31  C   UNL     1      32.825 -14.340 -25.941  0.00  0.00    +0.002 C 
ENDBRANCH  23  30
ENDBRANCH  21  23
ENDBRANCH   4  21
TORSDOF 6
ENDMDL
MODEL 9
REMARK VINA RESULT:      -9.5      1.472      2.871
REMARK  Name = 11596613
REMARK  6 active torsions:
REMARK  status: ('A' for Active; 'I' for Inactive)
REMARK    1  A    between atoms: C_4  and  N_21
REMARK    2  A    between atoms: C_5  and  C_12
REMARK    3  A    between atoms: C_18  and  O_19
REMARK    4  A    between atoms: N_21  and  C_23
REMARK    5  A    between atoms: C_23  and  C_27
REMARK    6  A    between atoms: C_23  and  C_30
REMARK                            x       y       z     vdW  Elec       q    Type
REMARK                         _______ _______ _______ _____ _____    ______ ____
ROOT
ATOM      1  N   UNL     1      32.665 -12.013 -22.737  0.00  0.00    -0.152 N 
ATOM      2  N   UNL     1      33.290 -12.179 -23.938  0.00  0.00    -0.179 NA
ATOM      3  N   UNL     1      31.680 -10.262 -21.408  0.00  0.00    -0.393 NA
ATOM      4  C   UNL     1      32.372 -12.997 -21.778  0.00  0.00    +0.126 C 
ATOM      5  C   UNL     1      32.741  -9.988 -23.652  0.00  0.00    +0.128 C 
ATOM      6  C   UNL     1      32.317 -10.676 -22.537  0.00  0.00    +0.192 C 
ATOM      7  C   UNL     1      33.328 -10.959 -24.471  0.00  0.00    +0.067 C 
ATOM      8  C   UNL     1      31.744 -12.625 -20.650  0.00  0.00    +0.059 C 
ATOM      9  C   UNL     1      31.412 -11.175 -20.522  0.00  0.00    +0.113 C 
ATOM     10  C   UNL     1      33.948 -10.772 -25.795  0.00  0.00    +0.050 C 
ATOM     11  C   UNL     1      30.707 -10.743 -19.260  0.00  0.00    +0.067 C 
ENDROOT
BRANCH   5  12
ATOM     12  C   UNL     1      32.569  -8.578 -23.838  0.00  0.00    -0.013 C 
ATOM     13  C   UNL     1      33.664  -7.708 -23.835  0.00  0.00    -0.022 C 
ATOM     14  C   UNL     1      31.282  -8.069 -24.026  0.00  0.00    -0.001 C 
ATOM     15  C   UNL     1      33.470  -6.339 -24.020  0.00  0.00    +0.032 C 
ATOM     16  C   UNL     1      35.057  -8.211 -23.639  0.00  0.00    +0.031 C 
ATOM     17  C   UNL     1      31.089  -6.700 -24.210  0.00  0.00    +0.037 C 
ATOM     18  C   UNL     1      32.183  -5.835 -24.208  0.00  0.00    +0.138 C 
BRANCH  18  19
ATOM     19  O   UNL     1      31.994  -4.499 -24.386  0.00  0.00    -0.471 OA
ATOM     20  C   UNL     1      31.291  -3.799 -23.362  0.00  0.00    +0.252 C 
ENDBRANCH  18  19
ENDBRANCH   5  12
BRANCH   4  21
ATOM     21  N   UNL     1      32.747 -14.281 -22.055  0.00  0.00    -0.313 N 
ATOM     22  H   UNL     1      32.072 -14.994 -22.003  0.00  0.00    +0.148 HD
BRANCH  21  23
ATOM     23  C   UNL     1      34.088 -14.625 -22.421  0.00  0.00    +0.164 C 
BRANCH  23  27
ATOM     24  O   UNL     1      33.840 -15.346 -24.702  0.00  0.00    -0.314 OA
ATOM     25  N   UNL     1      34.520 -16.944 -23.286  0.00  0.00    -0.315 NA
ATOM     26  N   UNL     1      33.992 -16.508 -25.470  0.00  0.00    -0.012 NA
ATOM     27  C   UNL     1      34.173 -15.728 -23.464  0.00  0.00    +0.311 C 
ATOM     28  C   UNL     1      34.395 -17.405 -24.565  0.00  0.00    +0.105 C 
ATOM     29  C   UNL     1      34.684 -18.797 -24.928  0.00  0.00    +0.132 C 
ENDBRANCH  23  27
BRANCH  23  30
ATOM     30  C   UNL     1      34.879 -15.013 -21.155  0.00  0.00    +0.030 C 
ATOM     31  C   UNL     1      34.010 -15.693 -20.103  0.00  0.00    +0.002 C 
ENDBRANCH  23  30
ENDBRANCH  21  23
ENDBRANCH   4  21
TORSDOF 6
ENDMDL
