MODEL 1
REMARK VINA RESULT:      -9.7      0.000      0.000
REMARK  Name = 71897
REMARK  4 active torsions:
REMARK  status: ('A' for Active; 'I' for Inactive)
REMARK    1  A    between atoms: N_1  and  C_15
REMARK    2  A    between atoms: N_2  and  C_9
REMARK    3  A    between atoms: C_15  and  C_16
REMARK    4  A    between atoms: C_16  and  C_19
REMARK                            x       y       z     vdW  Elec       q    Type
REMARK                         _______ _______ _______ _____ _____    ______ ____
ROOT
ATOM      1  N   UNL     1      33.845 -14.326 -23.116  0.00  0.00    +0.389 N 
ATOM      2  N   UNL     1      34.448 -16.902 -22.038  0.00  0.00    -0.312 N 
ATOM      3  C   UNL     1      34.039 -15.478 -24.005  0.00  0.00    -0.055 C 
ATOM      4  C   UNL     1      33.232 -14.766 -21.857  0.00  0.00    -0.055 C 
ATOM      5  C   UNL     1      34.953 -16.524 -23.360  0.00  0.00    +0.068 C 
ATOM      6  C   UNL     1      34.118 -15.787 -21.140  0.00  0.00    +0.068 C 
ATOM      7  H   UNL     1      34.755 -13.912 -22.912  0.00  0.00    -0.080 HD
ENDROOT
BRANCH   2   9
ATOM      8 CL   UNL     1      33.123 -21.383 -19.882  0.00  0.00    -0.082 Cl
ATOM      9  C   UNL     1      34.849 -18.113 -21.461  0.00  0.00    +0.049 C 
ATOM     10  C   UNL     1      33.900 -19.050 -21.004  0.00  0.00    +0.026 C 
ATOM     11  C   UNL     1      36.215 -18.431 -21.321  0.00  0.00    +0.015 C 
ATOM     12  C   UNL     1      34.302 -20.256 -20.431  0.00  0.00    +0.059 C 
ATOM     13  C   UNL     1      36.616 -19.638 -20.748  0.00  0.00    +0.002 C 
ATOM     14  C   UNL     1      35.659 -20.550 -20.303  0.00  0.00    +0.011 C 
ENDBRANCH   2   9
BRANCH   1  15
ATOM     15  C   UNL     1      33.016 -13.311 -23.764  0.00  0.00    -0.071 C 
BRANCH  15  16
ATOM     16  C   UNL     1      33.865 -12.376 -24.630  0.00  0.00    +0.025 C 
BRANCH  16  19
ATOM     17  N   UNL     1      32.861 -10.594 -23.316  0.00  0.00    -0.186 NA
ATOM     18  N   UNL     1      33.157  -9.304 -23.088  0.00  0.00    -0.240 N 
ATOM     19  C   UNL     1      33.837 -10.962 -24.130  0.00  0.00    +0.075 C 
ATOM     20  C   UNL     1      34.749  -9.956 -24.433  0.00  0.00    +0.028 C 
ATOM     21  C   UNL     1      34.278  -8.872 -23.734  0.00  0.00    +0.044 C 
ATOM     22  C   UNL     1      34.770  -7.490 -23.614  0.00  0.00    +0.049 C 
ATOM     23  H   UNL     1      32.614  -8.723 -22.508  0.00  0.00    +0.174 HD
ENDBRANCH  16  19
ENDBRANCH  15  16
ENDBRANCH   1  15
TORSDOF 4
ENDMDL
MODEL 2
REMARK VINA RESULT:      -9.5      4.855     10.211
REMARK  Name = 71897
REMARK  4 active torsions:
REMARK  status: ('A' for Active; 'I' for Inactive)
REMARK    1  A    between atoms: N_1  and  C_15
REMARK    2  A    between atoms: N_2  and  C_9
REMARK    3  A    between atoms: C_15  and  C_16
REMARK    4  A    between atoms: C_16  and  C_19
REMARK                            x       y       z     vdW  Elec       q    Type
REMARK                         _______ _______ _______ _____ _____    ______ ____
ROOT
ATOM      1  N   UNL     1      35.046 -20.804 -19.485  0.00  0.00    +0.389 N 
ATOM      2  N   UNL     1      34.795 -19.131 -21.788  0.00  0.00    -0.312 N 
ATOM      3  C   UNL     1      33.811 -20.812 -20.280  0.00  0.00    -0.055 C 
ATOM      4  C   UNL     1      36.201 -20.568 -20.361  0.00  0.00    -0.055 C 
ATOM      5  C   UNL     1      33.610 -19.474 -20.997  0.00  0.00    +0.068 C 
ATOM      6  C   UNL     1      36.080 -19.223 -21.080  0.00  0.00    +0.068 C 
ATOM      7  H   UNL     1      34.991 -20.050 -18.801  0.00  0.00    -0.080 HD
ENDROOT
BRANCH   2   9
ATOM      8 CL   UNL     1      34.348 -14.233 -23.299  0.00  0.00    -0.082 Cl
ATOM      9  C   UNL     1      34.689 -18.212 -22.838  0.00  0.00    +0.049 C 
ATOM     10  C   UNL     1      34.582 -16.830 -22.586  0.00  0.00    +0.026 C 
ATOM     11  C   UNL     1      34.686 -18.643 -24.180  0.00  0.00    +0.015 C 
ATOM     12  C   UNL     1      34.477 -15.916 -23.635  0.00  0.00    +0.059 C 
ATOM     13  C   UNL     1      34.581 -17.729 -25.228  0.00  0.00    +0.002 C 
ATOM     14  C   UNL     1      34.477 -16.365 -24.955  0.00  0.00    +0.011 C 
ENDBRANCH   2   9
BRANCH   1  15
ATOM     15  C   UNL     1      35.199 -22.065 -18.763  0.00  0.00    -0.071 C 
BRANCH  15  16
ATOM     16  C   UNL     1      33.868 -22.817 -18.678  0.00  0.00    +0.025 C 
BRANCH  16  19
ATOM     17  N   UNL     1      34.470 -23.576 -16.449  0.00  0.00    -0.186 NA
ATOM     18  N   UNL     1      33.795 -23.803 -15.310  0.00  0.00    -0.240 N 
ATOM     19  C   UNL     1      33.511 -23.176 -17.266  0.00  0.00    +0.075 C 
ATOM     20  C   UNL     1      32.242 -23.137 -16.695  0.00  0.00    +0.028 C 
ATOM     21  C   UNL     1      32.456 -23.555 -15.405  0.00  0.00    +0.044 C 
ATOM     22  C   UNL     1      31.542 -23.743 -14.266  0.00  0.00    +0.049 C 
ATOM     23  H   UNL     1      34.225 -24.119 -14.483  0.00  0.00    +0.174 HD
ENDBRANCH  16  19
ENDBRANCH  15  16
ENDBRANCH   1  15
TORSDOF 4
ENDMDL
MODEL 3
REMARK VINA RESULT:      -9.4      2.483      2.995
REMARK  Name = 71897
REMARK  4 active torsions:
REMARK  status: ('A' for Active; 'I' for Inactive)
REMARK    1  A    between atoms: N_1  and  C_15
REMARK    2  A    between atoms: N_2  and  C_9
REMARK    3  A    between atoms: C_15  and  C_16
REMARK    4  A    between atoms: C_16  and  C_19
REMARK                            x       y       z     vdW  Elec       q    Type
REMARK                         _______ _______ _______ _____ _____    ______ ____
ROOT
ATOM      1  N   UNL     1      32.034 -13.252 -22.204  0.00  0.00    +0.389 N 
ATOM      2  N   UNL     1      33.567 -15.650 -21.953  0.00  0.00    -0.312 N 
ATOM      3  C   UNL     1      32.363 -13.789 -20.877  0.00  0.00    -0.055 C 
ATOM      4  C   UNL     1      33.127 -13.536 -23.142  0.00  0.00    -0.055 C 
ATOM      5  C   UNL     1      32.572 -15.305 -20.934  0.00  0.00    +0.068 C 
ATOM      6  C   UNL     1      33.360 -15.043 -23.275  0.00  0.00    +0.068 C 
ATOM      7  H   UNL     1      31.184 -13.706 -22.540  0.00  0.00    -0.080 HD
ENDROOT
BRANCH   2   9
ATOM      8 CL   UNL     1      33.699 -20.465 -20.144  0.00  0.00    -0.082 Cl
ATOM      9  C   UNL     1      34.225 -16.883 -21.893  0.00  0.00    +0.049 C 
ATOM     10  C   UNL     1      33.703 -17.950 -21.134  0.00  0.00    +0.026 C 
ATOM     11  C   UNL     1      35.431 -17.095 -22.590  0.00  0.00    +0.015 C 
ATOM     12  C   UNL     1      34.359 -19.179 -21.077  0.00  0.00    +0.059 C 
ATOM     13  C   UNL     1      36.088 -18.325 -22.533  0.00  0.00    +0.002 C 
ATOM     14  C   UNL     1      35.551 -19.367 -21.776  0.00  0.00    +0.011 C 
ENDBRANCH   2   9
BRANCH   1  15
ATOM     15  C   UNL     1      31.784 -11.814 -22.127  0.00  0.00    -0.071 C 
BRANCH  15  16
ATOM     16  C   UNL     1      31.595 -11.364 -20.676  0.00  0.00    +0.025 C 
BRANCH  16  19
ATOM     17  N   UNL     1      32.297  -9.484 -19.305  0.00  0.00    -0.186 NA
ATOM     18  N   UNL     1      32.466  -8.167 -19.517  0.00  0.00    -0.240 N 
ATOM     19  C   UNL     1      31.897  -9.906 -20.493  0.00  0.00    +0.075 C 
ATOM     20  C   UNL     1      31.802  -8.911 -21.460  0.00  0.00    +0.028 C 
ATOM     21  C   UNL     1      32.182  -7.773 -20.792  0.00  0.00    +0.044 C 
ATOM     22  C   UNL     1      32.303  -6.371 -21.224  0.00  0.00    +0.049 C 
ATOM     23  H   UNL     1      32.766  -7.545 -18.816  0.00  0.00    +0.174 HD
ENDBRANCH  16  19
ENDBRANCH  15  16
ENDBRANCH   1  15
TORSDOF 4
ENDMDL
MODEL 4
REMARK VINA RESULT:      -9.4      4.896     10.345
REMARK  Name = 71897
REMARK  4 active torsions:
REMARK  status: ('A' for Active; 'I' for Inactive)
REMARK    1  A    between atoms: N_1  and  C_15
REMARK    2  A    between atoms: N_2  and  C_9
REMARK    3  A    between atoms: C_15  and  C_16
REMARK    4  A    between atoms: C_16  and  C_19
REMARK                            x       y       z     vdW  Elec       q    Type
REMARK                         _______ _______ _______ _____ _____    ______ ____
ROOT
ATOM      1  N   UNL     1      35.420 -20.715 -19.404  0.00  0.00    +0.389 N 
ATOM      2  N   UNL     1      35.004 -19.138 -21.750  0.00  0.00    -0.312 N 
ATOM      3  C   UNL     1      34.226 -20.917 -20.234  0.00  0.00    -0.055 C 
ATOM      4  C   UNL     1      36.556 -20.330 -20.251  0.00  0.00    -0.055 C 
ATOM      5  C   UNL     1      33.856 -19.636 -20.987  0.00  0.00    +0.068 C 
ATOM      6  C   UNL     1      36.265 -19.029 -21.003  0.00  0.00    +0.068 C 
ATOM      7  H   UNL     1      35.235 -19.965 -18.739  0.00  0.00    -0.080 HD
ENDROOT
BRANCH   2   9
ATOM      8 CL   UNL     1      34.194 -14.329 -23.394  0.00  0.00    -0.082 Cl
ATOM      9  C   UNL     1      34.800 -18.263 -22.823  0.00  0.00    +0.049 C 
ATOM     10  C   UNL     1      34.617 -16.882 -22.610  0.00  0.00    +0.026 C 
ATOM     11  C   UNL     1      34.771 -18.738 -24.149  0.00  0.00    +0.015 C 
ATOM     12  C   UNL     1      34.415 -16.012 -23.682  0.00  0.00    +0.059 C 
ATOM     13  C   UNL     1      34.569 -17.868 -25.220  0.00  0.00    +0.002 C 
ATOM     14  C   UNL     1      34.391 -16.504 -24.986  0.00  0.00    +0.011 C 
ENDBRANCH   2   9
BRANCH   1  15
ATOM     15  C   UNL     1      35.731 -21.928 -18.650  0.00  0.00    -0.071 C 
BRANCH  15  16
ATOM     16  C   UNL     1      36.819 -21.664 -17.605  0.00  0.00    +0.025 C 
BRANCH  16  19
ATOM     17  N   UNL     1      37.621 -22.732 -15.575  0.00  0.00    -0.186 NA
ATOM     18  N   UNL     1      37.042 -23.399 -14.562  0.00  0.00    -0.240 N 
ATOM     19  C   UNL     1      36.584 -22.430 -16.338  0.00  0.00    +0.075 C 
ATOM     20  C   UNL     1      35.359 -22.878 -15.854  0.00  0.00    +0.028 C 
ATOM     21  C   UNL     1      35.687 -23.514 -14.682  0.00  0.00    +0.044 C 
ATOM     22  C   UNL     1      34.868 -24.210 -13.677  0.00  0.00    +0.049 C 
ATOM     23  H   UNL     1      37.547 -23.770 -13.804  0.00  0.00    +0.174 HD
ENDBRANCH  16  19
ENDBRANCH  15  16
ENDBRANCH   1  15
TORSDOF 4
ENDMDL
MODEL 5
REMARK VINA RESULT:      -9.3      2.664      3.370
REMARK  Name = 71897
REMARK  4 active torsions:
REMARK  status: ('A' for Active; 'I' for Inactive)
REMARK    1  A    between atoms: N_1  and  C_15
REMARK    2  A    between atoms: N_2  and  C_9
REMARK    3  A    between atoms: C_15  and  C_16
REMARK    4  A    between atoms: C_16  and  C_19
REMARK                            x       y       z     vdW  Elec       q    Type
REMARK                         _______ _______ _______ _____ _____    ______ ____
ROOT
ATOM      1  N   UNL     1      32.383 -12.776 -21.597  0.00  0.00    +0.389 N 
ATOM      2  N   UNL     1      33.621 -15.239 -22.347  0.00  0.00    -0.312 N 
ATOM      3  C   UNL     1      32.302 -13.258 -22.981  0.00  0.00    -0.055 C 
ATOM      4  C   UNL     1      32.388 -13.917 -20.672  0.00  0.00    -0.055 C 
ATOM      5  C   UNL     1      33.497 -14.153 -23.323  0.00  0.00    +0.068 C 
ATOM      6  C   UNL     1      33.585 -14.833 -20.935  0.00  0.00    +0.068 C 
ATOM      7  H   UNL     1      33.250 -12.253 -21.480  0.00  0.00    -0.080 HD
ENDROOT
BRANCH   2   9
ATOM      8 CL   UNL     1      36.578 -19.159 -20.808  0.00  0.00    -0.082 Cl
ATOM      9  C   UNL     1      34.339 -16.394 -22.679  0.00  0.00    +0.049 C 
ATOM     10  C   UNL     1      35.030 -17.129 -21.696  0.00  0.00    +0.026 C 
ATOM     11  C   UNL     1      34.390 -16.856 -24.010  0.00  0.00    +0.015 C 
ATOM     12  C   UNL     1      35.743 -18.280 -22.029  0.00  0.00    +0.059 C 
ATOM     13  C   UNL     1      35.103 -18.007 -24.343  0.00  0.00    +0.002 C 
ATOM     14  C   UNL     1      35.780 -18.720 -23.352  0.00  0.00    +0.011 C 
ENDBRANCH   2   9
BRANCH   1  15
ATOM     15  C   UNL     1      31.266 -11.880 -21.300  0.00  0.00    -0.071 C 
BRANCH  15  16
ATOM     16  C   UNL     1      31.526 -11.083 -20.018  0.00  0.00    +0.025 C 
BRANCH  16  19
ATOM     17  N   UNL     1      32.393  -8.926 -19.311  0.00  0.00    -0.186 NA
ATOM     18  N   UNL     1      32.654  -7.761 -19.928  0.00  0.00    -0.240 N 
ATOM     19  C   UNL     1      31.938  -9.670 -20.305  0.00  0.00    +0.075 C 
ATOM     20  C   UNL     1      31.896  -9.028 -21.538  0.00  0.00    +0.028 C 
ATOM     21  C   UNL     1      32.373  -7.769 -21.263  0.00  0.00    +0.044 C 
ATOM     22  C   UNL     1      32.588  -6.590 -22.118  0.00  0.00    +0.049 C 
ATOM     23  H   UNL     1      33.013  -6.973 -19.460  0.00  0.00    +0.174 HD
ENDBRANCH  16  19
ENDBRANCH  15  16
ENDBRANCH   1  15
TORSDOF 4
ENDMDL
MODEL 6
REMARK VINA RESULT:      -9.3      3.101      8.711
REMARK  Name = 71897
REMARK  4 active torsions:
REMARK  status: ('A' for Active; 'I' for Inactive)
REMARK    1  A    between atoms: N_1  and  C_15
REMARK    2  A    between atoms: N_2  and  C_9
REMARK    3  A    between atoms: C_15  and  C_16
REMARK    4  A    between atoms: C_16  and  C_19
REMARK                            x       y       z     vdW  Elec       q    Type
REMARK                         _______ _______ _______ _____ _____    ______ ____
ROOT
ATOM      1  N   UNL     1      35.051 -17.391 -22.736  0.00  0.00    +0.389 N 
ATOM      2  N   UNL     1      33.833 -14.807 -22.795  0.00  0.00    -0.312 N 
ATOM      3  C   UNL     1      34.504 -16.797 -21.509  0.00  0.00    -0.055 C 
ATOM      4  C   UNL     1      34.246 -16.975 -23.892  0.00  0.00    -0.055 C 
ATOM      5  C   UNL     1      34.517 -15.268 -21.584  0.00  0.00    +0.068 C 
ATOM      6  C   UNL     1      34.251 -15.453 -24.047  0.00  0.00    +0.068 C 
ATOM      7  H   UNL     1      36.007 -17.059 -22.863  0.00  0.00    -0.080 HD
ENDROOT
BRANCH   2   9
ATOM      8 CL   UNL     1      30.584 -11.235 -21.015  0.00  0.00    -0.082 Cl
ATOM      9  C   UNL     1      33.348 -13.496 -22.863  0.00  0.00    +0.049 C 
ATOM     10  C   UNL     1      32.321 -13.055 -22.006  0.00  0.00    +0.026 C 
ATOM     11  C   UNL     1      33.876 -12.576 -23.792  0.00  0.00    +0.015 C 
ATOM     12  C   UNL     1      31.840 -11.747 -22.074  0.00  0.00    +0.059 C 
ATOM     13  C   UNL     1      33.395 -11.268 -23.860  0.00  0.00    +0.002 C 
ATOM     14  C   UNL     1      32.377 -10.854 -23.001  0.00  0.00    +0.011 C 
ENDBRANCH   2   9
BRANCH   1  15
ATOM     15  C   UNL     1      35.083 -18.848 -22.630  0.00  0.00    -0.071 C 
BRANCH  15  16
ATOM     16  C   UNL     1      35.637 -19.290 -21.273  0.00  0.00    +0.025 C 
BRANCH  16  19
ATOM     17  N   UNL     1      33.393 -20.073 -20.761  0.00  0.00    -0.186 NA
ATOM     18  N   UNL     1      32.881 -21.027 -19.965  0.00  0.00    -0.240 N 
ATOM     19  C   UNL     1      34.692 -20.202 -20.548  0.00  0.00    +0.075 C 
ATOM     20  C   UNL     1      35.034 -21.203 -19.644  0.00  0.00    +0.028 C 
ATOM     21  C   UNL     1      33.822 -21.732 -19.273  0.00  0.00    +0.044 C 
ATOM     22  C   UNL     1      33.464 -22.819 -18.348  0.00  0.00    +0.049 C 
ATOM     23  H   UNL     1      31.915 -21.200 -19.887  0.00  0.00    +0.174 HD
ENDBRANCH  16  19
ENDBRANCH  15  16
ENDBRANCH   1  15
TORSDOF 4
ENDMDL
MODEL 7
REMARK VINA RESULT:      -9.2      3.894      9.127
REMARK  Name = 71897
REMARK  4 active torsions:
REMARK  status: ('A' for Active; 'I' for Inactive)
REMARK    1  A    between atoms: N_1  and  C_15
REMARK    2  A    between atoms: N_2  and  C_9
REMARK    3  A    between atoms: C_15  and  C_16
REMARK    4  A    between atoms: C_16  and  C_19
REMARK                            x       y       z     vdW  Elec       q    Type
REMARK                         _______ _______ _______ _____ _____    ______ ____
ROOT
ATOM      1  N   UNL     1      32.285 -13.137 -22.582  0.00  0.00    +0.389 N 
ATOM      2  N   UNL     1      32.909 -10.417 -23.195  0.00  0.00    -0.312 N 
ATOM      3  C   UNL     1      33.570 -12.790 -23.201  0.00  0.00    -0.055 C 
ATOM      4  C   UNL     1      31.856 -12.056 -21.685  0.00  0.00    -0.055 C 
ATOM      5  C   UNL     1      33.457 -11.500 -24.017  0.00  0.00    +0.068 C 
ATOM      6  C   UNL     1      31.685 -10.742 -22.450  0.00  0.00    +0.068 C 
ATOM      7  H   UNL     1      31.587 -13.253 -23.316  0.00  0.00    -0.080 HD
ENDROOT
BRANCH   2   9
ATOM      8 CL   UNL     1      30.891  -5.817 -24.309  0.00  0.00    -0.082 Cl
ATOM      9  C   UNL     1      33.113  -9.086 -23.573  0.00  0.00    +0.049 C 
ATOM     10  C   UNL     1      32.028  -8.202 -23.739  0.00  0.00    +0.026 C 
ATOM     11  C   UNL     1      34.413  -8.588 -23.798  0.00  0.00    +0.015 C 
ATOM     12  C   UNL     1      32.235  -6.874 -24.114  0.00  0.00    +0.059 C 
ATOM     13  C   UNL     1      34.619  -7.261 -24.173  0.00  0.00    +0.002 C 
ATOM     14  C   UNL     1      33.529  -6.404 -24.331  0.00  0.00    +0.011 C 
ENDBRANCH   2   9
BRANCH   1  15
ATOM     15  C   UNL     1      32.392 -14.398 -21.850  0.00  0.00    -0.071 C 
BRANCH  15  16
ATOM     16  C   UNL     1      33.742 -14.509 -21.137  0.00  0.00    +0.025 C 
BRANCH  16  19
ATOM     17  N   UNL     1      35.012 -16.406 -20.303  0.00  0.00    -0.186 NA
ATOM     18  N   UNL     1      35.426 -17.572 -20.825  0.00  0.00    -0.240 N 
ATOM     19  C   UNL     1      34.370 -15.858 -21.321  0.00  0.00    +0.075 C 
ATOM     20  C   UNL     1      34.356 -16.629 -22.479  0.00  0.00    +0.028 C 
ATOM     21  C   UNL     1      35.060 -17.754 -22.127  0.00  0.00    +0.044 C 
ATOM     22  C   UNL     1      35.417 -18.967 -22.880  0.00  0.00    +0.049 C 
ATOM     23  H   UNL     1      35.947 -18.235 -20.317  0.00  0.00    +0.174 HD
ENDBRANCH  16  19
ENDBRANCH  15  16
ENDBRANCH   1  15
TORSDOF 4
ENDMDL
MODEL 8
REMARK VINA RESULT:      -9.2      4.280      9.292
REMARK  Name = 71897
REMARK  4 active torsions:
REMARK  status: ('A' for Active; 'I' for Inactive)
REMARK    1  A    between atoms: N_1  and  C_15
REMARK    2  A    between atoms: N_2  and  C_9
REMARK    3  A    between atoms: C_15  and  C_16
REMARK    4  A    between atoms: C_16  and  C_19
REMARK                            x       y       z     vdW  Elec       q    Type
REMARK                         _______ _______ _______ _____ _____    ______ ____
ROOT
ATOM      1  N   UNL     1      32.456 -12.845 -23.217  0.00  0.00    +0.389 N 
ATOM      2  N   UNL     1      32.312 -10.087 -22.487  0.00  0.00    -0.312 N 
ATOM      3  C   UNL     1      33.490 -11.902 -23.663  0.00  0.00    -0.055 C 
ATOM      4  C   UNL     1      31.962 -12.452 -21.891  0.00  0.00    -0.055 C 
ATOM      5  C   UNL     1      32.934 -10.479 -23.754  0.00  0.00    +0.068 C 
ATOM      6  C   UNL     1      31.354 -11.049 -21.924  0.00  0.00    +0.068 C 
ATOM      7  H   UNL     1      31.680 -12.819 -23.879  0.00  0.00    -0.080 HD
ENDROOT
BRANCH   2   9
ATOM      8 CL   UNL     1      30.962  -5.390 -24.099  0.00  0.00    -0.082 Cl
ATOM      9  C   UNL     1      32.131  -8.731 -22.191  0.00  0.00    +0.049 C 
ATOM     10  C   UNL     1      31.687  -7.825 -23.175  0.00  0.00    +0.026 C 
ATOM     11  C   UNL     1      32.386  -8.231 -20.899  0.00  0.00    +0.015 C 
ATOM     12  C   UNL     1      31.505  -6.474 -22.878  0.00  0.00    +0.059 C 
ATOM     13  C   UNL     1      32.205  -6.880 -20.602  0.00  0.00    +0.002 C 
ATOM     14  C   UNL     1      31.764  -6.002 -21.592  0.00  0.00    +0.011 C 
ENDBRANCH   2   9
BRANCH   1  15
ATOM     15  C   UNL     1      32.983 -14.208 -23.185  0.00  0.00    -0.071 C 
BRANCH  15  16
ATOM     16  C   UNL     1      34.074 -14.352 -22.120  0.00  0.00    +0.025 C 
BRANCH  16  19
ATOM     17  N   UNL     1      35.302 -16.091 -23.293  0.00  0.00    -0.186 NA
ATOM     18  N   UNL     1      35.772 -17.306 -22.963  0.00  0.00    -0.240 N 
ATOM     19  C   UNL     1      34.734 -15.698 -22.165  0.00  0.00    +0.075 C 
ATOM     20  C   UNL     1      34.820 -16.615 -21.123  0.00  0.00    +0.028 C 
ATOM     21  C   UNL     1      35.508 -17.668 -21.674  0.00  0.00    +0.044 C 
ATOM     22  C   UNL     1      35.939 -18.961 -21.120  0.00  0.00    +0.049 C 
ATOM     23  H   UNL     1      36.260 -17.883 -23.594  0.00  0.00    +0.174 HD
ENDBRANCH  16  19
ENDBRANCH  15  16
ENDBRANCH   1  15
TORSDOF 4
ENDMDL
MODEL 9
REMARK VINA RESULT:      -9.2      1.712      2.417
REMARK  Name = 71897
REMARK  4 active torsions:
REMARK  status: ('A' for Active; 'I' for Inactive)
REMARK    1  A    between atoms: N_1  and  C_15
REMARK    2  A    between atoms: N_2  and  C_9
REMARK    3  A    between atoms: C_15  and  C_16
REMARK    4  A    between atoms: C_16  and  C_19
REMARK                            x       y       z     vdW  Elec       q    Type
REMARK                         _______ _______ _______ _____ _____    ______ ____
ROOT
ATOM      1  N   UNL     1      34.913 -16.718 -23.944  0.00  0.00    +0.389 N 
ATOM      2  N   UNL     1      35.064 -18.760 -21.952  0.00  0.00    -0.312 N 
ATOM      3  C   UNL     1      34.673 -18.122 -24.299  0.00  0.00    -0.055 C 
ATOM      4  C   UNL     1      34.438 -16.461 -22.579  0.00  0.00    -0.055 C 
ATOM      5  C   UNL     1      35.410 -19.065 -23.343  0.00  0.00    +0.068 C 
ATOM      6  C   UNL     1      35.167 -17.346 -21.567  0.00  0.00    +0.068 C 
ATOM      7  H   UNL     1      35.916 -16.536 -23.984  0.00  0.00    -0.080 HD
ENDROOT
BRANCH   2   9
ATOM      8 CL   UNL     1      33.019 -22.217 -18.736  0.00  0.00    -0.082 Cl
ATOM      9  C   UNL     1      35.260 -19.727 -20.960  0.00  0.00    +0.049 C 
ATOM     10  C   UNL     1      34.170 -20.421 -20.396  0.00  0.00    +0.026 C 
ATOM     11  C   UNL     1      36.554 -20.037 -20.495  0.00  0.00    +0.015 C 
ATOM     12  C   UNL     1      34.368 -21.385 -19.407  0.00  0.00    +0.059 C 
ATOM     13  C   UNL     1      36.751 -21.002 -19.507  0.00  0.00    +0.002 C 
ATOM     14  C   UNL     1      35.657 -21.676 -18.963  0.00  0.00    +0.011 C 
ENDBRANCH   2   9
BRANCH   1  15
ATOM     15  C   UNL     1      34.249 -15.828 -24.895  0.00  0.00    -0.071 C 
BRANCH  15  16
ATOM     16  C   UNL     1      33.304 -14.860 -24.177  0.00  0.00    +0.025 C 
BRANCH  16  19
ATOM     17  N   UNL     1      33.476 -13.085 -25.827  0.00  0.00    -0.186 NA
ATOM     18  N   UNL     1      33.766 -11.773 -25.782  0.00  0.00    -0.240 N 
ATOM     19  C   UNL     1      33.564 -13.432 -24.555  0.00  0.00    +0.075 C 
ATOM     20  C   UNL     1      33.901 -12.394 -23.692  0.00  0.00    +0.028 C 
ATOM     21  C   UNL     1      34.029 -11.310 -24.526  0.00  0.00    +0.044 C 
ATOM     22  C   UNL     1      34.368  -9.902 -24.265  0.00  0.00    +0.049 C 
ATOM     23  H   UNL     1      33.787 -11.200 -26.581  0.00  0.00    +0.174 HD
ENDBRANCH  16  19
ENDBRANCH  15  16
ENDBRANCH   1  15
TORSDOF 4
ENDMDL
