MODEL 1
REMARK VINA RESULT:     -11.1      0.000      0.000
REMARK  Name = 44193830
REMARK  8 active torsions:
REMARK  status: ('A' for Active; 'I' for Inactive)
REMARK    1  A    between atoms: C_9  and  C_20
REMARK    2  A    between atoms: C_10  and  C_15
REMARK    3  A    between atoms: C_11  and  C_17
REMARK    4  A    between atoms: C_17  and  O_18
REMARK    5  A    between atoms: C_20  and  C_21
REMARK    6  A    between atoms: C_21  and  N_22
REMARK    7  A    between atoms: C_21  and  C_26
REMARK    8  A    between atoms: C_26  and  C_30
REMARK                            x       y       z     vdW  Elec       q    Type
REMARK                         _______ _______ _______ _____ _____    ______ ____
ROOT
ATOM      1  O   UNL     1      37.024 -21.407 -19.364  0.00  0.00    -0.275 OA
ATOM      2  N   UNL     1      35.993 -22.093 -17.394  0.00  0.00    -0.276 N 
ATOM      3  N   UNL     1      36.397 -23.660 -15.128  0.00  0.00    -0.272 N 
ATOM      4  N   UNL     1      35.123 -24.783 -13.716  0.00  0.00    -0.379 NA
ATOM      5  C   UNL     1      37.197 -21.871 -16.581  0.00  0.00    +0.115 C 
ATOM      6  C   UNL     1      37.561 -23.129 -15.803  0.00  0.00    +0.115 C 
ATOM      7  C   UNL     1      34.779 -22.518 -16.669  0.00  0.00    +0.121 C 
ATOM      8  C   UNL     1      35.111 -23.401 -15.520  0.00  0.00    +0.154 C 
ATOM      9  C   UNL     1      36.015 -21.763 -18.752  0.00  0.00    +0.224 C 
ATOM     10  C   UNL     1      36.361 -24.489 -14.051  0.00  0.00    +0.256 C 
ATOM     11  C   UNL     1      34.340 -24.110 -14.625  0.00  0.00    +0.205 C 
ENDROOT
BRANCH  10  15
ATOM     12  F   UNL     1      37.317 -25.898 -12.391  0.00  0.00    -0.163 F 
ATOM     13  F   UNL     1      38.469 -25.609 -14.213  0.00  0.00    -0.163 F 
ATOM     14  F   UNL     1      38.318 -24.004 -12.763  0.00  0.00    -0.163 F 
ATOM     15  C   UNL     1      37.579 -24.983 -13.377  0.00  0.00    +0.460 C 
ENDBRANCH  10  15
BRANCH  11  17
ATOM     16  O   UNL     1      32.150 -23.791 -15.513  0.00  0.00    -0.242 OA
ATOM     17  C   UNL     1      32.910 -24.173 -14.595  0.00  0.00    +0.369 C 
BRANCH  17  18
ATOM     18  O   UNL     1      32.430 -24.710 -13.421  0.00  0.00    -0.440 OA
ATOM     19  C   UNL     1      31.026 -24.967 -13.332  0.00  0.00    +0.256 C 
ENDBRANCH  17  18
ENDBRANCH  11  17
BRANCH   9  20
ATOM     20  C   UNL     1      34.702 -21.866 -19.488  0.00  0.00    +0.064 C 
BRANCH  20  21
ATOM     21  C   UNL     1      34.292 -20.527 -20.103  0.00  0.00    -0.052 C 
BRANCH  21  22
ATOM     22  N   UNL     1      32.824 -20.505 -20.154  0.00  0.00    +0.382 N 
ATOM     23  H   UNL     1      32.455 -21.327 -19.678  0.00  0.00    -0.089 HD
ATOM     24  H   UNL     1      32.518 -20.510 -21.127  0.00  0.00    -0.089 HD
ATOM     25  H   UNL     1      32.481 -19.662 -19.694  0.00  0.00    -0.089 HD
ENDBRANCH  21  22
BRANCH  21  26
ATOM     26  C   UNL     1      34.834 -20.317 -21.534  0.00  0.00    +0.007 C 
BRANCH  26  30
ATOM     27  F   UNL     1      34.846 -19.555 -24.266  0.00  0.00    -0.204 F 
ATOM     28  F   UNL     1      34.923 -15.535 -20.559  0.00  0.00    -0.202 F 
ATOM     29  F   UNL     1      34.932 -14.940 -23.228  0.00  0.00    -0.202 F 
ATOM     30  C   UNL     1      34.860 -18.879 -21.990  0.00  0.00    +0.006 C 
ATOM     31  C   UNL     1      34.865 -18.575 -23.352  0.00  0.00    +0.138 C 
ATOM     32  C   UNL     1      34.880 -17.852 -21.047  0.00  0.00    +0.030 C 
ATOM     33  C   UNL     1      34.904 -16.521 -21.465  0.00  0.00    +0.167 C 
ATOM     34  C   UNL     1      34.889 -17.244 -23.770  0.00  0.00    +0.061 C 
ATOM     35  C   UNL     1      34.908 -16.218 -22.826  0.00  0.00    +0.170 C 
ENDBRANCH  26  30
ENDBRANCH  21  26
ENDBRANCH  20  21
ENDBRANCH   9  20
TORSDOF 8
ENDMDL
MODEL 2
REMARK VINA RESULT:     -10.5      2.588      3.737
REMARK  Name = 44193830
REMARK  8 active torsions:
REMARK  status: ('A' for Active; 'I' for Inactive)
REMARK    1  A    between atoms: C_9  and  C_20
REMARK    2  A    between atoms: C_10  and  C_15
REMARK    3  A    between atoms: C_11  and  C_17
REMARK    4  A    between atoms: C_17  and  O_18
REMARK    5  A    between atoms: C_20  and  C_21
REMARK    6  A    between atoms: C_21  and  N_22
REMARK    7  A    between atoms: C_21  and  C_26
REMARK    8  A    between atoms: C_26  and  C_30
REMARK                            x       y       z     vdW  Elec       q    Type
REMARK                         _______ _______ _______ _____ _____    ______ ____
ROOT
ATOM      1  O   UNL     1      32.735 -21.151 -20.254  0.00  0.00    -0.275 OA
ATOM      2  N   UNL     1      34.043 -22.190 -18.634  0.00  0.00    -0.276 N 
ATOM      3  N   UNL     1      33.941 -23.209 -16.044  0.00  0.00    -0.272 N 
ATOM      4  N   UNL     1      35.374 -23.511 -14.391  0.00  0.00    -0.379 NA
ATOM      5  C   UNL     1      33.002 -23.172 -18.295  0.00  0.00    +0.115 C 
ATOM      6  C   UNL     1      32.709 -23.153 -16.800  0.00  0.00    +0.115 C 
ATOM      7  C   UNL     1      35.337 -22.339 -17.939  0.00  0.00    +0.121 C 
ATOM      8  C   UNL     1      35.157 -22.826 -16.547  0.00  0.00    +0.154 C 
ATOM      9  C   UNL     1      33.813 -21.280 -19.669  0.00  0.00    +0.224 C 
ATOM     10  C   UNL     1      34.114 -23.609 -14.755  0.00  0.00    +0.256 C 
ATOM     11  C   UNL     1      36.029 -23.026 -15.498  0.00  0.00    +0.205 C 
ENDROOT
BRANCH  10  15
ATOM     12  F   UNL     1      33.420 -24.619 -12.718  0.00  0.00    -0.163 F 
ATOM     13  F   UNL     1      32.114 -23.092 -13.548  0.00  0.00    -0.163 F 
ATOM     14  F   UNL     1      32.222 -25.046 -14.481  0.00  0.00    -0.163 F 
ATOM     15  C   UNL     1      33.001 -24.075 -13.904  0.00  0.00    +0.460 C 
ENDBRANCH  10  15
BRANCH  11  17
ATOM     16  O   UNL     1      38.035 -22.011 -16.294  0.00  0.00    -0.242 OA
ATOM     17  C   UNL     1      37.440 -22.780 -15.506  0.00  0.00    +0.369 C 
BRANCH  17  18
ATOM     18  O   UNL     1      38.104 -23.493 -14.533  0.00  0.00    -0.440 OA
ATOM     19  C   UNL     1      38.666 -24.756 -14.901  0.00  0.00    +0.256 C 
ENDBRANCH  17  18
ENDBRANCH  11  17
BRANCH   9  20
ATOM     20  C   UNL     1      34.980 -20.411 -20.068  0.00  0.00    +0.064 C 
BRANCH  20  21
ATOM     21  C   UNL     1      34.541 -19.253 -20.965  0.00  0.00    -0.052 C 
BRANCH  21  22
ATOM     22  N   UNL     1      34.391 -19.789 -22.324  0.00  0.00    +0.382 N 
ATOM     23  H   UNL     1      34.496 -19.034 -23.001  0.00  0.00    -0.089 HD
ATOM     24  H   UNL     1      33.466 -20.208 -22.424  0.00  0.00    -0.089 HD
ATOM     25  H   UNL     1      35.105 -20.497 -22.491  0.00  0.00    -0.089 HD
ENDBRANCH  21  22
BRANCH  21  26
ATOM     26  C   UNL     1      35.557 -18.090 -21.008  0.00  0.00    +0.007 C 
BRANCH  26  30
ATOM     27  F   UNL     1      35.735 -17.354 -23.742  0.00  0.00    -0.204 F 
ATOM     28  F   UNL     1      33.254 -13.834 -20.370  0.00  0.00    -0.202 F 
ATOM     29  F   UNL     1      33.495 -13.248 -23.030  0.00  0.00    -0.202 F 
ATOM     30  C   UNL     1      35.006 -16.795 -21.552  0.00  0.00    +0.006 C 
ATOM     31  C   UNL     1      35.128 -16.496 -22.909  0.00  0.00    +0.138 C 
ATOM     32  C   UNL     1      34.373 -15.895 -20.695  0.00  0.00    +0.030 C 
ATOM     33  C   UNL     1      33.862 -14.697 -21.194  0.00  0.00    +0.167 C 
ATOM     34  C   UNL     1      34.618 -15.297 -23.408  0.00  0.00    +0.061 C 
ATOM     35  C   UNL     1      33.984 -14.399 -22.550  0.00  0.00    +0.170 C 
ENDBRANCH  26  30
ENDBRANCH  21  26
ENDBRANCH  20  21
ENDBRANCH   9  20
TORSDOF 8
ENDMDL
MODEL 3
REMARK VINA RESULT:     -10.3      6.692     12.560
REMARK  Name = 44193830
REMARK  8 active torsions:
REMARK  status: ('A' for Active; 'I' for Inactive)
REMARK    1  A    between atoms: C_9  and  C_20
REMARK    2  A    between atoms: C_10  and  C_15
REMARK    3  A    between atoms: C_11  and  C_17
REMARK    4  A    between atoms: C_17  and  O_18
REMARK    5  A    between atoms: C_20  and  C_21
REMARK    6  A    between atoms: C_21  and  N_22
REMARK    7  A    between atoms: C_21  and  C_26
REMARK    8  A    between atoms: C_26  and  C_30
REMARK                            x       y       z     vdW  Elec       q    Type
REMARK                         _______ _______ _______ _____ _____    ______ ____
ROOT
ATOM      1  O   UNL     1      34.402 -15.455 -24.482  0.00  0.00    -0.275 OA
ATOM      2  N   UNL     1      33.231 -13.570 -23.783  0.00  0.00    -0.276 N 
ATOM      3  N   UNL     1      33.431 -10.799 -23.593  0.00  0.00    -0.272 N 
ATOM      4  N   UNL     1      32.587  -9.223 -22.297  0.00  0.00    -0.379 NA
ATOM      5  C   UNL     1      33.580 -12.797 -24.985  0.00  0.00    +0.115 C 
ATOM      6  C   UNL     1      34.221 -11.469 -24.603  0.00  0.00    +0.115 C 
ATOM      7  C   UNL     1      32.323 -12.914 -22.821  0.00  0.00    +0.121 C 
ATOM      8  C   UNL     1      32.563 -11.449 -22.756  0.00  0.00    +0.154 C 
ATOM      9  C   UNL     1      33.645 -14.901 -23.682  0.00  0.00    +0.224 C 
ATOM     10  C   UNL     1      33.417  -9.474 -23.286  0.00  0.00    +0.256 C 
ATOM     11  C   UNL     1      32.052 -10.445 -21.963  0.00  0.00    +0.205 C 
ENDROOT
BRANCH  10  15
ATOM     12  F   UNL     1      33.526  -7.436 -24.506  0.00  0.00    -0.163 F 
ATOM     13  F   UNL     1      35.206  -7.888 -23.201  0.00  0.00    -0.163 F 
ATOM     14  F   UNL     1      34.951  -8.985 -25.054  0.00  0.00    -0.163 F 
ATOM     15  C   UNL     1      34.251  -8.479 -23.989  0.00  0.00    +0.460 C 
ENDBRANCH  10  15
BRANCH  11  17
ATOM     16  O   UNL     1      30.043 -11.283 -20.987  0.00  0.00    -0.242 OA
ATOM     17  C   UNL     1      31.087 -10.597 -20.915  0.00  0.00    +0.369 C 
BRANCH  17  18
ATOM     18  O   UNL     1      31.426  -9.893 -19.781  0.00  0.00    -0.440 OA
ATOM     19  C   UNL     1      31.476 -10.608 -18.543  0.00  0.00    +0.256 C 
ENDBRANCH  17  18
ENDBRANCH  11  17
BRANCH   9  20
ATOM     20  C   UNL     1      33.118 -15.679 -22.502  0.00  0.00    +0.064 C 
BRANCH  20  21
ATOM     21  C   UNL     1      34.238 -16.075 -21.540  0.00  0.00    -0.052 C 
BRANCH  21  22
ATOM     22  N   UNL     1      35.053 -14.876 -21.306  0.00  0.00    +0.382 N 
ATOM     23  H   UNL     1      35.155 -14.359 -22.180  0.00  0.00    -0.089 HD
ATOM     24  H   UNL     1      35.973 -15.152 -20.965  0.00  0.00    -0.089 HD
ATOM     25  H   UNL     1      34.596 -14.284 -20.613  0.00  0.00    -0.089 HD
ENDBRANCH  21  22
BRANCH  21  26
ATOM     26  C   UNL     1      35.155 -17.189 -22.091  0.00  0.00    +0.007 C 
BRANCH  26  30
ATOM     27  F   UNL     1      37.421 -18.734 -21.366  0.00  0.00    -0.204 F 
ATOM     28  F   UNL     1      32.512 -20.709 -19.980  0.00  0.00    -0.202 F 
ATOM     29  F   UNL     1      34.780 -22.098 -19.342  0.00  0.00    -0.202 F 
ATOM     30  C   UNL     1      35.058 -18.503 -21.355  0.00  0.00    +0.006 C 
ATOM     31  C   UNL     1      36.214 -19.212 -21.029  0.00  0.00    +0.138 C 
ATOM     32  C   UNL     1      33.807 -19.009 -21.001  0.00  0.00    +0.030 C 
ATOM     33  C   UNL     1      33.713 -20.223 -20.320  0.00  0.00    +0.167 C 
ATOM     34  C   UNL     1      36.120 -20.427 -20.350  0.00  0.00    +0.061 C 
ATOM     35  C   UNL     1      34.870 -20.931 -19.995  0.00  0.00    +0.170 C 
ENDBRANCH  26  30
ENDBRANCH  21  26
ENDBRANCH  20  21
ENDBRANCH   9  20
TORSDOF 8
ENDMDL
MODEL 4
REMARK VINA RESULT:     -10.3      0.692      1.740
REMARK  Name = 44193830
REMARK  8 active torsions:
REMARK  status: ('A' for Active; 'I' for Inactive)
REMARK    1  A    between atoms: C_9  and  C_20
REMARK    2  A    between atoms: C_10  and  C_15
REMARK    3  A    between atoms: C_11  and  C_17
REMARK    4  A    between atoms: C_17  and  O_18
REMARK    5  A    between atoms: C_20  and  C_21
REMARK    6  A    between atoms: C_21  and  N_22
REMARK    7  A    between atoms: C_21  and  C_26
REMARK    8  A    between atoms: C_26  and  C_30
REMARK                            x       y       z     vdW  Elec       q    Type
REMARK                         _______ _______ _______ _____ _____    ______ ____
ROOT
ATOM      1  O   UNL     1      37.094 -21.404 -19.311  0.00  0.00    -0.275 OA
ATOM      2  N   UNL     1      36.019 -22.088 -17.364  0.00  0.00    -0.276 N 
ATOM      3  N   UNL     1      36.326 -23.742 -15.145  0.00  0.00    -0.272 N 
ATOM      4  N   UNL     1      34.986 -24.831 -13.768  0.00  0.00    -0.379 NA
ATOM      5  C   UNL     1      37.232 -21.959 -16.542  0.00  0.00    +0.115 C 
ATOM      6  C   UNL     1      37.521 -23.259 -15.802  0.00  0.00    +0.115 C 
ATOM      7  C   UNL     1      34.781 -22.464 -16.653  0.00  0.00    +0.121 C 
ATOM      8  C   UNL     1      35.058 -23.398 -15.530  0.00  0.00    +0.154 C 
ATOM      9  C   UNL     1      36.064 -21.719 -18.711  0.00  0.00    +0.224 C 
ATOM     10  C   UNL     1      36.240 -24.598 -14.092  0.00  0.00    +0.256 C 
ATOM     11  C   UNL     1      34.246 -24.088 -14.657  0.00  0.00    +0.205 C 
ENDROOT
BRANCH  10  15
ATOM     12  F   UNL     1      38.241 -24.240 -12.860  0.00  0.00    -0.163 F 
ATOM     13  F   UNL     1      37.132 -26.057 -12.419  0.00  0.00    -0.163 F 
ATOM     14  F   UNL     1      38.243 -25.893 -14.273  0.00  0.00    -0.163 F 
ATOM     15  C   UNL     1      37.425 -25.181 -13.432  0.00  0.00    +0.460 C 
ENDBRANCH  10  15
BRANCH  11  17
ATOM     16  O   UNL     1      32.078 -23.726 -15.584  0.00  0.00    -0.242 OA
ATOM     17  C   UNL     1      32.813 -24.068 -14.631  0.00  0.00    +0.369 C 
BRANCH  17  18
ATOM     18  O   UNL     1      32.303 -24.475 -13.419  0.00  0.00    -0.440 OA
ATOM     19  C   UNL     1      30.953 -24.947 -13.389  0.00  0.00    +0.256 C 
ENDBRANCH  17  18
ENDBRANCH  11  17
BRANCH   9  20
ATOM     20  C   UNL     1      34.749 -21.724 -19.451  0.00  0.00    +0.064 C 
BRANCH  20  21
ATOM     21  C   UNL     1      34.511 -20.406 -20.188  0.00  0.00    -0.052 C 
BRANCH  21  22
ATOM     22  N   UNL     1      33.141 -20.448 -20.718  0.00  0.00    +0.382 N 
ATOM     23  H   UNL     1      32.518 -19.940 -20.090  0.00  0.00    -0.089 HD
ATOM     24  H   UNL     1      32.834 -21.418 -20.790  0.00  0.00    -0.089 HD
ATOM     25  H   UNL     1      33.120 -20.015 -21.641  0.00  0.00    -0.089 HD
ENDBRANCH  21  22
BRANCH  21  26
ATOM     26  C   UNL     1      35.483 -20.177 -21.367  0.00  0.00    +0.007 C 
BRANCH  26  30
ATOM     27  F   UNL     1      35.601 -17.533 -20.345  0.00  0.00    -0.204 F 
ATOM     28  F   UNL     1      34.200 -18.112 -25.600  0.00  0.00    -0.202 F 
ATOM     29  F   UNL     1      34.352 -15.618 -24.487  0.00  0.00    -0.202 F 
ATOM     30  C   UNL     1      35.181 -18.955 -22.200  0.00  0.00    +0.006 C 
ATOM     31  C   UNL     1      35.258 -17.683 -21.633  0.00  0.00    +0.138 C 
ATOM     32  C   UNL     1      34.823 -19.100 -23.540  0.00  0.00    +0.030 C 
ATOM     33  C   UNL     1      34.543 -17.972 -24.313  0.00  0.00    +0.167 C 
ATOM     34  C   UNL     1      34.978 -16.556 -22.406  0.00  0.00    +0.061 C 
ATOM     35  C   UNL     1      34.621 -16.701 -23.745  0.00  0.00    +0.170 C 
ENDBRANCH  26  30
ENDBRANCH  21  26
ENDBRANCH  20  21
ENDBRANCH   9  20
TORSDOF 8
ENDMDL
MODEL 5
REMARK VINA RESULT:     -10.3      3.085      4.200
REMARK  Name = 44193830
REMARK  8 active torsions:
REMARK  status: ('A' for Active; 'I' for Inactive)
REMARK    1  A    between atoms: C_9  and  C_20
REMARK    2  A    between atoms: C_10  and  C_15
REMARK    3  A    between atoms: C_11  and  C_17
REMARK    4  A    between atoms: C_17  and  O_18
REMARK    5  A    between atoms: C_20  and  C_21
REMARK    6  A    between atoms: C_21  and  N_22
REMARK    7  A    between atoms: C_21  and  C_26
REMARK    8  A    between atoms: C_26  and  C_30
REMARK                            x       y       z     vdW  Elec       q    Type
REMARK                         _______ _______ _______ _____ _____    ______ ____
ROOT
ATOM      1  O   UNL     1      33.156 -21.810 -19.818  0.00  0.00    -0.275 OA
ATOM      2  N   UNL     1      33.625 -22.876 -17.804  0.00  0.00    -0.276 N 
ATOM      3  N   UNL     1      32.524 -23.460 -15.313  0.00  0.00    -0.272 N 
ATOM      4  N   UNL     1      33.292 -23.841 -13.278  0.00  0.00    -0.379 NA
ATOM      5  C   UNL     1      32.311 -23.533 -17.743  0.00  0.00    +0.115 C 
ATOM      6  C   UNL     1      31.619 -23.232 -16.419  0.00  0.00    +0.115 C 
ATOM      7  C   UNL     1      34.580 -23.216 -16.731  0.00  0.00    +0.121 C 
ATOM      8  C   UNL     1      33.888 -23.443 -15.435  0.00  0.00    +0.154 C 
ATOM      9  C   UNL     1      33.949 -22.097 -18.918  0.00  0.00    +0.224 C 
ATOM     10  C   UNL     1      32.209 -23.698 -14.012  0.00  0.00    +0.256 C 
ATOM     11  C   UNL     1      34.339 -23.684 -14.156  0.00  0.00    +0.205 C 
ENDROOT
BRANCH  10  15
ATOM     12  F   UNL     1      29.985 -22.869 -14.135  0.00  0.00    -0.163 F 
ATOM     13  F   UNL     1      30.218 -24.988 -13.709  0.00  0.00    -0.163 F 
ATOM     14  F   UNL     1      30.681 -23.521 -12.181  0.00  0.00    -0.163 F 
ATOM     15  C   UNL     1      30.818 -23.769 -13.523  0.00  0.00    +0.460 C 
ENDBRANCH  10  15
BRANCH  11  17
ATOM     16  O   UNL     1      36.538 -22.838 -13.782  0.00  0.00    -0.242 OA
ATOM     17  C   UNL     1      35.707 -23.772 -13.738  0.00  0.00    +0.369 C 
BRANCH  17  18
ATOM     18  O   UNL     1      36.033 -25.024 -13.267  0.00  0.00    -0.440 OA
ATOM     19  C   UNL     1      36.870 -25.846 -14.086  0.00  0.00    +0.256 C 
ENDBRANCH  17  18
ENDBRANCH  11  17
BRANCH   9  20
ATOM     20  C   UNL     1      35.366 -21.586 -18.989  0.00  0.00    +0.064 C 
BRANCH  20  21
ATOM     21  C   UNL     1      35.603 -20.749 -20.247  0.00  0.00    -0.052 C 
BRANCH  21  22
ATOM     22  N   UNL     1      36.910 -20.098 -20.095  0.00  0.00    +0.382 N 
ATOM     23  H   UNL     1      37.605 -20.791 -19.816  0.00  0.00    -0.089 HD
ATOM     24  H   UNL     1      36.848 -19.373 -19.381  0.00  0.00    -0.089 HD
ATOM     25  H   UNL     1      37.187 -19.679 -20.983  0.00  0.00    -0.089 HD
ENDBRANCH  21  22
BRANCH  21  26
ATOM     26  C   UNL     1      34.535 -19.655 -20.466  0.00  0.00    +0.007 C 
BRANCH  26  30
ATOM     27  F   UNL     1      35.171 -16.891 -20.472  0.00  0.00    -0.204 F 
ATOM     28  F   UNL     1      34.580 -19.320 -25.336  0.00  0.00    -0.202 F 
ATOM     29  F   UNL     1      35.193 -16.658 -25.197  0.00  0.00    -0.202 F 
ATOM     30  C   UNL     1      34.712 -18.850 -21.731  0.00  0.00    +0.006 C 
ATOM     31  C   UNL     1      35.024 -17.492 -21.661  0.00  0.00    +0.138 C 
ATOM     32  C   UNL     1      34.562 -19.467 -22.973  0.00  0.00    +0.030 C 
ATOM     33  C   UNL     1      34.725 -18.726 -24.144  0.00  0.00    +0.167 C 
ATOM     34  C   UNL     1      35.187 -16.752 -22.832  0.00  0.00    +0.061 C 
ATOM     35  C   UNL     1      35.037 -17.370 -24.073  0.00  0.00    +0.170 C 
ENDBRANCH  26  30
ENDBRANCH  21  26
ENDBRANCH  20  21
ENDBRANCH   9  20
TORSDOF 8
ENDMDL
MODEL 6
REMARK VINA RESULT:     -10.2      6.948      9.994
REMARK  Name = 44193830
REMARK  8 active torsions:
REMARK  status: ('A' for Active; 'I' for Inactive)
REMARK    1  A    between atoms: C_9  and  C_20
REMARK    2  A    between atoms: C_10  and  C_15
REMARK    3  A    between atoms: C_11  and  C_17
REMARK    4  A    between atoms: C_17  and  O_18
REMARK    5  A    between atoms: C_20  and  C_21
REMARK    6  A    between atoms: C_21  and  N_22
REMARK    7  A    between atoms: C_21  and  C_26
REMARK    8  A    between atoms: C_26  and  C_30
REMARK                            x       y       z     vdW  Elec       q    Type
REMARK                         _______ _______ _______ _____ _____    ______ ____
ROOT
ATOM      1  O   UNL     1      32.970 -15.622 -27.177  0.00  0.00    -0.275 OA
ATOM      2  N   UNL     1      33.872 -15.703 -25.034  0.00  0.00    -0.276 N 
ATOM      3  N   UNL     1      34.507 -17.471 -22.978  0.00  0.00    -0.272 N 
ATOM      4  N   UNL     1      34.686 -17.364 -20.780  0.00  0.00    -0.379 NA
ATOM      5  C   UNL     1      34.712 -16.871 -25.335  0.00  0.00    +0.115 C 
ATOM      6  C   UNL     1      34.461 -17.988 -24.329  0.00  0.00    +0.115 C 
ATOM      7  C   UNL     1      34.023 -15.114 -23.689  0.00  0.00    +0.121 C 
ATOM      8  C   UNL     1      34.295 -16.155 -22.664  0.00  0.00    +0.154 C 
ATOM      9  C   UNL     1      33.101 -15.135 -26.052  0.00  0.00    +0.224 C 
ATOM     10  C   UNL     1      34.735 -18.159 -21.828  0.00  0.00    +0.256 C 
ATOM     11  C   UNL     1      34.414 -16.117 -21.291  0.00  0.00    +0.205 C 
ENDROOT
BRANCH  10  15
ATOM     12  F   UNL     1      36.083 -19.955 -21.047  0.00  0.00    -0.163 F 
ATOM     13  F   UNL     1      33.959 -20.354 -21.280  0.00  0.00    -0.163 F 
ATOM     14  F   UNL     1      35.222 -20.167 -23.032  0.00  0.00    -0.163 F 
ATOM     15  C   UNL     1      34.990 -19.613 -21.799  0.00  0.00    +0.460 C 
ENDBRANCH  10  15
BRANCH  11  17
ATOM     16  O   UNL     1      35.232 -14.261 -20.037  0.00  0.00    -0.242 OA
ATOM     17  C   UNL     1      34.283 -14.960 -20.457  0.00  0.00    +0.369 C 
BRANCH  17  18
ATOM     18  O   UNL     1      32.971 -14.679 -20.150  0.00  0.00    -0.440 OA
ATOM     19  C   UNL     1      32.371 -13.539 -20.773  0.00  0.00    +0.256 C 
ENDBRANCH  17  18
ENDBRANCH  11  17
BRANCH   9  20
ATOM     20  C   UNL     1      32.390 -13.847 -25.716  0.00  0.00    +0.064 C 
BRANCH  20  21
ATOM     21  C   UNL     1      33.193 -12.626 -26.163  0.00  0.00    -0.052 C 
BRANCH  21  22
ATOM     22  N   UNL     1      33.821 -12.966 -27.446  0.00  0.00    +0.382 N 
ATOM     23  H   UNL     1      33.313 -12.510 -28.205  0.00  0.00    -0.089 HD
ATOM     24  H   UNL     1      33.795 -13.976 -27.580  0.00  0.00    -0.089 HD
ATOM     25  H   UNL     1      34.789 -12.647 -27.446  0.00  0.00    -0.089 HD
ENDBRANCH  21  22
BRANCH  21  26
ATOM     26  C   UNL     1      34.303 -12.222 -25.168  0.00  0.00    +0.007 C 
BRANCH  26  30
ATOM     27  F   UNL     1      36.006  -9.985 -25.543  0.00  0.00    -0.204 F 
ATOM     28  F   UNL     1      31.751  -9.339 -22.168  0.00  0.00    -0.202 F 
ATOM     29  F   UNL     1      33.473  -7.262 -22.619  0.00  0.00    -0.202 F 
ATOM     30  C   UNL     1      34.083 -10.893 -24.487  0.00  0.00    +0.006 C 
ATOM     31  C   UNL     1      34.961  -9.834 -24.717  0.00  0.00    +0.138 C 
ATOM     32  C   UNL     1      32.999 -10.726 -23.626  0.00  0.00    +0.030 C 
ATOM     33  C   UNL     1      32.792  -9.499 -22.995  0.00  0.00    +0.167 C 
ATOM     34  C   UNL     1      34.755  -8.607 -24.085  0.00  0.00    +0.061 C 
ATOM     35  C   UNL     1      33.670  -8.441 -23.225  0.00  0.00    +0.170 C 
ENDBRANCH  26  30
ENDBRANCH  21  26
ENDBRANCH  20  21
ENDBRANCH   9  20
TORSDOF 8
ENDMDL
MODEL 7
REMARK VINA RESULT:     -10.0      9.230     13.114
REMARK  Name = 44193830
REMARK  8 active torsions:
REMARK  status: ('A' for Active; 'I' for Inactive)
REMARK    1  A    between atoms: C_9  and  C_20
REMARK    2  A    between atoms: C_10  and  C_15
REMARK    3  A    between atoms: C_11  and  C_17
REMARK    4  A    between atoms: C_17  and  O_18
REMARK    5  A    between atoms: C_20  and  C_21
REMARK    6  A    between atoms: C_21  and  N_22
REMARK    7  A    between atoms: C_21  and  C_26
REMARK    8  A    between atoms: C_26  and  C_30
REMARK                            x       y       z     vdW  Elec       q    Type
REMARK                         _______ _______ _______ _____ _____    ______ ____
ROOT
ATOM      1  O   UNL     1      31.053 -10.870 -19.298  0.00  0.00    -0.275 OA
ATOM      2  N   UNL     1      31.728 -11.949 -21.246  0.00  0.00    -0.276 N 
ATOM      3  N   UNL     1      33.348 -14.018 -22.168  0.00  0.00    -0.272 N 
ATOM      4  N   UNL     1      34.440 -14.481 -24.031  0.00  0.00    -0.379 NA
ATOM      5  C   UNL     1      31.570 -13.290 -20.664  0.00  0.00    +0.115 C 
ATOM      6  C   UNL     1      32.856 -14.095 -20.810  0.00  0.00    +0.115 C 
ATOM      7  C   UNL     1      32.114 -11.892 -22.670  0.00  0.00    +0.121 C 
ATOM      8  C   UNL     1      33.029 -13.005 -23.033  0.00  0.00    +0.154 C 
ATOM      9  C   UNL     1      31.376 -10.829 -20.487  0.00  0.00    +0.224 C 
ATOM     10  C   UNL     1      34.193 -14.876 -22.801  0.00  0.00    +0.256 C 
ATOM     11  C   UNL     1      33.719 -13.319 -24.183  0.00  0.00    +0.205 C 
ENDROOT
BRANCH  10  15
ATOM     12  F   UNL     1      35.788 -16.637 -22.848  0.00  0.00    -0.163 F 
ATOM     13  F   UNL     1      35.246 -15.860 -20.891  0.00  0.00    -0.163 F 
ATOM     14  F   UNL     1      33.845 -17.098 -21.989  0.00  0.00    -0.163 F 
ATOM     15  C   UNL     1      34.749 -16.079 -22.151  0.00  0.00    +0.460 C 
ENDBRANCH  10  15
BRANCH  11  17
ATOM     16  O   UNL     1      33.371 -13.013 -26.522  0.00  0.00    -0.242 OA
ATOM     17  C   UNL     1      33.722 -12.572 -25.405  0.00  0.00    +0.369 C 
BRANCH  17  18
ATOM     18  O   UNL     1      34.161 -11.279 -25.231  0.00  0.00    -0.440 OA
ATOM     19  C   UNL     1      35.185 -10.800 -26.108  0.00  0.00    +0.256 C 
ENDBRANCH  17  18
ENDBRANCH  11  17
BRANCH   9  20
ATOM     20  C   UNL     1      31.411  -9.499 -21.199  0.00  0.00    +0.064 C 
BRANCH  20  21
ATOM     21  C   UNL     1      32.546  -8.613 -20.685  0.00  0.00    -0.052 C 
BRANCH  21  22
ATOM     22  N   UNL     1      32.692  -8.884 -19.249  0.00  0.00    +0.382 N 
ATOM     23  H   UNL     1      33.222  -9.745 -19.118  0.00  0.00    -0.089 HD
ATOM     24  H   UNL     1      31.769  -8.985 -18.827  0.00  0.00    -0.089 HD
ATOM     25  H   UNL     1      33.186  -8.110 -18.805  0.00  0.00    -0.089 HD
ENDBRANCH  21  22
BRANCH  21  26
ATOM     26  C   UNL     1      32.279  -7.103 -20.873  0.00  0.00    +0.007 C 
BRANCH  26  30
ATOM     27  F   UNL     1      30.246  -5.554 -22.102  0.00  0.00    -0.204 F 
ATOM     28  F   UNL     1      34.608  -6.811 -25.153  0.00  0.00    -0.202 F 
ATOM     29  F   UNL     1      32.573  -5.323 -26.215  0.00  0.00    -0.202 F 
ATOM     30  C   UNL     1      32.355  -6.625 -22.302  0.00  0.00    +0.006 C 
ATOM     31  C   UNL     1      31.318  -5.866 -22.844  0.00  0.00    +0.138 C 
ATOM     32  C   UNL     1      33.466  -6.944 -23.082  0.00  0.00    +0.030 C 
ATOM     33  C   UNL     1      33.540  -6.504 -24.404  0.00  0.00    +0.167 C 
ATOM     34  C   UNL     1      31.392  -5.426 -24.166  0.00  0.00    +0.061 C 
ATOM     35  C   UNL     1      32.503  -5.745 -24.945  0.00  0.00    +0.170 C 
ENDBRANCH  26  30
ENDBRANCH  21  26
ENDBRANCH  20  21
ENDBRANCH   9  20
TORSDOF 8
ENDMDL
MODEL 8
REMARK VINA RESULT:      -9.9      6.294     12.447
REMARK  Name = 44193830
REMARK  8 active torsions:
REMARK  status: ('A' for Active; 'I' for Inactive)
REMARK    1  A    between atoms: C_9  and  C_20
REMARK    2  A    between atoms: C_10  and  C_15
REMARK    3  A    between atoms: C_11  and  C_17
REMARK    4  A    between atoms: C_17  and  O_18
REMARK    5  A    between atoms: C_20  and  C_21
REMARK    6  A    between atoms: C_21  and  N_22
REMARK    7  A    between atoms: C_21  and  C_26
REMARK    8  A    between atoms: C_26  and  C_30
REMARK                            x       y       z     vdW  Elec       q    Type
REMARK                         _______ _______ _______ _____ _____    ______ ____
ROOT
ATOM      1  O   UNL     1      34.297 -15.788 -24.153  0.00  0.00    -0.275 OA
ATOM      2  N   UNL     1      33.158 -13.843 -23.573  0.00  0.00    -0.276 N 
ATOM      3  N   UNL     1      33.406 -11.070 -23.555  0.00  0.00    -0.272 N 
ATOM      4  N   UNL     1      32.589  -9.402 -22.359  0.00  0.00    -0.379 NA
ATOM      5  C   UNL     1      33.520 -13.153 -24.820  0.00  0.00    +0.115 C 
ATOM      6  C   UNL     1      34.184 -11.814 -24.520  0.00  0.00    +0.115 C 
ATOM      7  C   UNL     1      32.262 -13.114 -22.654  0.00  0.00    +0.121 C 
ATOM      8  C   UNL     1      32.527 -11.651 -22.680  0.00  0.00    +0.154 C 
ATOM      9  C   UNL     1      33.549 -15.172 -23.389  0.00  0.00    +0.224 C 
ATOM     10  C   UNL     1      33.415  -9.728 -23.330  0.00  0.00    +0.256 C 
ATOM     11  C   UNL     1      32.034 -10.592 -21.950  0.00  0.00    +0.205 C 
ENDROOT
BRANCH  10  15
ATOM     12  F   UNL     1      34.959  -9.399 -25.108  0.00  0.00    -0.163 F 
ATOM     13  F   UNL     1      33.578  -7.771 -24.696  0.00  0.00    -0.163 F 
ATOM     14  F   UNL     1      35.223  -8.163 -23.339  0.00  0.00    -0.163 F 
ATOM     15  C   UNL     1      34.266  -8.793 -24.092  0.00  0.00    +0.460 C 
ENDBRANCH  10  15
BRANCH  11  17
ATOM     16  O   UNL     1      29.991 -11.298 -20.943  0.00  0.00    -0.242 OA
ATOM     17  C   UNL     1      31.067 -10.662 -20.896  0.00  0.00    +0.369 C 
BRANCH  17  18
ATOM     18  O   UNL     1      31.444  -9.938 -19.787  0.00  0.00    -0.440 OA
ATOM     19  C   UNL     1      31.444 -10.608 -18.522  0.00  0.00    +0.256 C 
ENDBRANCH  17  18
ENDBRANCH  11  17
BRANCH   9  20
ATOM     20  C   UNL     1      33.009 -15.867 -22.164  0.00  0.00    +0.064 C 
BRANCH  20  21
ATOM     21  C   UNL     1      34.067 -16.749 -21.501  0.00  0.00    -0.052 C 
BRANCH  21  22
ATOM     22  N   UNL     1      35.339 -16.018 -21.559  0.00  0.00    +0.382 N 
ATOM     23  H   UNL     1      35.236 -15.118 -21.090  0.00  0.00    -0.089 HD
ATOM     24  H   UNL     1      35.600 -15.865 -22.533  0.00  0.00    -0.089 HD
ATOM     25  H   UNL     1      36.066 -16.562 -21.095  0.00  0.00    -0.089 HD
ENDBRANCH  21  22
BRANCH  21  26
ATOM     26  C   UNL     1      34.256 -18.113 -22.202  0.00  0.00    +0.007 C 
BRANCH  26  30
ATOM     27  F   UNL     1      32.062 -19.387 -20.933  0.00  0.00    -0.204 F 
ATOM     28  F   UNL     1      37.049 -21.353 -19.850  0.00  0.00    -0.202 F 
ATOM     29  F   UNL     1      34.846 -22.488 -18.694  0.00  0.00    -0.202 F 
ATOM     30  C   UNL     1      34.411 -19.285 -21.262  0.00  0.00    +0.006 C 
ATOM     31  C   UNL     1      33.288 -19.864 -20.672  0.00  0.00    +0.138 C 
ATOM     32  C   UNL     1      35.682 -19.787 -20.984  0.00  0.00    +0.030 C 
ATOM     33  C   UNL     1      35.829 -20.870 -20.117  0.00  0.00    +0.167 C 
ATOM     34  C   UNL     1      33.435 -20.946 -19.804  0.00  0.00    +0.061 C 
ATOM     35  C   UNL     1      34.706 -21.448 -19.527  0.00  0.00    +0.170 C 
ENDBRANCH  26  30
ENDBRANCH  21  26
ENDBRANCH  20  21
ENDBRANCH   9  20
TORSDOF 8
ENDMDL
MODEL 9
REMARK VINA RESULT:      -9.9      8.685     12.500
REMARK  Name = 44193830
REMARK  8 active torsions:
REMARK  status: ('A' for Active; 'I' for Inactive)
REMARK    1  A    between atoms: C_9  and  C_20
REMARK    2  A    between atoms: C_10  and  C_15
REMARK    3  A    between atoms: C_11  and  C_17
REMARK    4  A    between atoms: C_17  and  O_18
REMARK    5  A    between atoms: C_20  and  C_21
REMARK    6  A    between atoms: C_21  and  N_22
REMARK    7  A    between atoms: C_21  and  C_26
REMARK    8  A    between atoms: C_26  and  C_30
REMARK                            x       y       z     vdW  Elec       q    Type
REMARK                         _______ _______ _______ _____ _____    ______ ____
ROOT
ATOM      1  O   UNL     1      32.257 -10.586 -21.214  0.00  0.00    -0.275 OA
ATOM      2  N   UNL     1      32.393 -12.523 -22.496  0.00  0.00    -0.276 N 
ATOM      3  N   UNL     1      33.661 -15.000 -22.614  0.00  0.00    -0.272 N 
ATOM      4  N   UNL     1      34.244 -16.420 -24.202  0.00  0.00    -0.379 NA
ATOM      5  C   UNL     1      32.334 -13.410 -21.324  0.00  0.00    +0.115 C 
ATOM      6  C   UNL     1      33.515 -14.374 -21.318  0.00  0.00    +0.115 C 
ATOM      7  C   UNL     1      32.419 -13.181 -23.817  0.00  0.00    +0.121 C 
ATOM      8  C   UNL     1      33.176 -14.460 -23.776  0.00  0.00    +0.154 C 
ATOM      9  C   UNL     1      32.280 -11.142 -22.314  0.00  0.00    +0.224 C 
ATOM     10  C   UNL     1      34.292 -16.167 -22.912  0.00  0.00    +0.256 C 
ATOM     11  C   UNL     1      33.551 -15.364 -24.746  0.00  0.00    +0.205 C 
ENDROOT
BRANCH  10  15
ATOM     12  F   UNL     1      36.109 -17.586 -22.330  0.00  0.00    -0.163 F 
ATOM     13  F   UNL     1      35.298 -16.335 -20.748  0.00  0.00    -0.163 F 
ATOM     14  F   UNL     1      34.178 -18.054 -21.447  0.00  0.00    -0.163 F 
ATOM     15  C   UNL     1      34.947 -17.008 -21.890  0.00  0.00    +0.460 C 
ENDBRANCH  10  15
BRANCH  11  17
ATOM     16  O   UNL     1      32.486 -15.997 -26.783  0.00  0.00    -0.242 OA
ATOM     17  C   UNL     1      33.281 -15.268 -26.149  0.00  0.00    +0.369 C 
BRANCH  17  18
ATOM     18  O   UNL     1      34.002 -14.264 -26.757  0.00  0.00    -0.440 OA
ATOM     19  C   UNL     1      33.274 -13.164 -27.311  0.00  0.00    +0.256 C 
ENDBRANCH  17  18
ENDBRANCH  11  17
BRANCH   9  20
ATOM     20  C   UNL     1      32.187 -10.307 -23.567  0.00  0.00    +0.064 C 
BRANCH  20  21
ATOM     21  C   UNL     1      33.520  -9.636 -23.899  0.00  0.00    -0.052 C 
BRANCH  21  22
ATOM     22  N   UNL     1      34.544 -10.689 -23.913  0.00  0.00    +0.382 N 
ATOM     23  H   UNL     1      34.092 -11.603 -23.918  0.00  0.00    -0.089 HD
ATOM     24  H   UNL     1      35.130 -10.605 -23.082  0.00  0.00    -0.089 HD
ATOM     25  H   UNL     1      35.122 -10.591 -24.747  0.00  0.00    -0.089 HD
ENDBRANCH  21  22
BRANCH  21  26
ATOM     26  C   UNL     1      33.940  -8.561 -22.871  0.00  0.00    +0.007 C 
BRANCH  26  30
ATOM     27  F   UNL     1      33.130  -7.705 -20.292  0.00  0.00    -0.204 F 
ATOM     28  F   UNL     1      30.801  -5.236 -24.580  0.00  0.00    -0.202 F 
ATOM     29  F   UNL     1      30.111  -4.507 -22.036  0.00  0.00    -0.202 F 
ATOM     30  C   UNL     1      32.915  -7.476 -22.645  0.00  0.00    +0.006 C 
ATOM     31  C   UNL     1      32.563  -7.104 -21.348  0.00  0.00    +0.138 C 
ATOM     32  C   UNL     1      32.320  -6.845 -23.737  0.00  0.00    +0.030 C 
ATOM     33  C   UNL     1      31.373  -5.842 -23.531  0.00  0.00    +0.167 C 
ATOM     34  C   UNL     1      31.615  -6.101 -21.142  0.00  0.00    +0.061 C 
ATOM     35  C   UNL     1      31.021  -5.470 -22.234  0.00  0.00    +0.170 C 
ENDBRANCH  26  30
ENDBRANCH  21  26
ENDBRANCH  20  21
ENDBRANCH   9  20
TORSDOF 8
ENDMDL
