MODEL 1
REMARK VINA RESULT:      -8.0      0.000      0.000
REMARK  Name = 100802
REMARK  4 active torsions:
REMARK  status: ('A' for Active; 'I' for Inactive)
REMARK    1  A    between atoms: N_3  and  C1*_15
REMARK    2  A    between atoms: C3*_13  and  O3*_17
REMARK    3  A    between atoms: C4*_16  and  C5*_19
REMARK    4  A    between atoms: C5*_19  and  O5*_20
REMARK                            x       y       z     vdW  Elec       q    Type
REMARK                         _______ _______ _______ _____ _____    ______ ____
ROOT
ATOM      1 CL   UNL     1      32.190 -23.993 -15.062  0.00  0.00    -0.077 Cl
ATOM      2  O   UNL     1      37.405 -22.324 -16.790  0.00  0.00    -0.193 OA
ATOM      3  N   UNL     1      36.062 -23.081 -15.074  0.00  0.00    -0.179 N 
ATOM      4  N   UNL     1      35.228 -22.702 -17.304  0.00  0.00    -0.305 NA
ATOM      5  N   UNL     1      33.010 -23.080 -17.857  0.00  0.00    -0.331 N 
ATOM      6  C   UNL     1      34.792 -23.479 -14.684  0.00  0.00    +0.095 C 
ATOM      7  C   UNL     1      36.287 -22.683 -16.415  0.00  0.00    +0.275 C 
ATOM      8  C   UNL     1      33.762 -23.504 -15.529  0.00  0.00    +0.118 C 
ATOM      9  C   UNL     1      34.030 -23.079 -16.932  0.00  0.00    +0.203 C 
ATOM     10  H   UNL     1      33.185 -22.800 -18.783  0.00  0.00    +0.145 HD
ATOM     11  H   UNL     1      32.105 -23.361 -17.589  0.00  0.00    +0.145 HD
ENDROOT
BRANCH   3  15
ATOM     12  O4* UNL     1      37.982 -24.199 -14.341  0.00  0.00    -0.334 OA
ATOM     13  C3* UNL     1      37.696 -23.996 -11.997  0.00  0.00    +0.144 C 
ATOM     14  C2* UNL     1      36.593 -23.218 -12.676  0.00  0.00    +0.084 C 
ATOM     15  C1* UNL     1      37.112 -23.085 -14.098  0.00  0.00    +0.209 C 
ATOM     16  C4* UNL     1      38.211 -24.904 -13.106  0.00  0.00    +0.173 C 
BRANCH  13  17
ATOM     17  O3* UNL     1      38.729 -23.105 -11.582  0.00  0.00    -0.382 OA
ATOM     18  H3* UNL     1      38.564 -22.822 -10.668  0.00  0.00    +0.210 HD
ENDBRANCH  13  17
BRANCH  16  19
ATOM     19  C5* UNL     1      37.466 -26.230 -13.179  0.00  0.00    +0.169 C 
BRANCH  19  20
ATOM     20  O5* UNL     1      36.854 -26.482 -11.923  0.00  0.00    -0.379 OA
ATOM     21  H5* UNL     1      37.507 -26.365 -11.216  0.00  0.00    +0.211 HD
ENDBRANCH  19  20
ENDBRANCH  16  19
ENDBRANCH   3  15
TORSDOF 4
ENDMDL
MODEL 2
REMARK VINA RESULT:      -7.7      2.010      2.770
REMARK  Name = 100802
REMARK  4 active torsions:
REMARK  status: ('A' for Active; 'I' for Inactive)
REMARK    1  A    between atoms: N_3  and  C1*_15
REMARK    2  A    between atoms: C3*_13  and  O3*_17
REMARK    3  A    between atoms: C4*_16  and  C5*_19
REMARK    4  A    between atoms: C5*_19  and  O5*_20
REMARK                            x       y       z     vdW  Elec       q    Type
REMARK                         _______ _______ _______ _____ _____    ______ ____
ROOT
ATOM      1 CL   UNL     1      30.506 -23.306 -13.975  0.00  0.00    -0.077 Cl
ATOM      2  O   UNL     1      34.294 -23.156 -18.287  0.00  0.00    -0.193 OA
ATOM      3  N   UNL     1      33.894 -23.530 -16.046  0.00  0.00    -0.179 N 
ATOM      4  N   UNL     1      32.153 -22.892 -17.585  0.00  0.00    -0.305 NA
ATOM      5  N   UNL     1      29.958 -22.615 -16.896  0.00  0.00    -0.331 N 
ATOM      6  C   UNL     1      32.959 -23.558 -15.024  0.00  0.00    +0.095 C 
ATOM      7  C   UNL     1      33.485 -23.190 -17.358  0.00  0.00    +0.275 C 
ATOM      8  C   UNL     1      31.673 -23.275 -15.227  0.00  0.00    +0.118 C 
ATOM      9  C   UNL     1      31.272 -22.920 -16.617  0.00  0.00    +0.203 C 
ATOM     10  H   UNL     1      29.692 -22.380 -17.813  0.00  0.00    +0.145 HD
ATOM     11  H   UNL     1      29.286 -22.632 -16.177  0.00  0.00    +0.145 HD
ENDROOT
BRANCH   3  15
ATOM     12  O4* UNL     1      35.291 -24.793 -14.656  0.00  0.00    -0.334 OA
ATOM     13  C3* UNL     1      37.038 -23.227 -14.311  0.00  0.00    +0.144 C 
ATOM     14  C2* UNL     1      36.063 -22.636 -15.303  0.00  0.00    +0.084 C 
ATOM     15  C1* UNL     1      35.258 -23.849 -15.736  0.00  0.00    +0.209 C 
ATOM     16  C4* UNL     1      36.233 -24.345 -13.662  0.00  0.00    +0.173 C 
BRANCH  13  17
ATOM     17  O3* UNL     1      38.156 -23.775 -15.005  0.00  0.00    -0.382 OA
ATOM     18  H3* UNL     1      37.897 -24.608 -15.430  0.00  0.00    +0.210 HD
ENDBRANCH  13  17
BRANCH  16  19
ATOM     19  C5* UNL     1      35.445 -23.878 -12.446  0.00  0.00    +0.169 C 
BRANCH  19  20
ATOM     20  O5* UNL     1      34.643 -24.952 -11.980  0.00  0.00    -0.379 OA
ATOM     21  H5* UNL     1      34.030 -24.627 -11.301  0.00  0.00    +0.211 HD
ENDBRANCH  19  20
ENDBRANCH  16  19
ENDBRANCH   3  15
TORSDOF 4
ENDMDL
MODEL 3
REMARK VINA RESULT:      -7.6      2.099      2.485
REMARK  Name = 100802
REMARK  4 active torsions:
REMARK  status: ('A' for Active; 'I' for Inactive)
REMARK    1  A    between atoms: N_3  and  C1*_15
REMARK    2  A    between atoms: C3*_13  and  O3*_17
REMARK    3  A    between atoms: C4*_16  and  C5*_19
REMARK    4  A    between atoms: C5*_19  and  O5*_20
REMARK                            x       y       z     vdW  Elec       q    Type
REMARK                         _______ _______ _______ _____ _____    ______ ____
ROOT
ATOM      1 CL   UNL     1      30.841 -24.648 -13.367  0.00  0.00    -0.077 Cl
ATOM      2  O   UNL     1      34.574 -22.875 -17.353  0.00  0.00    -0.193 OA
ATOM      3  N   UNL     1      34.223 -23.657 -15.212  0.00  0.00    -0.179 N 
ATOM      4  N   UNL     1      32.422 -23.298 -16.773  0.00  0.00    -0.305 NA
ATOM      5  N   UNL     1      30.216 -23.722 -16.207  0.00  0.00    -0.331 N 
ATOM      6  C   UNL     1      33.300 -24.081 -14.269  0.00  0.00    +0.095 C 
ATOM      7  C   UNL     1      33.777 -23.256 -16.495  0.00  0.00    +0.275 C 
ATOM      8  C   UNL     1      31.993 -24.127 -14.522  0.00  0.00    +0.118 C 
ATOM      9  C   UNL     1      31.553 -23.699 -15.879  0.00  0.00    +0.203 C 
ATOM     10  H   UNL     1      29.924 -23.439 -17.103  0.00  0.00    +0.145 HD
ATOM     11  H   UNL     1      29.552 -24.021 -15.544  0.00  0.00    +0.145 HD
ENDROOT
BRANCH   3  15
ATOM     12  O4* UNL     1      36.343 -24.498 -15.739  0.00  0.00    -0.334 OA
ATOM     13  C3* UNL     1      37.213 -24.793 -13.553  0.00  0.00    +0.144 C 
ATOM     14  C2* UNL     1      35.860 -24.131 -13.437  0.00  0.00    +0.084 C 
ATOM     15  C1* UNL     1      35.612 -23.639 -14.852  0.00  0.00    +0.209 C 
ATOM     16  C4* UNL     1      37.198 -25.362 -14.966  0.00  0.00    +0.173 C 
BRANCH  13  17
ATOM     17  O3* UNL     1      38.241 -23.812 -13.438  0.00  0.00    -0.382 OA
ATOM     18  H3* UNL     1      38.840 -23.880 -14.199  0.00  0.00    +0.210 HD
ENDBRANCH  13  17
BRANCH  16  19
ATOM     19  C5* UNL     1      36.622 -26.771 -15.030  0.00  0.00    +0.169 C 
BRANCH  19  20
ATOM     20  O5* UNL     1      36.851 -27.300 -16.327  0.00  0.00    -0.379 OA
ATOM     21  H5* UNL     1      36.872 -28.269 -16.281  0.00  0.00    +0.211 HD
ENDBRANCH  19  20
ENDBRANCH  16  19
ENDBRANCH   3  15
TORSDOF 4
ENDMDL
MODEL 4
REMARK VINA RESULT:      -7.5      2.403      3.595
REMARK  Name = 100802
REMARK  4 active torsions:
REMARK  status: ('A' for Active; 'I' for Inactive)
REMARK    1  A    between atoms: N_3  and  C1*_15
REMARK    2  A    between atoms: C3*_13  and  O3*_17
REMARK    3  A    between atoms: C4*_16  and  C5*_19
REMARK    4  A    between atoms: C5*_19  and  O5*_20
REMARK                            x       y       z     vdW  Elec       q    Type
REMARK                         _______ _______ _______ _____ _____    ______ ____
ROOT
ATOM      1 CL   UNL     1      33.159 -22.411 -18.400  0.00  0.00    -0.077 Cl
ATOM      2  O   UNL     1      32.352 -24.702 -13.197  0.00  0.00    -0.193 OA
ATOM      3  N   UNL     1      33.826 -24.138 -14.879  0.00  0.00    -0.179 N 
ATOM      4  N   UNL     1      31.457 -23.721 -15.037  0.00  0.00    -0.305 NA
ATOM      5  N   UNL     1      30.518 -22.721 -16.903  0.00  0.00    -0.331 N 
ATOM      6  C   UNL     1      33.993 -23.580 -16.137  0.00  0.00    +0.095 C 
ATOM      7  C   UNL     1      32.530 -24.211 -14.314  0.00  0.00    +0.275 C 
ATOM      8  C   UNL     1      32.970 -23.103 -16.846  0.00  0.00    +0.118 C 
ATOM      9  C   UNL     1      31.618 -23.194 -16.225  0.00  0.00    +0.203 C 
ATOM     10  H   UNL     1      29.625 -22.781 -16.495  0.00  0.00    +0.145 HD
ATOM     11  H   UNL     1      30.625 -22.322 -17.798  0.00  0.00    +0.145 HD
ENDROOT
BRANCH   3  15
ATOM     12  O4* UNL     1      35.831 -23.522 -13.840  0.00  0.00    -0.334 OA
ATOM     13  C3* UNL     1      37.218 -25.310 -14.550  0.00  0.00    +0.144 C 
ATOM     14  C2* UNL     1      35.811 -25.585 -15.029  0.00  0.00    +0.084 C 
ATOM     15  C1* UNL     1      34.984 -24.627 -14.188  0.00  0.00    +0.209 C 
ATOM     16  C4* UNL     1      37.186 -23.822 -14.225  0.00  0.00    +0.173 C 
BRANCH  13  17
ATOM     17  O3* UNL     1      37.477 -26.058 -13.364  0.00  0.00    -0.382 OA
ATOM     18  H3* UNL     1      37.761 -26.955 -13.604  0.00  0.00    +0.210 HD
ENDBRANCH  13  17
BRANCH  16  19
ATOM     19  C5* UNL     1      37.538 -22.948 -15.422  0.00  0.00    +0.169 C 
BRANCH  19  20
ATOM     20  O5* UNL     1      38.746 -23.422 -15.997  0.00  0.00    -0.379 OA
ATOM     21  H5* UNL     1      39.469 -23.319 -15.359  0.00  0.00    +0.211 HD
ENDBRANCH  19  20
ENDBRANCH  16  19
ENDBRANCH   3  15
TORSDOF 4
ENDMDL
MODEL 5
REMARK VINA RESULT:      -7.5      9.030     10.988
REMARK  Name = 100802
REMARK  4 active torsions:
REMARK  status: ('A' for Active; 'I' for Inactive)
REMARK    1  A    between atoms: N_3  and  C1*_15
REMARK    2  A    between atoms: C3*_13  and  O3*_17
REMARK    3  A    between atoms: C4*_16  and  C5*_19
REMARK    4  A    between atoms: C5*_19  and  O5*_20
REMARK                            x       y       z     vdW  Elec       q    Type
REMARK                         _______ _______ _______ _____ _____    ______ ____
ROOT
ATOM      1 CL   UNL     1      33.454 -13.434 -23.213  0.00  0.00    -0.077 Cl
ATOM      2  O   UNL     1      34.612 -18.511 -25.632  0.00  0.00    -0.193 OA
ATOM      3  N   UNL     1      34.735 -17.159 -23.767  0.00  0.00    -0.179 N 
ATOM      4  N   UNL     1      33.719 -16.434 -25.830  0.00  0.00    -0.305 NA
ATOM      5  N   UNL     1      32.801 -14.320 -26.060  0.00  0.00    -0.331 N 
ATOM      6  C   UNL     1      34.443 -15.924 -23.208  0.00  0.00    +0.095 C 
ATOM      7  C   UNL     1      34.365 -17.423 -25.109  0.00  0.00    +0.275 C 
ATOM      8  C   UNL     1      33.821 -14.963 -23.889  0.00  0.00    +0.118 C 
ATOM      9  C   UNL     1      33.445 -15.269 -25.298  0.00  0.00    +0.203 C 
ATOM     10  H   UNL     1      32.552 -14.521 -26.990  0.00  0.00    +0.145 HD
ATOM     11  H   UNL     1      32.589 -13.440 -25.672  0.00  0.00    +0.145 HD
ENDROOT
BRANCH   3  15
ATOM     12  O4* UNL     1      34.596 -19.315 -22.867  0.00  0.00    -0.334 OA
ATOM     13  C3* UNL     1      35.563 -18.924 -20.738  0.00  0.00    +0.144 C 
ATOM     14  C2* UNL     1      35.667 -17.651 -21.544  0.00  0.00    +0.084 C 
ATOM     15  C1* UNL     1      35.407 -18.135 -22.960  0.00  0.00    +0.209 C 
ATOM     16  C4* UNL     1      34.505 -19.722 -21.488  0.00  0.00    +0.173 C 
BRANCH  13  17
ATOM     17  O3* UNL     1      36.809 -19.618 -20.774  0.00  0.00    -0.382 OA
ATOM     18  H3* UNL     1      36.774 -20.375 -20.167  0.00  0.00    +0.210 HD
ENDBRANCH  13  17
BRANCH  16  19
ATOM     19  C5* UNL     1      33.091 -19.429 -21.006  0.00  0.00    +0.169 C 
BRANCH  19  20
ATOM     20  O5* UNL     1      32.651 -20.507 -20.194  0.00  0.00    -0.379 OA
ATOM     21  H5* UNL     1      33.341 -20.729 -19.550  0.00  0.00    +0.211 HD
ENDBRANCH  19  20
ENDBRANCH  16  19
ENDBRANCH   3  15
TORSDOF 4
ENDMDL
MODEL 6
REMARK VINA RESULT:      -7.4      2.598      3.539
REMARK  Name = 100802
REMARK  4 active torsions:
REMARK  status: ('A' for Active; 'I' for Inactive)
REMARK    1  A    between atoms: N_3  and  C1*_15
REMARK    2  A    between atoms: C3*_13  and  O3*_17
REMARK    3  A    between atoms: C4*_16  and  C5*_19
REMARK    4  A    between atoms: C5*_19  and  O5*_20
REMARK                            x       y       z     vdW  Elec       q    Type
REMARK                         _______ _______ _______ _____ _____    ______ ____
ROOT
ATOM      1 CL   UNL     1      35.910 -21.420 -19.621  0.00  0.00    -0.077 Cl
ATOM      2  O   UNL     1      32.097 -23.698 -15.982  0.00  0.00    -0.193 OA
ATOM      3  N   UNL     1      34.295 -23.156 -16.427  0.00  0.00    -0.179 N 
ATOM      4  N   UNL     1      32.507 -22.704 -17.980  0.00  0.00    -0.305 NA
ATOM      5  N   UNL     1      32.897 -21.691 -20.026  0.00  0.00    -0.331 N 
ATOM      6  C   UNL     1      35.193 -22.601 -17.325  0.00  0.00    +0.095 C 
ATOM      7  C   UNL     1      32.919 -23.210 -16.760  0.00  0.00    +0.275 C 
ATOM      8  C   UNL     1      34.812 -22.109 -18.503  0.00  0.00    +0.118 C 
ATOM      9  C   UNL     1      33.359 -22.180 -18.825  0.00  0.00    +0.203 C 
ATOM     10  H   UNL     1      31.938 -21.738 -20.240  0.00  0.00    +0.145 HD
ATOM     11  H   UNL     1      33.527 -21.294 -20.671  0.00  0.00    +0.145 HD
ENDROOT
BRANCH   3  15
ATOM     12  O4* UNL     1      35.869 -22.827 -14.727  0.00  0.00    -0.334 OA
ATOM     13  C3* UNL     1      36.456 -25.080 -14.281  0.00  0.00    +0.144 C 
ATOM     14  C2* UNL     1      35.336 -25.077 -15.295  0.00  0.00    +0.084 C 
ATOM     15  C1* UNL     1      34.794 -23.662 -15.182  0.00  0.00    +0.209 C 
ATOM     16  C4* UNL     1      36.985 -23.654 -14.347  0.00  0.00    +0.173 C 
BRANCH  13  17
ATOM     17  O3* UNL     1      35.928 -25.341 -12.982  0.00  0.00    -0.382 OA
ATOM     18  H3* UNL     1      35.569 -26.243 -12.954  0.00  0.00    +0.210 HD
ENDBRANCH  13  17
BRANCH  16  19
ATOM     19  C5* UNL     1      38.078 -23.476 -15.393  0.00  0.00    +0.169 C 
BRANCH  19  20
ATOM     20  O5* UNL     1      39.059 -24.484 -15.207  0.00  0.00    -0.379 OA
ATOM     21  H5* UNL     1      38.887 -24.953 -14.375  0.00  0.00    +0.211 HD
ENDBRANCH  19  20
ENDBRANCH  16  19
ENDBRANCH   3  15
TORSDOF 4
ENDMDL
MODEL 7
REMARK VINA RESULT:      -7.3      1.772      2.130
REMARK  Name = 100802
REMARK  4 active torsions:
REMARK  status: ('A' for Active; 'I' for Inactive)
REMARK    1  A    between atoms: N_3  and  C1*_15
REMARK    2  A    between atoms: C3*_13  and  O3*_17
REMARK    3  A    between atoms: C4*_16  and  C5*_19
REMARK    4  A    between atoms: C5*_19  and  O5*_20
REMARK                            x       y       z     vdW  Elec       q    Type
REMARK                         _______ _______ _______ _____ _____    ______ ____
ROOT
ATOM      1 CL   UNL     1      31.012 -24.439 -13.455  0.00  0.00    -0.077 Cl
ATOM      2  O   UNL     1      35.650 -23.234 -16.617  0.00  0.00    -0.193 OA
ATOM      3  N   UNL     1      34.788 -24.081 -14.653  0.00  0.00    -0.179 N 
ATOM      4  N   UNL     1      33.390 -23.215 -16.415  0.00  0.00    -0.305 NA
ATOM      5  N   UNL     1      31.081 -23.183 -16.235  0.00  0.00    -0.331 N 
ATOM      6  C   UNL     1      33.651 -24.362 -13.911  0.00  0.00    +0.095 C 
ATOM      7  C   UNL     1      34.657 -23.495 -15.935  0.00  0.00    +0.275 C 
ATOM      8  C   UNL     1      32.424 -24.099 -14.359  0.00  0.00    +0.118 C 
ATOM      9  C   UNL     1      32.318 -23.481 -15.711  0.00  0.00    +0.203 C 
ATOM     10  H   UNL     1      31.010 -22.774 -17.127  0.00  0.00    +0.145 HD
ATOM     11  H   UNL     1      30.267 -23.378 -15.716  0.00  0.00    +0.145 HD
ENDROOT
BRANCH   3  15
ATOM     12  O4* UNL     1      35.886 -25.192 -12.909  0.00  0.00    -0.334 OA
ATOM     13  C3* UNL     1      37.635 -23.648 -12.487  0.00  0.00    +0.144 C 
ATOM     14  C2* UNL     1      36.857 -23.163 -13.689  0.00  0.00    +0.084 C 
ATOM     15  C1* UNL     1      36.068 -24.398 -14.090  0.00  0.00    +0.209 C 
ATOM     16  C4* UNL     1      36.683 -24.646 -11.841  0.00  0.00    +0.173 C 
BRANCH  13  17
ATOM     17  O3* UNL     1      38.818 -24.316 -12.918  0.00  0.00    -0.382 OA
ATOM     18  H3* UNL     1      39.005 -24.081 -13.841  0.00  0.00    +0.210 HD
ENDBRANCH  13  17
BRANCH  16  19
ATOM     19  C5* UNL     1      35.740 -23.999 -10.835  0.00  0.00    +0.169 C 
BRANCH  19  20
ATOM     20  O5* UNL     1      35.331 -24.979  -9.895  0.00  0.00    -0.379 OA
ATOM     21  H5* UNL     1      34.453 -25.313 -10.137  0.00  0.00    +0.211 HD
ENDBRANCH  19  20
ENDBRANCH  16  19
ENDBRANCH   3  15
TORSDOF 4
ENDMDL
MODEL 8
REMARK VINA RESULT:      -7.3      7.499     10.482
REMARK  Name = 100802
REMARK  4 active torsions:
REMARK  status: ('A' for Active; 'I' for Inactive)
REMARK    1  A    between atoms: N_3  and  C1*_15
REMARK    2  A    between atoms: C3*_13  and  O3*_17
REMARK    3  A    between atoms: C4*_16  and  C5*_19
REMARK    4  A    between atoms: C5*_19  and  O5*_20
REMARK                            x       y       z     vdW  Elec       q    Type
REMARK                         _______ _______ _______ _____ _____    ______ ____
ROOT
ATOM      1 CL   UNL     1      33.029 -20.797 -20.037  0.00  0.00    -0.077 Cl
ATOM      2  O   UNL     1      38.032 -18.649 -21.860  0.00  0.00    -0.193 OA
ATOM      3  N   UNL     1      35.749 -18.804 -22.147  0.00  0.00    -0.179 N 
ATOM      4  N   UNL     1      36.912 -19.935 -20.364  0.00  0.00    -0.305 NA
ATOM      5  N   UNL     1      35.792 -21.252 -18.822  0.00  0.00    -0.331 N 
ATOM      6  C   UNL     1      34.555 -19.336 -21.685  0.00  0.00    +0.095 C 
ATOM      7  C   UNL     1      36.956 -19.108 -21.472  0.00  0.00    +0.275 C 
ATOM      8  C   UNL     1      34.495 -20.132 -20.619  0.00  0.00    +0.118 C 
ATOM      9  C   UNL     1      35.782 -20.435 -19.930  0.00  0.00    +0.203 C 
ATOM     10  H   UNL     1      36.640 -21.454 -18.367  0.00  0.00    +0.145 HD
ATOM     11  H   UNL     1      34.949 -21.635 -18.486  0.00  0.00    +0.145 HD
ENDROOT
BRANCH   3  15
ATOM     12  O4* UNL     1      35.724 -16.583 -22.885  0.00  0.00    -0.334 OA
ATOM     13  C3* UNL     1      34.229 -16.784 -24.714  0.00  0.00    +0.144 C 
ATOM     14  C2* UNL     1      34.480 -18.165 -24.156  0.00  0.00    +0.084 C 
ATOM     15  C1* UNL     1      35.719 -17.955 -23.303  0.00  0.00    +0.209 C 
ATOM     16  C4* UNL     1      34.689 -15.868 -23.588  0.00  0.00    +0.173 C 
BRANCH  13  17
ATOM     17  O3* UNL     1      35.040 -16.577 -25.868  0.00  0.00    -0.382 OA
ATOM     18  H3* UNL     1      35.818 -16.047 -25.626  0.00  0.00    +0.210 HD
ENDBRANCH  13  17
BRANCH  16  19
ATOM     19  C5* UNL     1      33.581 -15.550 -22.593  0.00  0.00    +0.169 C 
BRANCH  19  20
ATOM     20  O5* UNL     1      34.094 -15.683 -21.277  0.00  0.00    -0.379 OA
ATOM     21  H5* UNL     1      33.461 -15.308 -20.644  0.00  0.00    +0.211 HD
ENDBRANCH  19  20
ENDBRANCH  16  19
ENDBRANCH   3  15
TORSDOF 4
ENDMDL
MODEL 9
REMARK VINA RESULT:      -7.1      1.873      2.244
REMARK  Name = 100802
REMARK  4 active torsions:
REMARK  status: ('A' for Active; 'I' for Inactive)
REMARK    1  A    between atoms: N_3  and  C1*_15
REMARK    2  A    between atoms: C3*_13  and  O3*_17
REMARK    3  A    between atoms: C4*_16  and  C5*_19
REMARK    4  A    between atoms: C5*_19  and  O5*_20
REMARK                            x       y       z     vdW  Elec       q    Type
REMARK                         _______ _______ _______ _____ _____    ______ ____
ROOT
ATOM      1 CL   UNL     1      36.450 -21.183 -18.933  0.00  0.00    -0.077 Cl
ATOM      2  O   UNL     1      34.933 -24.376 -14.408  0.00  0.00    -0.193 OA
ATOM      3  N   UNL     1      36.506 -23.012 -15.401  0.00  0.00    -0.179 N 
ATOM      4  N   UNL     1      34.416 -23.569 -16.465  0.00  0.00    -0.305 NA
ATOM      5  N   UNL     1      33.863 -22.760 -18.564  0.00  0.00    -0.331 N 
ATOM      6  C   UNL     1      36.847 -22.248 -16.506  0.00  0.00    +0.095 C 
ATOM      7  C   UNL     1      35.263 -23.689 -15.377  0.00  0.00    +0.275 C 
ATOM      8  C   UNL     1      36.043 -22.122 -17.561  0.00  0.00    +0.118 C 
ATOM      9  C   UNL     1      34.742 -22.846 -17.507  0.00  0.00    +0.203 C 
ATOM     10  H   UNL     1      33.004 -23.238 -18.530  0.00  0.00    +0.145 HD
ATOM     11  H   UNL     1      34.096 -22.220 -19.354  0.00  0.00    +0.145 HD
ENDROOT
BRANCH   3  15
ATOM     12  O4* UNL     1      38.237 -24.272 -14.454  0.00  0.00    -0.334 OA
ATOM     13  C3* UNL     1      37.700 -24.030 -12.158  0.00  0.00    +0.144 C 
ATOM     14  C2* UNL     1      36.747 -23.173 -12.958  0.00  0.00    +0.084 C 
ATOM     15  C1* UNL     1      37.434 -23.091 -14.310  0.00  0.00    +0.209 C 
ATOM     16  C4* UNL     1      38.266 -24.983 -13.202  0.00  0.00    +0.173 C 
BRANCH  13  17
ATOM     17  O3* UNL     1      38.746 -23.219 -11.626  0.00  0.00    -0.382 OA
ATOM     18  H3* UNL     1      39.146 -22.697 -12.341  0.00  0.00    +0.210 HD
ENDBRANCH  13  17
BRANCH  16  19
ATOM     19  C5* UNL     1      37.433 -26.248 -13.362  0.00  0.00    +0.169 C 
BRANCH  19  20
ATOM     20  O5* UNL     1      36.847 -26.572 -12.111  0.00  0.00    -0.379 OA
ATOM     21  H5* UNL     1      37.500 -26.446 -11.405  0.00  0.00    +0.211 HD
ENDBRANCH  19  20
ENDBRANCH  16  19
ENDBRANCH   3  15
TORSDOF 4
ENDMDL
