MODEL 1
REMARK VINA RESULT:     -10.4      0.000      0.000
REMARK  Name = 9952125
REMARK  8 active torsions:
REMARK  status: ('A' for Active; 'I' for Inactive)
REMARK    1  A    between atoms: C_5  and  C_12
REMARK    2  A    between atoms: C_6  and  O_22
REMARK    3  A    between atoms: C_10  and  O_24
REMARK    4  A    between atoms: C_15  and  O_18
REMARK    5  A    between atoms: C_16  and  O_20
REMARK    6  A    between atoms: O_24  and  C_25
REMARK    7  A    between atoms: C_25  and  C_27
REMARK    8  A    between atoms: C_27  and  O_28
REMARK                            x       y       z     vdW  Elec       q    Type
REMARK                         _______ _______ _______ _____ _____    ______ ____
ROOT
ATOM      1  O   UNL     1      34.219 -17.231 -21.772  0.00  0.00    -0.453 OA
ATOM      2  O   UNL     1      34.644 -17.769 -25.787  0.00  0.00    -0.286 OA
ATOM      3  C   UNL     1      34.041 -16.324 -24.018  0.00  0.00    +0.108 C 
ATOM      4  C   UNL     1      33.920 -16.207 -22.634  0.00  0.00    +0.154 C 
ATOM      5  C   UNL     1      34.654 -18.436 -22.302  0.00  0.00    +0.149 C 
ATOM      6  C   UNL     1      33.723 -15.247 -24.848  0.00  0.00    +0.148 C 
ATOM      7  C   UNL     1      34.511 -17.598 -24.584  0.00  0.00    +0.205 C 
ATOM      8  C   UNL     1      34.818 -18.669 -23.614  0.00  0.00    +0.080 C 
ATOM      9  C   UNL     1      33.478 -15.009 -22.071  0.00  0.00    +0.075 C 
ATOM     10  C   UNL     1      33.159 -13.932 -22.897  0.00  0.00    +0.145 C 
ATOM     11  C   UNL     1      33.281 -14.051 -24.283  0.00  0.00    +0.074 C 
ENDROOT
BRANCH   5  12
ATOM     12  C   UNL     1      34.953 -19.466 -21.287  0.00  0.00    +0.038 C 
ATOM     13  C   UNL     1      33.966 -20.373 -20.895  0.00  0.00    +0.043 C 
ATOM     14  C   UNL     1      36.225 -19.537 -20.713  0.00  0.00    +0.006 C 
ATOM     15  C   UNL     1      34.248 -21.346 -19.937  0.00  0.00    +0.172 C 
ATOM     16  C   UNL     1      35.520 -21.414 -19.366  0.00  0.00    +0.172 C 
ATOM     17  C   UNL     1      36.508 -20.510 -19.754  0.00  0.00    +0.040 C 
BRANCH  15  18
ATOM     18  O   UNL     1      33.275 -22.224 -19.564  0.00  0.00    -0.468 OA
ATOM     19  C   UNL     1      32.891 -22.221 -18.190  0.00  0.00    +0.253 C 
ENDBRANCH  15  18
BRANCH  16  20
ATOM     20  O   UNL     1      35.808 -22.361 -18.430  0.00  0.00    -0.468 OA
ATOM     21  C   UNL     1      36.674 -21.976 -17.365  0.00  0.00    +0.253 C 
ENDBRANCH  16  20
ENDBRANCH   5  12
BRANCH   6  22
ATOM     22  O   UNL     1      33.828 -15.311 -26.204  0.00  0.00    -0.471 OA
ATOM     23  C   UNL     1      33.177 -14.286 -26.953  0.00  0.00    +0.252 C 
ENDBRANCH   6  22
BRANCH  10  24
ATOM     24  O   UNL     1      32.726 -12.763 -22.351  0.00  0.00    -0.464 OA
BRANCH  24  25
ATOM     25  C   UNL     1      32.069 -12.840 -21.086  0.00  0.00    +0.314 C 
BRANCH  25  27
ATOM     26  O   UNL     1      31.064 -10.993 -19.870  0.00  0.00    -0.246 OA
ATOM     27  C   UNL     1      31.183 -11.640 -20.899  0.00  0.00    +0.359 C 
BRANCH  27  28
ATOM     28  O   UNL     1      30.518 -11.365 -22.049  0.00  0.00    -0.478 OA
ATOM     29  H   UNL     1      29.676 -11.745 -22.206  0.00  0.00    +0.295 HD
ENDBRANCH  27  28
ENDBRANCH  25  27
ENDBRANCH  24  25
ENDBRANCH  10  24
TORSDOF 8
ENDMDL
MODEL 2
REMARK VINA RESULT:     -10.3      2.694      9.973
REMARK  Name = 9952125
REMARK  8 active torsions:
REMARK  status: ('A' for Active; 'I' for Inactive)
REMARK    1  A    between atoms: C_5  and  C_12
REMARK    2  A    between atoms: C_6  and  O_22
REMARK    3  A    between atoms: C_10  and  O_24
REMARK    4  A    between atoms: C_15  and  O_18
REMARK    5  A    between atoms: C_16  and  O_20
REMARK    6  A    between atoms: O_24  and  C_25
REMARK    7  A    between atoms: C_25  and  C_27
REMARK    8  A    between atoms: C_27  and  O_28
REMARK                            x       y       z     vdW  Elec       q    Type
REMARK                         _______ _______ _______ _____ _____    ______ ____
ROOT
ATOM      1  O   UNL     1      35.786 -20.651 -19.455  0.00  0.00    -0.453 OA
ATOM      2  O   UNL     1      32.268 -22.463 -18.488  0.00  0.00    -0.286 OA
ATOM      3  C   UNL     1      34.564 -22.175 -18.011  0.00  0.00    +0.108 C 
ATOM      4  C   UNL     1      35.733 -21.521 -18.396  0.00  0.00    +0.154 C 
ATOM      5  C   UNL     1      34.626 -20.421 -20.179  0.00  0.00    +0.149 C 
ATOM      6  C   UNL     1      34.568 -23.050 -16.923  0.00  0.00    +0.148 C 
ATOM      7  C   UNL     1      33.329 -21.926 -18.772  0.00  0.00    +0.205 C 
ATOM      8  C   UNL     1      33.439 -20.984 -19.904  0.00  0.00    +0.080 C 
ATOM      9  C   UNL     1      36.917 -21.738 -17.691  0.00  0.00    +0.075 C 
ATOM     10  C   UNL     1      36.926 -22.611 -16.603  0.00  0.00    +0.145 C 
ATOM     11  C   UNL     1      35.754 -23.266 -16.220  0.00  0.00    +0.074 C 
ENDROOT
BRANCH   5  12
ATOM     12  C   UNL     1      34.793 -19.465 -21.293  0.00  0.00    +0.038 C 
ATOM     13  C   UNL     1      34.837 -18.093 -21.041  0.00  0.00    +0.043 C 
ATOM     14  C   UNL     1      34.908 -19.932 -22.605  0.00  0.00    +0.006 C 
ATOM     15  C   UNL     1      34.996 -17.191 -22.093  0.00  0.00    +0.172 C 
ATOM     16  C   UNL     1      35.111 -17.661 -23.402  0.00  0.00    +0.172 C 
ATOM     17  C   UNL     1      35.067 -19.031 -23.658  0.00  0.00    +0.040 C 
BRANCH  15  18
ATOM     18  O   UNL     1      35.036 -15.855 -21.832  0.00  0.00    -0.468 OA
ATOM     19  C   UNL     1      34.426 -15.413 -20.620  0.00  0.00    +0.253 C 
ENDBRANCH  15  18
BRANCH  16  20
ATOM     20  O   UNL     1      35.268 -16.790 -24.438  0.00  0.00    -0.468 OA
ATOM     21  C   UNL     1      34.116 -16.513 -25.231  0.00  0.00    +0.253 C 
ENDBRANCH  16  20
ENDBRANCH   5  12
BRANCH   6  22
ATOM     22  O   UNL     1      33.452 -23.710 -16.507  0.00  0.00    -0.471 OA
ATOM     23  C   UNL     1      33.039 -23.499 -15.159  0.00  0.00    +0.252 C 
ENDBRANCH   6  22
BRANCH  10  24
ATOM     24  O   UNL     1      38.080 -22.826 -15.914  0.00  0.00    -0.464 OA
BRANCH  24  25
ATOM     25  C   UNL     1      38.026 -23.747 -14.825  0.00  0.00    +0.314 C 
BRANCH  25  27
ATOM     26  O   UNL     1      40.255 -24.712 -14.810  0.00  0.00    -0.246 OA
ATOM     27  C   UNL     1      39.057 -24.824 -15.017  0.00  0.00    +0.359 C 
BRANCH  27  28
ATOM     28  O   UNL     1      38.467 -25.962 -15.461  0.00  0.00    -0.478 OA
ATOM     29  H   UNL     1      38.280 -26.068 -16.373  0.00  0.00    +0.295 HD
ENDBRANCH  27  28
ENDBRANCH  25  27
ENDBRANCH  24  25
ENDBRANCH  10  24
TORSDOF 8
ENDMDL
MODEL 3
REMARK VINA RESULT:     -10.3      2.144      8.621
REMARK  Name = 9952125
REMARK  8 active torsions:
REMARK  status: ('A' for Active; 'I' for Inactive)
REMARK    1  A    between atoms: C_5  and  C_12
REMARK    2  A    between atoms: C_6  and  O_22
REMARK    3  A    between atoms: C_10  and  O_24
REMARK    4  A    between atoms: C_15  and  O_18
REMARK    5  A    between atoms: C_16  and  O_20
REMARK    6  A    between atoms: O_24  and  C_25
REMARK    7  A    between atoms: C_25  and  C_27
REMARK    8  A    between atoms: C_27  and  O_28
REMARK                            x       y       z     vdW  Elec       q    Type
REMARK                         _______ _______ _______ _____ _____    ______ ____
ROOT
ATOM      1  O   UNL     1      34.077 -19.706 -21.335  0.00  0.00    -0.453 OA
ATOM      2  O   UNL     1      37.817 -20.355 -19.856  0.00  0.00    -0.286 OA
ATOM      3  C   UNL     1      35.509 -20.845 -19.737  0.00  0.00    +0.108 C 
ATOM      4  C   UNL     1      34.258 -20.578 -20.291  0.00  0.00    +0.154 C 
ATOM      5  C   UNL     1      35.188 -19.058 -21.854  0.00  0.00    +0.149 C 
ATOM      6  C   UNL     1      35.634 -21.743 -18.675  0.00  0.00    +0.148 C 
ATOM      7  C   UNL     1      36.691 -20.165 -20.291  0.00  0.00    +0.205 C 
ATOM      8  C   UNL     1      36.443 -19.236 -21.412  0.00  0.00    +0.080 C 
ATOM      9  C   UNL     1      33.122 -21.210 -19.785  0.00  0.00    +0.075 C 
ATOM     10  C   UNL     1      33.243 -22.107 -18.724  0.00  0.00    +0.145 C 
ATOM     11  C   UNL     1      34.496 -22.373 -18.170  0.00  0.00    +0.074 C 
ENDROOT
BRANCH   5  12
ATOM     12  C   UNL     1      34.881 -18.148 -22.977  0.00  0.00    +0.038 C 
ATOM     13  C   UNL     1      34.864 -16.766 -22.776  0.00  0.00    +0.043 C 
ATOM     14  C   UNL     1      34.605 -18.666 -24.244  0.00  0.00    +0.006 C 
ATOM     15  C   UNL     1      34.575 -15.907 -23.835  0.00  0.00    +0.172 C 
ATOM     16  C   UNL     1      34.300 -16.428 -25.100  0.00  0.00    +0.172 C 
ATOM     17  C   UNL     1      34.316 -17.807 -25.305  0.00  0.00    +0.040 C 
BRANCH  15  18
ATOM     18  O   UNL     1      34.561 -14.561 -23.624  0.00  0.00    -0.468 OA
ATOM     19  C   UNL     1      33.526 -14.047 -22.789  0.00  0.00    +0.253 C 
ENDBRANCH  15  18
BRANCH  16  20
ATOM     20  O   UNL     1      34.018 -15.599 -26.144  0.00  0.00    -0.468 OA
ATOM     21  C   UNL     1      32.671 -15.147 -26.265  0.00  0.00    +0.253 C 
ENDBRANCH  16  20
ENDBRANCH   5  12
BRANCH   6  22
ATOM     22  O   UNL     1      36.834 -22.038 -18.102  0.00  0.00    -0.471 OA
ATOM     23  C   UNL     1      36.949 -21.831 -16.695  0.00  0.00    +0.252 C 
ENDBRANCH   6  22
BRANCH  10  24
ATOM     24  O   UNL     1      32.136 -22.724 -18.227  0.00  0.00    -0.464 OA
BRANCH  24  25
ATOM     25  C   UNL     1      32.188 -23.159 -16.869  0.00  0.00    +0.314 C 
BRANCH  25  27
ATOM     26  O   UNL     1      30.681 -22.919 -14.980  0.00  0.00    -0.246 OA
ATOM     27  C   UNL     1      30.893 -22.833 -16.179  0.00  0.00    +0.359 C 
BRANCH  27  28
ATOM     28  O   UNL     1      29.971 -22.421 -17.086  0.00  0.00    -0.478 OA
ATOM     29  H   UNL     1      29.092 -22.247 -16.814  0.00  0.00    +0.295 HD
ENDBRANCH  27  28
ENDBRANCH  25  27
ENDBRANCH  24  25
ENDBRANCH  10  24
TORSDOF 8
ENDMDL
MODEL 4
REMARK VINA RESULT:     -10.2      1.753      8.361
REMARK  Name = 9952125
REMARK  8 active torsions:
REMARK  status: ('A' for Active; 'I' for Inactive)
REMARK    1  A    between atoms: C_5  and  C_12
REMARK    2  A    between atoms: C_6  and  O_22
REMARK    3  A    between atoms: C_10  and  O_24
REMARK    4  A    between atoms: C_15  and  O_18
REMARK    5  A    between atoms: C_16  and  O_20
REMARK    6  A    between atoms: O_24  and  C_25
REMARK    7  A    between atoms: C_25  and  C_27
REMARK    8  A    between atoms: C_27  and  O_28
REMARK                            x       y       z     vdW  Elec       q    Type
REMARK                         _______ _______ _______ _____ _____    ______ ____
ROOT
ATOM      1  O   UNL     1      33.919 -14.547 -22.294  0.00  0.00    -0.453 OA
ATOM      2  O   UNL     1      33.795 -16.159 -26.033  0.00  0.00    -0.286 OA
ATOM      3  C   UNL     1      34.374 -16.431 -23.758  0.00  0.00    +0.108 C 
ATOM      4  C   UNL     1      34.386 -15.819 -22.505  0.00  0.00    +0.154 C 
ATOM      5  C   UNL     1      33.422 -13.837 -23.376  0.00  0.00    +0.149 C 
ATOM      6  C   UNL     1      34.862 -17.729 -23.915  0.00  0.00    +0.148 C 
ATOM      7  C   UNL     1      33.839 -15.683 -24.907  0.00  0.00    +0.205 C 
ATOM      8  C   UNL     1      33.351 -14.318 -24.627  0.00  0.00    +0.080 C 
ATOM      9  C   UNL     1      34.887 -16.506 -21.399  0.00  0.00    +0.075 C 
ATOM     10  C   UNL     1      35.376 -17.804 -21.552  0.00  0.00    +0.145 C 
ATOM     11  C   UNL     1      35.363 -18.414 -22.807  0.00  0.00    +0.074 C 
ENDROOT
BRANCH   5  12
ATOM     12  C   UNL     1      32.942 -12.482 -23.036  0.00  0.00    +0.038 C 
ATOM     13  C   UNL     1      32.066 -12.296 -21.965  0.00  0.00    +0.043 C 
ATOM     14  C   UNL     1      33.362 -11.381 -23.786  0.00  0.00    +0.006 C 
ATOM     15  C   UNL     1      31.613 -11.017 -21.643  0.00  0.00    +0.172 C 
ATOM     16  C   UNL     1      32.035  -9.919 -22.394  0.00  0.00    +0.172 C 
ATOM     17  C   UNL     1      32.910 -10.101 -23.464  0.00  0.00    +0.040 C 
BRANCH  15  18
ATOM     18  O   UNL     1      30.758 -10.851 -20.596  0.00  0.00    -0.468 OA
ATOM     19  C   UNL     1      31.320 -10.895 -19.286  0.00  0.00    +0.253 C 
ENDBRANCH  15  18
BRANCH  16  20
ATOM     20  O   UNL     1      31.601  -8.664 -22.088  0.00  0.00    -0.468 OA
ATOM     21  C   UNL     1      32.477  -7.846 -21.315  0.00  0.00    +0.253 C 
ENDBRANCH  16  20
ENDBRANCH   5  12
BRANCH   6  22
ATOM     22  O   UNL     1      34.870 -18.370 -25.117  0.00  0.00    -0.471 OA
ATOM     23  C   UNL     1      34.721 -19.788 -25.096  0.00  0.00    +0.252 C 
ENDBRANCH   6  22
BRANCH  10  24
ATOM     24  O   UNL     1      35.866 -18.475 -20.475  0.00  0.00    -0.464 OA
BRANCH  24  25
ATOM     25  C   UNL     1      36.181 -19.855 -20.657  0.00  0.00    +0.314 C 
BRANCH  25  27
ATOM     26  O   UNL     1      33.930 -20.588 -20.113  0.00  0.00    -0.246 OA
ATOM     27  C   UNL     1      35.139 -20.708 -19.988  0.00  0.00    +0.359 C 
BRANCH  27  28
ATOM     28  O   UNL     1      35.732 -21.649 -19.211  0.00  0.00    -0.478 OA
ATOM     29  H   UNL     1      36.070 -21.416 -18.369  0.00  0.00    +0.295 HD
ENDBRANCH  27  28
ENDBRANCH  25  27
ENDBRANCH  24  25
ENDBRANCH  10  24
TORSDOF 8
ENDMDL
MODEL 5
REMARK VINA RESULT:     -10.2      2.284      8.854
REMARK  Name = 9952125
REMARK  8 active torsions:
REMARK  status: ('A' for Active; 'I' for Inactive)
REMARK    1  A    between atoms: C_5  and  C_12
REMARK    2  A    between atoms: C_6  and  O_22
REMARK    3  A    between atoms: C_10  and  O_24
REMARK    4  A    between atoms: C_15  and  O_18
REMARK    5  A    between atoms: C_16  and  O_20
REMARK    6  A    between atoms: O_24  and  C_25
REMARK    7  A    between atoms: C_25  and  C_27
REMARK    8  A    between atoms: C_27  and  O_28
REMARK                            x       y       z     vdW  Elec       q    Type
REMARK                         _______ _______ _______ _____ _____    ______ ____
ROOT
ATOM      1  O   UNL     1      33.817 -14.170 -22.403  0.00  0.00    -0.453 OA
ATOM      2  O   UNL     1      33.658 -15.787 -26.139  0.00  0.00    -0.286 OA
ATOM      3  C   UNL     1      34.238 -16.064 -23.866  0.00  0.00    +0.108 C 
ATOM      4  C   UNL     1      34.263 -15.450 -22.614  0.00  0.00    +0.154 C 
ATOM      5  C   UNL     1      33.327 -13.455 -23.485  0.00  0.00    +0.149 C 
ATOM      6  C   UNL     1      34.705 -17.370 -24.022  0.00  0.00    +0.148 C 
ATOM      7  C   UNL     1      33.712 -15.310 -25.014  0.00  0.00    +0.205 C 
ATOM      8  C   UNL     1      33.246 -13.936 -24.736  0.00  0.00    +0.080 C 
ATOM      9  C   UNL     1      34.755 -16.143 -21.508  0.00  0.00    +0.075 C 
ATOM     10  C   UNL     1      35.223 -17.449 -21.660  0.00  0.00    +0.145 C 
ATOM     11  C   UNL     1      35.198 -18.060 -22.914  0.00  0.00    +0.074 C 
ENDROOT
BRANCH   5  12
ATOM     12  C   UNL     1      32.870 -12.092 -23.146  0.00  0.00    +0.038 C 
ATOM     13  C   UNL     1      33.413 -10.985 -23.802  0.00  0.00    +0.043 C 
ATOM     14  C   UNL     1      31.892 -11.904 -22.167  0.00  0.00    +0.006 C 
ATOM     15  C   UNL     1      32.981  -9.698 -23.482  0.00  0.00    +0.172 C 
ATOM     16  C   UNL     1      32.003  -9.515 -22.504  0.00  0.00    +0.172 C 
ATOM     17  C   UNL     1      31.458 -10.617 -21.846  0.00  0.00    +0.040 C 
BRANCH  15  18
ATOM     18  O   UNL     1      33.521  -8.628 -24.129  0.00  0.00    -0.468 OA
ATOM     19  C   UNL     1      34.772  -8.142 -23.646  0.00  0.00    +0.253 C 
ENDBRANCH  15  18
BRANCH  16  20
ATOM     20  O   UNL     1      31.571  -8.263 -22.183  0.00  0.00    -0.468 OA
ATOM     21  C   UNL     1      32.127  -7.666 -21.013  0.00  0.00    +0.253 C 
ENDBRANCH  16  20
ENDBRANCH   5  12
BRANCH   6  22
ATOM     22  O   UNL     1      34.699 -18.013 -25.222  0.00  0.00    -0.471 OA
ATOM     23  C   UNL     1      34.542 -19.430 -25.198  0.00  0.00    +0.252 C 
ENDBRANCH   6  22
BRANCH  10  24
ATOM     24  O   UNL     1      35.706 -18.126 -20.582  0.00  0.00    -0.464 OA
BRANCH  24  25
ATOM     25  C   UNL     1      36.505 -19.279 -20.844  0.00  0.00    +0.314 C 
BRANCH  25  27
ATOM     26  O   UNL     1      36.590 -21.248 -19.424  0.00  0.00    -0.246 OA
ATOM     27  C   UNL     1      35.948 -20.463 -20.104  0.00  0.00    +0.359 C 
BRANCH  27  28
ATOM     28  O   UNL     1      34.607 -20.547 -20.298  0.00  0.00    -0.478 OA
ATOM     29  H   UNL     1      34.205 -21.382 -20.436  0.00  0.00    +0.295 HD
ENDBRANCH  27  28
ENDBRANCH  25  27
ENDBRANCH  24  25
ENDBRANCH  10  24
TORSDOF 8
ENDMDL
MODEL 6
REMARK VINA RESULT:     -10.2      1.117      1.942
REMARK  Name = 9952125
REMARK  8 active torsions:
REMARK  status: ('A' for Active; 'I' for Inactive)
REMARK    1  A    between atoms: C_5  and  C_12
REMARK    2  A    between atoms: C_6  and  O_22
REMARK    3  A    between atoms: C_10  and  O_24
REMARK    4  A    between atoms: C_15  and  O_18
REMARK    5  A    between atoms: C_16  and  O_20
REMARK    6  A    between atoms: O_24  and  C_25
REMARK    7  A    between atoms: C_25  and  C_27
REMARK    8  A    between atoms: C_27  and  O_28
REMARK                            x       y       z     vdW  Elec       q    Type
REMARK                         _______ _______ _______ _____ _____    ______ ____
ROOT
ATOM      1  O   UNL     1      33.594 -17.500 -21.005  0.00  0.00    -0.453 OA
ATOM      2  O   UNL     1      35.009 -17.347 -24.821  0.00  0.00    -0.286 OA
ATOM      3  C   UNL     1      33.935 -16.223 -23.043  0.00  0.00    +0.108 C 
ATOM      4  C   UNL     1      33.473 -16.344 -21.733  0.00  0.00    +0.154 C 
ATOM      5  C   UNL     1      34.194 -18.598 -21.603  0.00  0.00    +0.149 C 
ATOM      6  C   UNL     1      33.785 -15.021 -23.736  0.00  0.00    +0.148 C 
ATOM      7  C   UNL     1      34.579 -17.384 -23.678  0.00  0.00    +0.205 C 
ATOM      8  C   UNL     1      34.683 -18.604 -22.853  0.00  0.00    +0.080 C 
ATOM      9  C   UNL     1      32.860 -15.259 -21.107  0.00  0.00    +0.075 C 
ATOM     10  C   UNL     1      32.708 -14.055 -21.797  0.00  0.00    +0.145 C 
ATOM     11  C   UNL     1      33.170 -13.937 -23.109  0.00  0.00    +0.074 C 
ENDROOT
BRANCH   5  12
ATOM     12  C   UNL     1      34.277 -19.787 -20.730  0.00  0.00    +0.038 C 
ATOM     13  C   UNL     1      35.510 -20.200 -20.221  0.00  0.00    +0.043 C 
ATOM     14  C   UNL     1      33.121 -20.503 -20.410  0.00  0.00    +0.006 C 
ATOM     15  C   UNL     1      35.588 -21.322 -19.396  0.00  0.00    +0.172 C 
ATOM     16  C   UNL     1      34.431 -22.035 -19.078  0.00  0.00    +0.172 C 
ATOM     17  C   UNL     1      33.198 -21.625 -19.584  0.00  0.00    +0.040 C 
BRANCH  15  18
ATOM     18  O   UNL     1      36.798 -21.713 -18.909  0.00  0.00    -0.468 OA
ATOM     19  C   UNL     1      37.051 -21.465 -17.527  0.00  0.00    +0.253 C 
ENDBRANCH  15  18
BRANCH  16  20
ATOM     20  O   UNL     1      34.495 -23.131 -18.272  0.00  0.00    -0.468 OA
ATOM     21  C   UNL     1      33.447 -23.296 -17.320  0.00  0.00    +0.253 C 
ENDBRANCH  16  20
ENDBRANCH   5  12
BRANCH   6  22
ATOM     22  O   UNL     1      34.221 -14.853 -25.016  0.00  0.00    -0.471 OA
ATOM     23  C   UNL     1      33.232 -14.583 -26.007  0.00  0.00    +0.252 C 
ENDBRANCH   6  22
BRANCH  10  24
ATOM     24  O   UNL     1      32.109 -12.996 -21.189  0.00  0.00    -0.464 OA
BRANCH  24  25
ATOM     25  C   UNL     1      31.785 -11.873 -22.009  0.00  0.00    +0.314 C 
BRANCH  25  27
ATOM     26  O   UNL     1      31.663  -9.511 -21.457  0.00  0.00    -0.246 OA
ATOM     27  C   UNL     1      31.490 -10.679 -21.145  0.00  0.00    +0.359 C 
BRANCH  27  28
ATOM     28  O   UNL     1      30.994 -11.080 -19.947  0.00  0.00    -0.478 OA
ATOM     29  H   UNL     1      30.555 -11.904 -19.873  0.00  0.00    +0.295 HD
ENDBRANCH  27  28
ENDBRANCH  25  27
ENDBRANCH  24  25
ENDBRANCH  10  24
TORSDOF 8
ENDMDL
MODEL 7
REMARK VINA RESULT:      -9.6      2.601      8.964
REMARK  Name = 9952125
REMARK  8 active torsions:
REMARK  status: ('A' for Active; 'I' for Inactive)
REMARK    1  A    between atoms: C_5  and  C_12
REMARK    2  A    between atoms: C_6  and  O_22
REMARK    3  A    between atoms: C_10  and  O_24
REMARK    4  A    between atoms: C_15  and  O_18
REMARK    5  A    between atoms: C_16  and  O_20
REMARK    6  A    between atoms: O_24  and  C_25
REMARK    7  A    between atoms: C_25  and  C_27
REMARK    8  A    between atoms: C_27  and  O_28
REMARK                            x       y       z     vdW  Elec       q    Type
REMARK                         _______ _______ _______ _____ _____    ______ ____
ROOT
ATOM      1  O   UNL     1      33.871 -20.652 -19.970  0.00  0.00    -0.453 OA
ATOM      2  O   UNL     1      37.291 -21.928 -18.163  0.00  0.00    -0.286 OA
ATOM      3  C   UNL     1      34.933 -22.031 -18.276  0.00  0.00    +0.108 C 
ATOM      4  C   UNL     1      33.803 -21.553 -18.939  0.00  0.00    +0.154 C 
ATOM      5  C   UNL     1      35.118 -20.191 -20.365  0.00  0.00    +0.149 C 
ATOM      6  C   UNL     1      34.805 -22.949 -17.232  0.00  0.00    +0.148 C 
ATOM      7  C   UNL     1      36.259 -21.549 -18.697  0.00  0.00    +0.205 C 
ATOM      8  C   UNL     1      36.277 -20.579 -19.810  0.00  0.00    +0.080 C 
ATOM      9  C   UNL     1      32.535 -21.994 -18.560  0.00  0.00    +0.075 C 
ATOM     10  C   UNL     1      32.403 -22.911 -17.517  0.00  0.00    +0.145 C 
ATOM     11  C   UNL     1      33.535 -23.387 -16.855  0.00  0.00    +0.074 C 
ENDROOT
BRANCH   5  12
ATOM     12  C   UNL     1      35.076 -19.229 -21.485  0.00  0.00    +0.038 C 
ATOM     13  C   UNL     1      35.071 -17.856 -21.233  0.00  0.00    +0.043 C 
ATOM     14  C   UNL     1      35.039 -19.691 -22.803  0.00  0.00    +0.006 C 
ATOM     15  C   UNL     1      35.032 -16.949 -22.291  0.00  0.00    +0.172 C 
ATOM     16  C   UNL     1      34.996 -17.413 -23.606  0.00  0.00    +0.172 C 
ATOM     17  C   UNL     1      35.000 -18.783 -23.863  0.00  0.00    +0.040 C 
BRANCH  15  18
ATOM     18  O   UNL     1      35.026 -15.612 -22.029  0.00  0.00    -0.468 OA
ATOM     19  C   UNL     1      34.445 -15.195 -20.794  0.00  0.00    +0.253 C 
ENDBRANCH  15  18
BRANCH  16  20
ATOM     20  O   UNL     1      34.959 -16.536 -24.648  0.00  0.00    -0.468 OA
ATOM     21  C   UNL     1      33.842 -16.626 -25.530  0.00  0.00    +0.253 C 
ENDBRANCH  16  20
ENDBRANCH   5  12
BRANCH   6  22
ATOM     22  O   UNL     1      35.878 -23.446 -16.556  0.00  0.00    -0.471 OA
ATOM     23  C   UNL     1      35.893 -23.266 -15.142  0.00  0.00    +0.252 C 
ENDBRANCH   6  22
BRANCH  10  24
ATOM     24  O   UNL     1      31.166 -23.342 -17.145  0.00  0.00    -0.464 OA
BRANCH  24  25
ATOM     25  C   UNL     1      30.576 -22.716 -16.006  0.00  0.00    +0.314 C 
BRANCH  25  27
ATOM     26  O   UNL     1      28.470 -23.807 -15.480  0.00  0.00    -0.246 OA
ATOM     27  C   UNL     1      29.086 -22.909 -16.035  0.00  0.00    +0.359 C 
BRANCH  27  28
ATOM     28  O   UNL     1      28.502 -21.933 -16.775  0.00  0.00    -0.478 OA
ATOM     29  H   UNL     1      28.839 -21.059 -16.748  0.00  0.00    +0.295 HD
ENDBRANCH  27  28
ENDBRANCH  25  27
ENDBRANCH  24  25
ENDBRANCH  10  24
TORSDOF 8
ENDMDL
MODEL 8
REMARK VINA RESULT:      -9.5      1.434      2.033
REMARK  Name = 9952125
REMARK  8 active torsions:
REMARK  status: ('A' for Active; 'I' for Inactive)
REMARK    1  A    between atoms: C_5  and  C_12
REMARK    2  A    between atoms: C_6  and  O_22
REMARK    3  A    between atoms: C_10  and  O_24
REMARK    4  A    between atoms: C_15  and  O_18
REMARK    5  A    between atoms: C_16  and  O_20
REMARK    6  A    between atoms: O_24  and  C_25
REMARK    7  A    between atoms: C_25  and  C_27
REMARK    8  A    between atoms: C_27  and  O_28
REMARK                            x       y       z     vdW  Elec       q    Type
REMARK                         _______ _______ _______ _____ _____    ______ ____
ROOT
ATOM      1  O   UNL     1      33.496 -16.201 -21.262  0.00  0.00    -0.453 OA
ATOM      2  O   UNL     1      34.573 -15.161 -25.050  0.00  0.00    -0.286 OA
ATOM      3  C   UNL     1      33.438 -14.573 -23.064  0.00  0.00    +0.108 C 
ATOM      4  C   UNL     1      33.105 -14.991 -21.776  0.00  0.00    +0.154 C 
ATOM      5  C   UNL     1      34.248 -17.047 -22.063  0.00  0.00    +0.149 C 
ATOM      6  C   UNL     1      33.012 -13.329 -23.535  0.00  0.00    +0.148 C 
ATOM      7  C   UNL     1      34.243 -15.465 -23.913  0.00  0.00    +0.205 C 
ATOM      8  C   UNL     1      34.636 -16.756 -23.315  0.00  0.00    +0.080 C 
ATOM      9  C   UNL     1      32.343 -14.164 -20.949  0.00  0.00    +0.075 C 
ATOM     10  C   UNL     1      31.916 -12.921 -21.417  0.00  0.00    +0.145 C 
ATOM     11  C   UNL     1      32.250 -12.505 -22.706  0.00  0.00    +0.074 C 
ENDROOT
BRANCH   5  12
ATOM     12  C   UNL     1      34.619 -18.320 -21.410  0.00  0.00    +0.038 C 
ATOM     13  C   UNL     1      33.636 -19.262 -21.101  0.00  0.00    +0.043 C 
ATOM     14  C   UNL     1      35.954 -18.584 -21.099  0.00  0.00    +0.006 C 
ATOM     15  C   UNL     1      33.986 -20.464 -20.485  0.00  0.00    +0.172 C 
ATOM     16  C   UNL     1      35.321 -20.725 -20.176  0.00  0.00    +0.172 C 
ATOM     17  C   UNL     1      36.305 -19.786 -20.484  0.00  0.00    +0.040 C 
BRANCH  15  18
ATOM     18  O   UNL     1      33.016 -21.373 -20.188  0.00  0.00    -0.468 OA
ATOM     19  C   UNL     1      32.895 -21.770 -18.823  0.00  0.00    +0.253 C 
ENDBRANCH  15  18
BRANCH  16  20
ATOM     20  O   UNL     1      35.676 -21.896 -19.576  0.00  0.00    -0.468 OA
ATOM     21  C   UNL     1      36.561 -21.810 -18.462  0.00  0.00    +0.253 C 
ENDBRANCH  16  20
ENDBRANCH   5  12
BRANCH   6  22
ATOM     22  O   UNL     1      33.314 -12.875 -24.783  0.00  0.00    -0.471 OA
ATOM     23  C   UNL     1      34.044 -11.654 -24.869  0.00  0.00    +0.252 C 
ENDBRANCH   6  22
BRANCH  10  24
ATOM     24  O   UNL     1      31.172 -12.113 -20.613  0.00  0.00    -0.464 OA
BRANCH  24  25
ATOM     25  C   UNL     1      31.876 -11.324 -19.654  0.00  0.00    +0.314 C 
BRANCH  25  27
ATOM     26  O   UNL     1      31.694  -9.516 -21.265  0.00  0.00    -0.246 OA
ATOM     27  C   UNL     1      32.007  -9.913 -20.153  0.00  0.00    +0.359 C 
BRANCH  27  28
ATOM     28  O   UNL     1      32.529  -9.120 -19.184  0.00  0.00    -0.478 OA
ATOM     29  H   UNL     1      32.706  -8.217 -19.361  0.00  0.00    +0.295 HD
ENDBRANCH  27  28
ENDBRANCH  25  27
ENDBRANCH  24  25
ENDBRANCH  10  24
TORSDOF 8
ENDMDL
MODEL 9
REMARK VINA RESULT:      -9.5      4.485     10.771
REMARK  Name = 9952125
REMARK  8 active torsions:
REMARK  status: ('A' for Active; 'I' for Inactive)
REMARK    1  A    between atoms: C_5  and  C_12
REMARK    2  A    between atoms: C_6  and  O_22
REMARK    3  A    between atoms: C_10  and  O_24
REMARK    4  A    between atoms: C_15  and  O_18
REMARK    5  A    between atoms: C_16  and  O_20
REMARK    6  A    between atoms: O_24  and  C_25
REMARK    7  A    between atoms: C_25  and  C_27
REMARK    8  A    between atoms: C_27  and  O_28
REMARK                            x       y       z     vdW  Elec       q    Type
REMARK                         _______ _______ _______ _____ _____    ______ ____
ROOT
ATOM      1  O   UNL     1      34.733 -22.519 -16.754  0.00  0.00    -0.453 OA
ATOM      2  O   UNL     1      38.339 -23.401 -15.078  0.00  0.00    -0.286 OA
ATOM      3  C   UNL     1      35.984 -23.519 -14.928  0.00  0.00    +0.108 C 
ATOM      4  C   UNL     1      34.785 -23.186 -15.557  0.00  0.00    +0.154 C 
ATOM      5  C   UNL     1      35.926 -22.153 -17.359  0.00  0.00    +0.149 C 
ATOM      6  C   UNL     1      35.978 -24.200 -13.709  0.00  0.00    +0.148 C 
ATOM      7  C   UNL     1      37.252 -23.139 -15.571  0.00  0.00    +0.205 C 
ATOM      8  C   UNL     1      37.141 -22.421 -16.857  0.00  0.00    +0.080 C 
ATOM      9  C   UNL     1      33.569 -23.536 -14.969  0.00  0.00    +0.075 C 
ATOM     10  C   UNL     1      33.559 -24.216 -13.751  0.00  0.00    +0.145 C 
ATOM     11  C   UNL     1      34.760 -24.548 -13.123  0.00  0.00    +0.074 C 
ENDROOT
BRANCH   5  12
ATOM     12  C   UNL     1      35.754 -21.445 -18.644  0.00  0.00    +0.038 C 
ATOM     13  C   UNL     1      34.484 -21.313 -19.209  0.00  0.00    +0.043 C 
ATOM     14  C   UNL     1      36.863 -20.905 -19.300  0.00  0.00    +0.006 C 
ATOM     15  C   UNL     1      34.322 -20.644 -20.422  0.00  0.00    +0.172 C 
ATOM     16  C   UNL     1      35.431 -20.106 -21.075  0.00  0.00    +0.172 C 
ATOM     17  C   UNL     1      36.702 -20.235 -20.514  0.00  0.00    +0.040 C 
BRANCH  15  18
ATOM     18  O   UNL     1      33.077 -20.525 -20.962  0.00  0.00    -0.468 OA
ATOM     19  C   UNL     1      32.307 -19.390 -20.569  0.00  0.00    +0.253 C 
ENDBRANCH  15  18
BRANCH  16  20
ATOM     20  O   UNL     1      35.286 -19.449 -22.259  0.00  0.00    -0.468 OA
ATOM     21  C   UNL     1      35.681 -18.079 -22.293  0.00  0.00    +0.253 C 
ENDBRANCH  16  20
ENDBRANCH   5  12
BRANCH   6  22
ATOM     22  O   UNL     1      37.122 -24.549 -13.057  0.00  0.00    -0.471 OA
ATOM     23  C   UNL     1      37.294 -25.929 -12.744  0.00  0.00    +0.252 C 
ENDBRANCH   6  22
BRANCH  10  24
ATOM     24  O   UNL     1      32.374 -24.557 -13.174  0.00  0.00    -0.464 OA
BRANCH  24  25
ATOM     25  C   UNL     1      31.444 -25.282 -13.979  0.00  0.00    +0.314 C 
BRANCH  25  27
ATOM     26  O   UNL     1      30.124 -23.264 -14.271  0.00  0.00    -0.246 OA
ATOM     27  C   UNL     1      30.186 -24.478 -14.152  0.00  0.00    +0.359 C 
BRANCH  27  28
ATOM     28  O   UNL     1      29.104 -25.297 -14.160  0.00  0.00    -0.478 OA
ATOM     29  H   UNL     1      28.292 -25.005 -13.796  0.00  0.00    +0.295 HD
ENDBRANCH  27  28
ENDBRANCH  25  27
ENDBRANCH  24  25
ENDBRANCH  10  24
TORSDOF 8
ENDMDL
