MODEL 1
REMARK VINA RESULT:      -9.0      0.000      0.000
REMARK  Name = 11987868
REMARK  4 active torsions:
REMARK  status: ('A' for Active; 'I' for Inactive)
REMARK    1  A    between atoms: C_4  and  C_10
REMARK    2  A    between atoms: C_5  and  C_20
REMARK    3  A    between atoms: C_11  and  N_16
REMARK    4  A    between atoms: C_19  and  C_31
REMARK                            x       y       z     vdW  Elec       q    Type
REMARK                         _______ _______ _______ _____ _____    ______ ____
ROOT
ATOM      1  N   UNL     1      39.019 -24.128 -14.974  0.00  0.00    -0.240 NA
ATOM      2  N   UNL     1      38.697 -25.491 -13.013  0.00  0.00    -0.234 NA
ATOM      3  N   UNL     1      36.525 -25.882 -12.163  0.00  0.00    -0.346 N 
ATOM      4  C   UNL     1      36.799 -24.513 -14.125  0.00  0.00    +0.123 C 
ATOM      5  C   UNL     1      37.683 -23.957 -15.028  0.00  0.00    +0.108 C 
ATOM      6  C   UNL     1      37.369 -25.278 -13.129  0.00  0.00    +0.109 C 
ATOM      7  C   UNL     1      39.452 -24.895 -13.955  0.00  0.00    +0.252 C 
ATOM      8  H   UNL     1      36.914 -26.431 -11.445  0.00  0.00    +0.143 HD
ATOM      9  H   UNL     1      35.550 -25.752 -12.211  0.00  0.00    +0.143 HD
ENDROOT
BRANCH   4  10
ATOM     10  C   UNL     1      35.368 -24.305 -14.221  0.00  0.00    -0.009 C 
ATOM     11  C   UNL     1      32.617 -23.902 -14.406  0.00  0.00    +0.048 C 
ATOM     12  C   UNL     1      34.639 -23.959 -13.086  0.00  0.00    -0.002 C 
ATOM     13  C   UNL     1      34.726 -24.450 -15.449  0.00  0.00    -0.002 C 
ATOM     14  C   UNL     1      33.262 -23.757 -13.179  0.00  0.00    +0.014 C 
ATOM     15  C   UNL     1      33.350 -24.248 -15.542  0.00  0.00    +0.014 C 
BRANCH  11  16
ATOM     16  N   UNL     1      31.224 -23.697 -14.501  0.00  0.00    -0.304 N 
ATOM     17  C   UNL     1      30.677 -22.842 -15.535  0.00  0.00    +0.112 C 
ATOM     18  C   UNL     1      30.323 -24.351 -13.574  0.00  0.00    +0.112 C 
ENDBRANCH  11  16
ENDBRANCH   4  10
BRANCH   5  20
ATOM     19  C   UNL     1      36.905 -22.447 -17.045  0.00  0.00    -0.057 C 
ATOM     20  C   UNL     1      37.261 -23.138 -16.122  0.00  0.00    -0.044 C 
BRANCH  19  31
ATOM     21  O   UNL     1      34.659 -17.364 -23.331  0.00  0.00    -0.350 OA
ATOM     22  N   UNL     1      35.340 -19.200 -21.315  0.00  0.00    -0.288 N 
ATOM     23  N   UNL     1      36.936 -19.777 -19.621  0.00  0.00    -0.229 NA
ATOM     24  C   UNL     1      36.383 -18.610 -22.165  0.00  0.00    +0.124 C 
ATOM     25  C   UNL     1      34.096 -18.425 -21.223  0.00  0.00    +0.124 C 
ATOM     26  C   UNL     1      35.788 -18.219 -23.514  0.00  0.00    +0.164 C 
ATOM     27  C   UNL     1      33.624 -18.044 -22.621  0.00  0.00    +0.164 C 
ATOM     28  C   UNL     1      35.739 -20.006 -20.244  0.00  0.00    +0.132 C 
ATOM     29  C   UNL     1      34.888 -21.044 -19.835  0.00  0.00    +0.035 C 
ATOM     30  C   UNL     1      35.271 -21.856 -18.774  0.00  0.00    +0.013 C 
ATOM     31  C   UNL     1      36.485 -21.630 -18.136  0.00  0.00    +0.061 C 
ATOM     32  C   UNL     1      37.275 -20.588 -18.593  0.00  0.00    +0.108 C 
ENDBRANCH  19  31
ENDBRANCH   5  20
TORSDOF 4
ENDMDL
MODEL 2
REMARK VINA RESULT:      -8.6      1.385      2.087
REMARK  Name = 11987868
REMARK  4 active torsions:
REMARK  status: ('A' for Active; 'I' for Inactive)
REMARK    1  A    between atoms: C_4  and  C_10
REMARK    2  A    between atoms: C_5  and  C_20
REMARK    3  A    between atoms: C_11  and  N_16
REMARK    4  A    between atoms: C_19  and  C_31
REMARK                            x       y       z     vdW  Elec       q    Type
REMARK                         _______ _______ _______ _____ _____    ______ ____
ROOT
ATOM      1  N   UNL     1      37.677 -23.457 -15.758  0.00  0.00    -0.240 NA
ATOM      2  N   UNL     1      37.121 -24.743 -13.797  0.00  0.00    -0.234 NA
ATOM      3  N   UNL     1      34.865 -25.032 -13.148  0.00  0.00    -0.346 N 
ATOM      4  C   UNL     1      35.374 -23.738 -15.114  0.00  0.00    +0.123 C 
ATOM      5  C   UNL     1      36.359 -23.243 -15.945  0.00  0.00    +0.108 C 
ATOM      6  C   UNL     1      35.818 -24.488 -14.046  0.00  0.00    +0.109 C 
ATOM      7  C   UNL     1      37.983 -24.204 -14.680  0.00  0.00    +0.252 C 
ATOM      8  H   UNL     1      35.163 -25.570 -12.380  0.00  0.00    +0.143 HD
ATOM      9  H   UNL     1      33.904 -24.870 -13.292  0.00  0.00    +0.143 HD
ENDROOT
BRANCH   4  10
ATOM     10  C   UNL     1      33.967 -23.485 -15.353  0.00  0.00    -0.009 C 
ATOM     11  C   UNL     1      31.261 -23.002 -15.810  0.00  0.00    +0.048 C 
ATOM     12  C   UNL     1      33.448 -23.604 -16.640  0.00  0.00    -0.002 C 
ATOM     13  C   UNL     1      33.137 -23.126 -14.293  0.00  0.00    -0.002 C 
ATOM     14  C   UNL     1      32.093 -23.362 -16.869  0.00  0.00    +0.014 C 
ATOM     15  C   UNL     1      31.783 -22.883 -14.522  0.00  0.00    +0.014 C 
BRANCH  11  16
ATOM     16  N   UNL     1      29.890 -22.757 -16.040  0.00  0.00    -0.304 N 
ATOM     17  C   UNL     1      29.244 -23.269 -17.231  0.00  0.00    +0.112 C 
ATOM     18  C   UNL     1      29.110 -22.001 -15.081  0.00  0.00    +0.112 C 
ENDBRANCH  11  16
ENDBRANCH   4  10
BRANCH   5  20
ATOM     19  C   UNL     1      35.833 -21.773 -18.070  0.00  0.00    -0.057 C 
ATOM     20  C   UNL     1      36.073 -22.446 -17.097  0.00  0.00    -0.044 C 
BRANCH  19  31
ATOM     21  O   UNL     1      34.521 -16.970 -24.823  0.00  0.00    -0.350 OA
ATOM     22  N   UNL     1      34.811 -18.662 -22.598  0.00  0.00    -0.288 N 
ATOM     23  N   UNL     1      36.360 -19.816 -21.177  0.00  0.00    -0.229 NA
ATOM     24  C   UNL     1      35.694 -18.809 -23.763  0.00  0.00    +0.124 C 
ATOM     25  C   UNL     1      34.187 -17.342 -22.449  0.00  0.00    +0.124 C 
ATOM     26  C   UNL     1      34.984 -18.307 -25.015  0.00  0.00    +0.164 C 
ATOM     27  C   UNL     1      33.558 -16.918 -23.771  0.00  0.00    +0.164 C 
ATOM     28  C   UNL     1      35.076 -19.439 -21.466  0.00  0.00    +0.132 C 
ATOM     29  C   UNL     1      34.001 -19.817 -20.648  0.00  0.00    +0.035 C 
ATOM     30  C   UNL     1      34.247 -20.592 -19.520  0.00  0.00    +0.013 C 
ATOM     31  C   UNL     1      35.548 -20.979 -19.219  0.00  0.00    +0.061 C 
ATOM     32  C   UNL     1      36.561 -20.569 -20.072  0.00  0.00    +0.108 C 
ENDBRANCH  19  31
ENDBRANCH   5  20
TORSDOF 4
ENDMDL
MODEL 3
REMARK VINA RESULT:      -7.8      1.853      5.017
REMARK  Name = 11987868
REMARK  4 active torsions:
REMARK  status: ('A' for Active; 'I' for Inactive)
REMARK    1  A    between atoms: C_4  and  C_10
REMARK    2  A    between atoms: C_5  and  C_20
REMARK    3  A    between atoms: C_11  and  N_16
REMARK    4  A    between atoms: C_19  and  C_31
REMARK                            x       y       z     vdW  Elec       q    Type
REMARK                         _______ _______ _______ _____ _____    ______ ____
ROOT
ATOM      1  N   UNL     1      30.062 -23.541 -16.101  0.00  0.00    -0.240 NA
ATOM      2  N   UNL     1      30.153 -24.941 -14.141  0.00  0.00    -0.234 NA
ATOM      3  N   UNL     1      32.232 -25.534 -13.183  0.00  0.00    -0.346 N 
ATOM      4  C   UNL     1      32.189 -24.134 -15.141  0.00  0.00    +0.123 C 
ATOM      5  C   UNL     1      31.410 -23.494 -16.083  0.00  0.00    +0.108 C 
ATOM      6  C   UNL     1      31.499 -24.850 -14.185  0.00  0.00    +0.109 C 
ATOM      7  C   UNL     1      29.507 -24.272 -15.115  0.00  0.00    +0.252 C 
ATOM      8  H   UNL     1      31.757 -26.050 -12.491  0.00  0.00    +0.143 HD
ATOM      9  H   UNL     1      33.216 -25.495 -13.178  0.00  0.00    +0.143 HD
ENDROOT
BRANCH   4  10
ATOM     10  C   UNL     1      33.636 -24.057 -15.158  0.00  0.00    -0.009 C 
ATOM     11  C   UNL     1      36.418 -23.907 -15.195  0.00  0.00    +0.048 C 
ATOM     12  C   UNL     1      34.390 -25.207 -15.378  0.00  0.00    -0.002 C 
ATOM     13  C   UNL     1      34.269 -22.832 -14.957  0.00  0.00    -0.002 C 
ATOM     14  C   UNL     1      35.784 -25.132 -15.396  0.00  0.00    +0.014 C 
ATOM     15  C   UNL     1      35.661 -22.757 -14.975  0.00  0.00    +0.014 C 
BRANCH  11  16
ATOM     16  N   UNL     1      37.828 -23.830 -15.214  0.00  0.00    -0.304 N 
ATOM     17  C   UNL     1      38.621 -24.702 -14.373  0.00  0.00    +0.112 C 
ATOM     18  C   UNL     1      38.498 -22.886 -16.085  0.00  0.00    +0.112 C 
ENDBRANCH  11  16
ENDBRANCH   4  10
BRANCH   5  20
ATOM     19  C   UNL     1      32.428 -22.048 -18.039  0.00  0.00    -0.057 C 
ATOM     20  C   UNL     1      31.963 -22.710 -17.144  0.00  0.00    -0.044 C 
BRANCH  19  31
ATOM     21  O   UNL     1      35.311 -17.348 -24.363  0.00  0.00    -0.350 OA
ATOM     22  N   UNL     1      34.509 -18.927 -22.180  0.00  0.00    -0.288 N 
ATOM     23  N   UNL     1      32.738 -19.422 -20.641  0.00  0.00    -0.229 NA
ATOM     24  C   UNL     1      34.108 -17.516 -22.263  0.00  0.00    +0.124 C 
ATOM     25  C   UNL     1      34.857 -19.554 -23.461  0.00  0.00    +0.124 C 
ATOM     26  C   UNL     1      35.129 -16.737 -23.085  0.00  0.00    +0.164 C 
ATOM     27  C   UNL     1      35.838 -18.667 -24.219  0.00  0.00    +0.164 C 
ATOM     28  C   UNL     1      33.980 -19.704 -21.145  0.00  0.00    +0.132 C 
ATOM     29  C   UNL     1      34.749 -20.765 -20.645  0.00  0.00    +0.035 C 
ATOM     30  C   UNL     1      34.238 -21.545 -19.614  0.00  0.00    +0.013 C 
ATOM     31  C   UNL     1      32.979 -21.266 -19.096  0.00  0.00    +0.061 C 
ATOM     32  C   UNL     1      32.275 -20.202 -19.639  0.00  0.00    +0.108 C 
ENDBRANCH  19  31
ENDBRANCH   5  20
TORSDOF 4
ENDMDL
MODEL 4
REMARK VINA RESULT:      -6.8     12.268     16.160
REMARK  Name = 11987868
REMARK  4 active torsions:
REMARK  status: ('A' for Active; 'I' for Inactive)
REMARK    1  A    between atoms: C_4  and  C_10
REMARK    2  A    between atoms: C_5  and  C_20
REMARK    3  A    between atoms: C_11  and  N_16
REMARK    4  A    between atoms: C_19  and  C_31
REMARK                            x       y       z     vdW  Elec       q    Type
REMARK                         _______ _______ _______ _____ _____    ______ ____
ROOT
ATOM      1  N   UNL     1      31.615  -9.281 -19.754  0.00  0.00    -0.240 NA
ATOM      2  N   UNL     1      31.567 -11.518 -18.858  0.00  0.00    -0.234 NA
ATOM      3  N   UNL     1      32.071 -13.375 -20.232  0.00  0.00    -0.346 N 
ATOM      4  C   UNL     1      32.131 -11.159 -21.170  0.00  0.00    +0.123 C 
ATOM      5  C   UNL     1      31.963  -9.807 -20.946  0.00  0.00    +0.108 C 
ATOM      6  C   UNL     1      31.917 -11.975 -20.079  0.00  0.00    +0.109 C 
ATOM      7  C   UNL     1      31.436 -10.181 -18.768  0.00  0.00    +0.252 C 
ATOM      8  H   UNL     1      31.923 -13.974 -19.464  0.00  0.00    +0.143 HD
ATOM      9  H   UNL     1      32.325 -13.751 -21.107  0.00  0.00    +0.143 HD
ENDROOT
BRANCH   4  10
ATOM     10  C   UNL     1      32.507 -11.682 -22.468  0.00  0.00    -0.009 C 
ATOM     11  C   UNL     1      33.233 -12.691 -24.963  0.00  0.00    +0.048 C 
ATOM     12  C   UNL     1      33.357 -10.949 -23.293  0.00  0.00    -0.002 C 
ATOM     13  C   UNL     1      32.020 -12.919 -22.886  0.00  0.00    -0.002 C 
ATOM     14  C   UNL     1      33.720 -11.454 -24.542  0.00  0.00    +0.014 C 
ATOM     15  C   UNL     1      32.383 -13.423 -24.135  0.00  0.00    +0.014 C 
BRANCH  11  16
ATOM     16  N   UNL     1      33.600 -13.203 -26.225  0.00  0.00    -0.304 N 
ATOM     17  C   UNL     1      33.226 -14.549 -26.609  0.00  0.00    +0.112 C 
ATOM     18  C   UNL     1      34.346 -12.383 -27.159  0.00  0.00    +0.112 C 
ENDBRANCH  11  16
ENDBRANCH   4  10
BRANCH   5  20
ATOM     19  C   UNL     1      32.299  -7.993 -22.829  0.00  0.00    -0.057 C 
ATOM     20  C   UNL     1      32.144  -8.823 -21.968  0.00  0.00    -0.044 C 
BRANCH  19  31
ATOM     21  O   UNL     1      32.990  -2.226 -28.885  0.00  0.00    -0.350 OA
ATOM     22  N   UNL     1      32.922  -4.118 -26.807  0.00  0.00    -0.288 N 
ATOM     23  N   UNL     1      31.550  -5.220 -25.179  0.00  0.00    -0.229 NA
ATOM     24  C   UNL     1      32.124  -2.887 -26.717  0.00  0.00    +0.124 C 
ATOM     25  C   UNL     1      33.293  -4.524 -28.168  0.00  0.00    +0.124 C 
ATOM     26  C   UNL     1      32.781  -1.786 -27.543  0.00  0.00    +0.164 C 
ATOM     27  C   UNL     1      33.887  -3.336 -28.916  0.00  0.00    +0.164 C 
ATOM     28  C   UNL     1      32.757  -5.086 -25.812  0.00  0.00    +0.132 C 
ATOM     29  C   UNL     1      33.849  -5.903 -25.485  0.00  0.00    +0.035 C 
ATOM     30  C   UNL     1      33.702  -6.869 -24.496  0.00  0.00    +0.013 C 
ATOM     31  C   UNL     1      32.480  -7.012 -23.848  0.00  0.00    +0.061 C 
ATOM     32  C   UNL     1      31.445  -6.170 -24.222  0.00  0.00    +0.108 C 
ENDBRANCH  19  31
ENDBRANCH   5  20
TORSDOF 4
ENDMDL
MODEL 5
REMARK VINA RESULT:      -6.2     12.073     16.137
REMARK  Name = 11987868
REMARK  4 active torsions:
REMARK  status: ('A' for Active; 'I' for Inactive)
REMARK    1  A    between atoms: C_4  and  C_10
REMARK    2  A    between atoms: C_5  and  C_20
REMARK    3  A    between atoms: C_11  and  N_16
REMARK    4  A    between atoms: C_19  and  C_31
REMARK                            x       y       z     vdW  Elec       q    Type
REMARK                         _______ _______ _______ _____ _____    ______ ____
ROOT
ATOM      1  N   UNL     1      31.594  -9.764 -19.816  0.00  0.00    -0.240 NA
ATOM      2  N   UNL     1      31.736 -12.065 -19.113  0.00  0.00    -0.234 NA
ATOM      3  N   UNL     1      32.369 -13.753 -20.644  0.00  0.00    -0.346 N 
ATOM      4  C   UNL     1      32.240 -11.467 -21.390  0.00  0.00    +0.123 C 
ATOM      5  C   UNL     1      31.968 -10.158 -21.050  0.00  0.00    +0.108 C 
ATOM      6  C   UNL     1      32.106 -12.387 -20.371  0.00  0.00    +0.109 C 
ATOM      7  C   UNL     1      31.499 -10.755 -18.910  0.00  0.00    +0.252 C 
ATOM      8  H   UNL     1      32.279 -14.424 -19.930  0.00  0.00    +0.143 HD
ATOM      9  H   UNL     1      32.641 -14.031 -21.549  0.00  0.00    +0.143 HD
ENDROOT
BRANCH   4  10
ATOM     10  C   UNL     1      32.640 -11.847 -22.731  0.00  0.00    -0.009 C 
ATOM     11  C   UNL     1      33.407 -12.575 -25.309  0.00  0.00    +0.048 C 
ATOM     12  C   UNL     1      32.087 -12.978 -23.326  0.00  0.00    -0.002 C 
ATOM     13  C   UNL     1      33.576 -11.079 -23.420  0.00  0.00    -0.002 C 
ATOM     14  C   UNL     1      32.471 -13.342 -24.617  0.00  0.00    +0.014 C 
ATOM     15  C   UNL     1      33.960 -11.443 -24.710  0.00  0.00    +0.014 C 
BRANCH  11  16
ATOM     16  N   UNL     1      33.796 -12.942 -26.615  0.00  0.00    -0.304 N 
ATOM     17  C   UNL     1      34.783 -12.163 -27.333  0.00  0.00    +0.112 C 
ATOM     18  C   UNL     1      33.221 -14.112 -27.248  0.00  0.00    +0.112 C 
ENDBRANCH  11  16
ENDBRANCH   4  10
BRANCH   5  20
ATOM     19  C   UNL     1      32.131  -8.169 -22.774  0.00  0.00    -0.057 C 
ATOM     20  C   UNL     1      32.057  -9.079 -21.985  0.00  0.00    -0.044 C 
BRANCH  19  31
ATOM     21  O   UNL     1      33.015  -1.789 -28.151  0.00  0.00    -0.350 OA
ATOM     22  N   UNL     1      32.571  -3.968 -26.433  0.00  0.00    -0.288 N 
ATOM     23  N   UNL     1      33.594  -5.693 -25.118  0.00  0.00    -0.229 NA
ATOM     24  C   UNL     1      33.654  -4.013 -27.424  0.00  0.00    +0.124 C 
ATOM     25  C   UNL     1      32.126  -2.622 -26.053  0.00  0.00    +0.124 C 
ATOM     26  C   UNL     1      33.311  -3.110 -28.604  0.00  0.00    +0.164 C 
ATOM     27  C   UNL     1      31.865  -1.793 -27.305  0.00  0.00    +0.164 C 
ATOM     28  C   UNL     1      32.470  -5.019 -25.516  0.00  0.00    +0.132 C 
ATOM     29  C   UNL     1      31.201  -5.359 -25.024  0.00  0.00    +0.035 C 
ATOM     30  C   UNL     1      31.084  -6.403 -24.115  0.00  0.00    +0.013 C 
ATOM     31  C   UNL     1      32.220  -7.093 -23.706  0.00  0.00    +0.061 C 
ATOM     32  C   UNL     1      33.440  -6.703 -24.232  0.00  0.00    +0.108 C 
ENDBRANCH  19  31
ENDBRANCH   5  20
TORSDOF 4
ENDMDL
