MODEL 1
REMARK VINA RESULT:      -7.2      0.000      0.000
REMARK  Name = 6918474
REMARK  5 active torsions:
REMARK  status: ('A' for Active; 'I' for Inactive)
REMARK    1  A    between atoms: C_1  and  C_3
REMARK    2  A    between atoms: C_1  and  O_9
REMARK    3  A    between atoms: C_1  and  C_11
REMARK    4  A    between atoms: C_11  and  O_12
REMARK    5  A    between atoms: O_12  and  C_15
REMARK                            x       y       z     vdW  Elec       q    Type
REMARK                         _______ _______ _______ _____ _____    ______ ____
ROOT
ATOM      1  C   UNL     1      35.314 -19.178 -21.524  0.00  0.00    +0.177 C 
ENDROOT
BRANCH   1   3
ATOM      2 CL   UNL     1      37.182 -21.152 -20.067  0.00  0.00    -0.082 Cl
ATOM      3  C   UNL     1      34.694 -20.178 -20.604  0.00  0.00    +0.019 C 
ATOM      4  C   UNL     1      35.464 -21.107 -19.905  0.00  0.00    +0.056 C 
ATOM      5  C   UNL     1      33.307 -20.168 -20.452  0.00  0.00    -0.001 C 
ATOM      6  C   UNL     1      34.847 -22.026 -19.056  0.00  0.00    +0.011 C 
ATOM      7  C   UNL     1      32.691 -21.086 -19.602  0.00  0.00    -0.000 C 
ATOM      8  C   UNL     1      33.462 -22.016 -18.904  0.00  0.00    +0.001 C 
ENDBRANCH   1   3
BRANCH   1   9
ATOM      9  O   UNL     1      35.319 -17.892 -20.895  0.00  0.00    -0.376 OA
ATOM     10  H   UNL     1      36.199 -17.715 -20.528  0.00  0.00    +0.211 HD
ENDBRANCH   1   9
BRANCH   1  11
ATOM     11  C   UNL     1      34.589 -19.067 -22.872  0.00  0.00    +0.244 C 
BRANCH  11  12
ATOM     12  O   UNL     1      35.464 -18.504 -23.840  0.00  0.00    -0.432 OA
BRANCH  12  15
ATOM     13  O   UNL     1      34.445 -17.359 -25.557  0.00  0.00    -0.227 OA
ATOM     14  N   UNL     1      35.297 -16.256 -23.729  0.00  0.00    -0.295 N 
ATOM     15  C   UNL     1      35.018 -17.375 -24.473  0.00  0.00    +0.399 C 
ATOM     16  H   UNL     1      35.762 -16.341 -22.865  0.00  0.00    +0.148 HD
ATOM     17  H   UNL     1      35.034 -15.367 -24.060  0.00  0.00    +0.148 HD
ENDBRANCH  12  15
ENDBRANCH  11  12
ENDBRANCH   1  11
TORSDOF 5
ENDMDL
MODEL 2
REMARK VINA RESULT:      -7.0      3.245      5.624
REMARK  Name = 6918474
REMARK  5 active torsions:
REMARK  status: ('A' for Active; 'I' for Inactive)
REMARK    1  A    between atoms: C_1  and  C_3
REMARK    2  A    between atoms: C_1  and  O_9
REMARK    3  A    between atoms: C_1  and  C_11
REMARK    4  A    between atoms: C_11  and  O_12
REMARK    5  A    between atoms: O_12  and  C_15
REMARK                            x       y       z     vdW  Elec       q    Type
REMARK                         _______ _______ _______ _____ _____    ______ ____
ROOT
ATOM      1  C   UNL     1      34.756 -18.661 -21.008  0.00  0.00    +0.177 C 
ENDROOT
BRANCH   1   3
ATOM      2 CL   UNL     1      34.745 -15.613 -21.474  0.00  0.00    -0.082 Cl
ATOM      3  C   UNL     1      34.712 -18.169 -22.419  0.00  0.00    +0.019 C 
ATOM      4  C   UNL     1      34.705 -16.807 -22.720  0.00  0.00    +0.056 C 
ATOM      5  C   UNL     1      34.680 -19.111 -23.448  0.00  0.00    -0.001 C 
ATOM      6  C   UNL     1      34.664 -16.388 -24.049  0.00  0.00    +0.011 C 
ATOM      7  C   UNL     1      34.639 -18.690 -24.777  0.00  0.00    -0.000 C 
ATOM      8  C   UNL     1      34.631 -17.328 -25.078  0.00  0.00    +0.001 C 
ENDBRANCH   1   3
BRANCH   1   9
ATOM      9  O   UNL     1      36.119 -18.837 -20.608  0.00  0.00    -0.376 OA
ATOM     10  H   UNL     1      36.163 -18.932 -19.644  0.00  0.00    +0.211 HD
ENDBRANCH   1   9
BRANCH   1  11
ATOM     11  C   UNL     1      34.005 -19.984 -20.807  0.00  0.00    +0.244 C 
BRANCH  11  12
ATOM     12  O   UNL     1      34.699 -20.788 -19.862  0.00  0.00    -0.432 OA
BRANCH  12  15
ATOM     13  O   UNL     1      34.603 -23.039 -19.395  0.00  0.00    -0.227 OA
ATOM     14  N   UNL     1      32.752 -21.694 -19.168  0.00  0.00    -0.295 N 
ATOM     15  C   UNL     1      34.069 -21.938 -19.470  0.00  0.00    +0.399 C 
ATOM     16  H   UNL     1      32.388 -20.783 -19.251  0.00  0.00    +0.148 HD
ATOM     17  H   UNL     1      32.171 -22.431 -18.870  0.00  0.00    +0.148 HD
ENDBRANCH  12  15
ENDBRANCH  11  12
ENDBRANCH   1  11
TORSDOF 5
ENDMDL
MODEL 3
REMARK VINA RESULT:      -6.9      2.214      2.813
REMARK  Name = 6918474
REMARK  5 active torsions:
REMARK  status: ('A' for Active; 'I' for Inactive)
REMARK    1  A    between atoms: C_1  and  C_3
REMARK    2  A    between atoms: C_1  and  O_9
REMARK    3  A    between atoms: C_1  and  C_11
REMARK    4  A    between atoms: C_11  and  O_12
REMARK    5  A    between atoms: O_12  and  C_15
REMARK                            x       y       z     vdW  Elec       q    Type
REMARK                         _______ _______ _______ _____ _____    ______ ____
ROOT
ATOM      1  C   UNL     1      35.142 -18.398 -21.816  0.00  0.00    +0.177 C 
ENDROOT
BRANCH   1   3
ATOM      2 CL   UNL     1      32.595 -19.881 -20.911  0.00  0.00    -0.082 Cl
ATOM      3  C   UNL     1      35.302 -19.566 -20.898  0.00  0.00    +0.019 C 
ATOM      4  C   UNL     1      34.204 -20.293 -20.440  0.00  0.00    +0.056 C 
ATOM      5  C   UNL     1      36.591 -19.923 -20.499  0.00  0.00    -0.001 C 
ATOM      6  C   UNL     1      34.394 -21.377 -19.582  0.00  0.00    +0.011 C 
ATOM      7  C   UNL     1      36.780 -21.007 -19.642  0.00  0.00    -0.000 C 
ATOM      8  C   UNL     1      35.682 -21.734 -19.184  0.00  0.00    +0.001 C 
ENDBRANCH   1   3
BRANCH   1   9
ATOM      9  O   UNL     1      36.262 -18.336 -22.707  0.00  0.00    -0.376 OA
ATOM     10  H   UNL     1      35.945 -18.334 -23.624  0.00  0.00    +0.211 HD
ENDBRANCH   1   9
BRANCH   1  11
ATOM     11  C   UNL     1      35.025 -17.059 -21.075  0.00  0.00    +0.244 C 
BRANCH  11  12
ATOM     12  O   UNL     1      33.899 -16.341 -21.563  0.00  0.00    -0.432 OA
BRANCH  12  15
ATOM     13  O   UNL     1      35.179 -15.436 -23.248  0.00  0.00    -0.227 OA
ATOM     14  N   UNL     1      33.027 -14.720 -22.869  0.00  0.00    -0.295 N 
ATOM     15  C   UNL     1      34.131 -15.496 -22.614  0.00  0.00    +0.399 C 
ATOM     16  H   UNL     1      32.217 -14.819 -22.319  0.00  0.00    +0.148 HD
ATOM     17  H   UNL     1      33.048 -14.062 -23.601  0.00  0.00    +0.148 HD
ENDBRANCH  12  15
ENDBRANCH  11  12
ENDBRANCH   1  11
TORSDOF 5
ENDMDL
MODEL 4
REMARK VINA RESULT:      -6.9      1.796      1.957
REMARK  Name = 6918474
REMARK  5 active torsions:
REMARK  status: ('A' for Active; 'I' for Inactive)
REMARK    1  A    between atoms: C_1  and  C_3
REMARK    2  A    between atoms: C_1  and  O_9
REMARK    3  A    between atoms: C_1  and  C_11
REMARK    4  A    between atoms: C_11  and  O_12
REMARK    5  A    between atoms: O_12  and  C_15
REMARK                            x       y       z     vdW  Elec       q    Type
REMARK                         _______ _______ _______ _____ _____    ______ ____
ROOT
ATOM      1  C   UNL     1      35.408 -17.825 -21.469  0.00  0.00    +0.177 C 
ENDROOT
BRANCH   1   3
ATOM      2 CL   UNL     1      37.250 -19.996 -20.284  0.00  0.00    -0.082 Cl
ATOM      3  C   UNL     1      34.769 -19.054 -20.907  0.00  0.00    +0.019 C 
ATOM      4  C   UNL     1      35.527 -20.085 -20.352  0.00  0.00    +0.056 C 
ATOM      5  C   UNL     1      33.378 -19.155 -20.947  0.00  0.00    -0.001 C 
ATOM      6  C   UNL     1      34.894 -21.217 -19.838  0.00  0.00    +0.011 C 
ATOM      7  C   UNL     1      32.746 -20.287 -20.433  0.00  0.00    -0.000 C 
ATOM      8  C   UNL     1      33.505 -21.319 -19.879  0.00  0.00    +0.001 C 
ENDBRANCH   1   3
BRANCH   1   9
ATOM      9  O   UNL     1      35.294 -16.756 -20.523  0.00  0.00    -0.376 OA
ATOM     10  H   UNL     1      35.586 -15.928 -20.935  0.00  0.00    +0.211 HD
ENDBRANCH   1   9
BRANCH   1  11
ATOM     11  C   UNL     1      34.788 -17.378 -22.800  0.00  0.00    +0.244 C 
BRANCH  11  12
ATOM     12  O   UNL     1      35.362 -16.141 -23.202  0.00  0.00    -0.432 OA
BRANCH  12  15
ATOM     13  O   UNL     1      34.454 -14.249 -22.258  0.00  0.00    -0.227 OA
ATOM     14  N   UNL     1      33.790 -14.983 -24.333  0.00  0.00    -0.295 N 
ATOM     15  C   UNL     1      34.531 -15.054 -23.179  0.00  0.00    +0.399 C 
ATOM     16  H   UNL     1      33.902 -15.665 -25.034  0.00  0.00    +0.148 HD
ATOM     17  H   UNL     1      33.145 -14.249 -24.459  0.00  0.00    +0.148 HD
ENDBRANCH  12  15
ENDBRANCH  11  12
ENDBRANCH   1  11
TORSDOF 5
ENDMDL
MODEL 5
REMARK VINA RESULT:      -6.6     11.029     12.203
REMARK  Name = 6918474
REMARK  5 active torsions:
REMARK  status: ('A' for Active; 'I' for Inactive)
REMARK    1  A    between atoms: C_1  and  C_3
REMARK    2  A    between atoms: C_1  and  O_9
REMARK    3  A    between atoms: C_1  and  C_11
REMARK    4  A    between atoms: C_11  and  O_12
REMARK    5  A    between atoms: O_12  and  C_15
REMARK                            x       y       z     vdW  Elec       q    Type
REMARK                         _______ _______ _______ _____ _____    ______ ____
ROOT
ATOM      1  C   UNL     1      32.714  -7.542 -20.790  0.00  0.00    +0.177 C 
ENDROOT
BRANCH   1   3
ATOM      2 CL   UNL     1      32.061  -8.795 -23.531  0.00  0.00    -0.082 Cl
ATOM      3  C   UNL     1      32.090  -8.900 -20.808  0.00  0.00    +0.019 C 
ATOM      4  C   UNL     1      31.762  -9.540 -22.002  0.00  0.00    +0.056 C 
ATOM      5  C   UNL     1      31.836  -9.528 -19.588  0.00  0.00    -0.001 C 
ATOM      6  C   UNL     1      31.180 -10.807 -21.978  0.00  0.00    +0.011 C 
ATOM      7  C   UNL     1      31.254 -10.795 -19.564  0.00  0.00    -0.000 C 
ATOM      8  C   UNL     1      30.926 -11.435 -20.759  0.00  0.00    +0.001 C 
ENDBRANCH   1   3
BRANCH   1   9
ATOM      9  O   UNL     1      33.376  -7.340 -19.537  0.00  0.00    -0.376 OA
ATOM     10  H   UNL     1      33.553  -8.198 -19.122  0.00  0.00    +0.211 HD
ENDBRANCH   1   9
BRANCH   1  11
ATOM     11  C   UNL     1      31.700  -6.409 -21.003  0.00  0.00    +0.244 C 
BRANCH  11  12
ATOM     12  O   UNL     1      32.120  -5.590 -22.086  0.00  0.00    -0.432 OA
BRANCH  12  15
ATOM     13  O   UNL     1      30.899  -5.381 -24.026  0.00  0.00    -0.227 OA
ATOM     14  N   UNL     1      30.406  -4.123 -22.165  0.00  0.00    -0.295 N 
ATOM     15  C   UNL     1      31.125  -5.062 -22.864  0.00  0.00    +0.399 C 
ATOM     16  H   UNL     1      30.643  -3.915 -21.233  0.00  0.00    +0.148 HD
ATOM     17  H   UNL     1      29.656  -3.657 -22.599  0.00  0.00    +0.148 HD
ENDBRANCH  12  15
ENDBRANCH  11  12
ENDBRANCH   1  11
TORSDOF 5
ENDMDL
MODEL 6
REMARK VINA RESULT:      -6.6      3.064      5.759
REMARK  Name = 6918474
REMARK  5 active torsions:
REMARK  status: ('A' for Active; 'I' for Inactive)
REMARK    1  A    between atoms: C_1  and  C_3
REMARK    2  A    between atoms: C_1  and  O_9
REMARK    3  A    between atoms: C_1  and  C_11
REMARK    4  A    between atoms: C_11  and  O_12
REMARK    5  A    between atoms: O_12  and  C_15
REMARK                            x       y       z     vdW  Elec       q    Type
REMARK                         _______ _______ _______ _____ _____    ______ ____
ROOT
ATOM      1  C   UNL     1      35.487 -18.033 -22.280  0.00  0.00    +0.177 C 
ENDROOT
BRANCH   1   3
ATOM      2 CL   UNL     1      34.608 -15.449 -20.846  0.00  0.00    -0.082 Cl
ATOM      3  C   UNL     1      34.828 -16.969 -23.097  0.00  0.00    +0.019 C 
ATOM      4  C   UNL     1      34.400 -15.770 -22.529  0.00  0.00    +0.056 C 
ATOM      5  C   UNL     1      34.645 -17.199 -24.461  0.00  0.00    -0.001 C 
ATOM      6  C   UNL     1      33.788 -14.801 -23.325  0.00  0.00    +0.011 C 
ATOM      7  C   UNL     1      34.034 -16.230 -25.256  0.00  0.00    -0.000 C 
ATOM      8  C   UNL     1      33.605 -15.030 -24.688  0.00  0.00    +0.001 C 
ENDBRANCH   1   3
BRANCH   1   9
ATOM      9  O   UNL     1      36.802 -18.279 -22.791  0.00  0.00    -0.376 OA
ATOM     10  H   UNL     1      36.957 -17.716 -23.566  0.00  0.00    +0.211 HD
ENDBRANCH   1   9
BRANCH   1  11
ATOM     11  C   UNL     1      34.706 -19.355 -22.267  0.00  0.00    +0.244 C 
BRANCH  11  12
ATOM     12  O   UNL     1      33.792 -19.358 -21.179  0.00  0.00    -0.432 OA
BRANCH  12  15
ATOM     13  O   UNL     1      34.996 -20.856 -19.914  0.00  0.00    -0.227 OA
ATOM     14  N   UNL     1      32.699 -20.810 -19.841  0.00  0.00    -0.295 N 
ATOM     15  C   UNL     1      33.927 -20.382 -20.281  0.00  0.00    +0.399 C 
ATOM     16  H   UNL     1      31.878 -20.383 -20.178  0.00  0.00    +0.148 HD
ATOM     17  H   UNL     1      32.639 -21.544 -19.188  0.00  0.00    +0.148 HD
ENDBRANCH  12  15
ENDBRANCH  11  12
ENDBRANCH   1  11
TORSDOF 5
ENDMDL
MODEL 7
REMARK VINA RESULT:      -6.5      2.082      2.747
REMARK  Name = 6918474
REMARK  5 active torsions:
REMARK  status: ('A' for Active; 'I' for Inactive)
REMARK    1  A    between atoms: C_1  and  C_3
REMARK    2  A    between atoms: C_1  and  O_9
REMARK    3  A    between atoms: C_1  and  C_11
REMARK    4  A    between atoms: C_11  and  O_12
REMARK    5  A    between atoms: O_12  and  C_15
REMARK                            x       y       z     vdW  Elec       q    Type
REMARK                         _______ _______ _______ _____ _____    ______ ____
ROOT
ATOM      1  C   UNL     1      34.216 -18.920 -21.661  0.00  0.00    +0.177 C 
ENDROOT
BRANCH   1   3
ATOM      2 CL   UNL     1      37.103 -19.570 -20.792  0.00  0.00    -0.082 Cl
ATOM      3  C   UNL     1      34.419 -20.033 -20.685  0.00  0.00    +0.019 C 
ATOM      4  C   UNL     1      35.690 -20.393 -20.238  0.00  0.00    +0.056 C 
ATOM      5  C   UNL     1      33.296 -20.717 -20.218  0.00  0.00    -0.001 C 
ATOM      6  C   UNL     1      35.839 -21.438 -19.326  0.00  0.00    +0.011 C 
ATOM      7  C   UNL     1      33.445 -21.762 -19.306  0.00  0.00    -0.000 C 
ATOM      8  C   UNL     1      34.717 -22.122 -18.860  0.00  0.00    +0.001 C 
ENDBRANCH   1   3
BRANCH   1   9
ATOM      9  O   UNL     1      34.848 -19.256 -22.902  0.00  0.00    -0.376 OA
ATOM     10  H   UNL     1      35.809 -19.285 -22.778  0.00  0.00    +0.211 HD
ENDBRANCH   1   9
BRANCH   1  11
ATOM     11  C   UNL     1      34.774 -17.577 -21.170  0.00  0.00    +0.244 C 
BRANCH  11  12
ATOM     12  O   UNL     1      33.844 -16.541 -21.457  0.00  0.00    -0.432 OA
BRANCH  12  15
ATOM     13  O   UNL     1      34.999 -14.942 -20.273  0.00  0.00    -0.227 OA
ATOM     14  N   UNL     1      32.710 -14.860 -20.466  0.00  0.00    -0.295 N 
ATOM     15  C   UNL     1      33.948 -15.409 -20.695  0.00  0.00    +0.399 C 
ATOM     16  H   UNL     1      31.904 -15.289 -20.836  0.00  0.00    +0.148 HD
ATOM     17  H   UNL     1      32.628 -14.039 -19.929  0.00  0.00    +0.148 HD
ENDBRANCH  12  15
ENDBRANCH  11  12
ENDBRANCH   1  11
TORSDOF 5
ENDMDL
MODEL 8
REMARK VINA RESULT:      -6.5      6.723      8.490
REMARK  Name = 6918474
REMARK  5 active torsions:
REMARK  status: ('A' for Active; 'I' for Inactive)
REMARK    1  A    between atoms: C_1  and  C_3
REMARK    2  A    between atoms: C_1  and  O_9
REMARK    3  A    between atoms: C_1  and  C_11
REMARK    4  A    between atoms: C_11  and  O_12
REMARK    5  A    between atoms: O_12  and  C_15
REMARK                            x       y       z     vdW  Elec       q    Type
REMARK                         _______ _______ _______ _____ _____    ______ ____
ROOT
ATOM      1  C   UNL     1      35.305 -23.401 -15.624  0.00  0.00    +0.177 C 
ENDROOT
BRANCH   1   3
ATOM      2 CL   UNL     1      32.748 -23.403 -17.347  0.00  0.00    -0.082 Cl
ATOM      3  C   UNL     1      35.356 -22.716 -16.951  0.00  0.00    +0.019 C 
ATOM      4  C   UNL     1      34.245 -22.669 -17.793  0.00  0.00    +0.056 C 
ATOM      5  C   UNL     1      36.552 -22.112 -17.340  0.00  0.00    -0.001 C 
ATOM      6  C   UNL     1      34.332 -22.020 -19.025  0.00  0.00    +0.011 C 
ATOM      7  C   UNL     1      36.638 -21.464 -18.571  0.00  0.00    -0.000 C 
ATOM      8  C   UNL     1      35.528 -21.417 -19.414  0.00  0.00    +0.001 C 
ENDBRANCH   1   3
BRANCH   1   9
ATOM      9  O   UNL     1      34.918 -22.459 -14.617  0.00  0.00    -0.376 OA
ATOM     10  H   UNL     1      35.647 -22.340 -13.989  0.00  0.00    +0.211 HD
ENDBRANCH   1   9
BRANCH   1  11
ATOM     11  C   UNL     1      36.644 -24.035 -15.220  0.00  0.00    +0.244 C 
BRANCH  11  12
ATOM     12  O   UNL     1      36.405 -25.214 -14.464  0.00  0.00    -0.432 OA
BRANCH  12  15
ATOM     13  O   UNL     1      36.328 -26.928 -15.998  0.00  0.00    -0.227 OA
ATOM     14  N   UNL     1      37.925 -26.878 -14.344  0.00  0.00    -0.295 N 
ATOM     15  C   UNL     1      36.837 -26.387 -15.023  0.00  0.00    +0.399 C 
ATOM     16  H   UNL     1      38.282 -26.391 -13.567  0.00  0.00    +0.148 HD
ATOM     17  H   UNL     1      38.345 -27.720 -14.633  0.00  0.00    +0.148 HD
ENDBRANCH  12  15
ENDBRANCH  11  12
ENDBRANCH   1  11
TORSDOF 5
ENDMDL
MODEL 9
REMARK VINA RESULT:      -6.5      3.522      5.622
REMARK  Name = 6918474
REMARK  5 active torsions:
REMARK  status: ('A' for Active; 'I' for Inactive)
REMARK    1  A    between atoms: C_1  and  C_3
REMARK    2  A    between atoms: C_1  and  O_9
REMARK    3  A    between atoms: C_1  and  C_11
REMARK    4  A    between atoms: C_11  and  O_12
REMARK    5  A    between atoms: O_12  and  C_15
REMARK                            x       y       z     vdW  Elec       q    Type
REMARK                         _______ _______ _______ _____ _____    ______ ____
ROOT
ATOM      1  C   UNL     1      35.425 -18.673 -22.275  0.00  0.00    +0.177 C 
ENDROOT
BRANCH   1   3
ATOM      2 CL   UNL     1      34.975 -17.079 -24.875  0.00  0.00    -0.082 Cl
ATOM      3  C   UNL     1      35.032 -17.237 -22.155  0.00  0.00    +0.019 C 
ATOM      4  C   UNL     1      34.808 -16.443 -23.279  0.00  0.00    +0.056 C 
ATOM      5  C   UNL     1      34.890 -16.693 -20.878  0.00  0.00    -0.001 C 
ATOM      6  C   UNL     1      34.443 -15.105 -23.126  0.00  0.00    +0.011 C 
ATOM      7  C   UNL     1      34.525 -15.356 -20.726  0.00  0.00    -0.000 C 
ATOM      8  C   UNL     1      34.301 -14.561 -21.850  0.00  0.00    +0.001 C 
ENDBRANCH   1   3
BRANCH   1   9
ATOM      9  O   UNL     1      34.295 -19.441 -22.704  0.00  0.00    -0.376 OA
ATOM     10  H   UNL     1      34.601 -20.270 -23.103  0.00  0.00    +0.211 HD
ENDBRANCH   1   9
BRANCH   1  11
ATOM     11  C   UNL     1      35.956 -19.266 -20.962  0.00  0.00    +0.244 C 
BRANCH  11  12
ATOM     12  O   UNL     1      35.058 -20.261 -20.490  0.00  0.00    -0.432 OA
BRANCH  12  15
ATOM     13  O   UNL     1      35.211 -22.386 -19.620  0.00  0.00    -0.227 OA
ATOM     14  N   UNL     1      36.631 -20.711 -18.935  0.00  0.00    -0.295 N 
ATOM     15  C   UNL     1      35.596 -21.223 -19.678  0.00  0.00    +0.399 C 
ATOM     16  H   UNL     1      36.887 -19.766 -19.033  0.00  0.00    +0.148 HD
ATOM     17  H   UNL     1      37.115 -21.290 -18.304  0.00  0.00    +0.148 HD
ENDBRANCH  12  15
ENDBRANCH  11  12
ENDBRANCH   1  11
TORSDOF 5
ENDMDL
