MODEL 1
REMARK VINA RESULT:      -8.6      0.000      0.000
REMARK  Name = 100252
REMARK  9 active torsions:
REMARK  status: ('A' for Active; 'I' for Inactive)
REMARK    1  A    between atoms: C_2  and  O_16
REMARK    2  A    between atoms: C_3  and  O_18
REMARK    3  A    between atoms: C_4  and  C_20
REMARK    4  A    between atoms: C_5  and  N_6
REMARK    5  A    between atoms: C_10  and  C_13
REMARK    6  A    between atoms: C_20  and  O_21
REMARK    7  A    between atoms: O_21  and  P_22
REMARK    8  A    between atoms: P_22  and  O_24
REMARK    9  A    between atoms: P_22  and  O_26
REMARK                            x       y       z     vdW  Elec       q    Type
REMARK                         _______ _______ _______ _____ _____    ______ ____
ROOT
ATOM      1  O   UNL     1      36.066 -23.005 -14.600  0.00  0.00    -0.332 OA
ATOM      2  C   UNL     1      36.032 -25.287 -14.047  0.00  0.00    +0.171 C 
ATOM      3  C   UNL     1      34.670 -24.729 -13.683  0.00  0.00    +0.188 C 
ATOM      4  C   UNL     1      36.901 -24.040 -14.056  0.00  0.00    +0.176 C 
ATOM      5  C   UNL     1      34.689 -23.342 -14.329  0.00  0.00    +0.240 C 
ENDROOT
BRANCH   5   6
ATOM      6  N   UNL     1      33.914 -23.261 -15.568  0.00  0.00    -0.172 N 
ATOM      7  N   UNL     1      34.524 -23.135 -16.756  0.00  0.00    -0.120 NA
ATOM      8  N   UNL     1      32.248 -23.197 -16.981  0.00  0.00    -0.191 NA
ATOM      9  C   UNL     1      32.562 -23.296 -15.711  0.00  0.00    +0.250 C 
ATOM     10  C   UNL     1      33.473 -23.100 -17.578  0.00  0.00    +0.104 C 
BRANCH  10  13
ATOM     11  O   UNL     1      34.223 -23.813 -19.704  0.00  0.00    -0.259 OA
ATOM     12  N   UNL     1      33.076 -21.846 -19.612  0.00  0.00    -0.317 N 
ATOM     13  C   UNL     1      33.632 -22.970 -18.995  0.00  0.00    +0.307 C 
ATOM     14  H   UNL     1      33.166 -21.723 -20.584  0.00  0.00    +0.146 HD
ATOM     15  H   UNL     1      32.593 -21.178 -19.073  0.00  0.00    +0.146 HD
ENDBRANCH  10  13
ENDBRANCH   5   6
BRANCH   2  16
ATOM     16  O   UNL     1      36.504 -26.255 -13.135  0.00  0.00    -0.379 OA
ATOM     17  H   UNL     1      37.342 -25.955 -12.749  0.00  0.00    +0.211 HD
ENDBRANCH   2  16
BRANCH   3  18
ATOM     18  O   UNL     1      34.529 -24.587 -12.271  0.00  0.00    -0.378 OA
ATOM     19  H   UNL     1      35.401 -24.657 -11.850  0.00  0.00    +0.211 HD
ENDBRANCH   3  18
BRANCH   4  20
ATOM     20  C   UNL     1      38.156 -24.184 -14.898  0.00  0.00    +0.186 C 
BRANCH  20  21
ATOM     21  O   UNL     1      39.186 -24.720 -14.087  0.00  0.00    -0.271 OA
BRANCH  21  22
ATOM     22  P   UNL     1      39.966 -26.042 -14.602  0.00  0.00    +0.473 P 
ATOM     23  O   UNL     1      41.138 -26.455 -13.761  0.00  0.00    -0.227 OA
BRANCH  22  24
ATOM     24  O   UNL     1      40.306 -25.710 -16.147  0.00  0.00    -0.303 OA
ATOM     25  H   UNL     1      39.901 -24.865 -16.393  0.00  0.00    +0.222 HD
ENDBRANCH  22  24
BRANCH  22  26
ATOM     26  O   UNL     1      38.783 -27.140 -14.710  0.00  0.00    -0.303 OA
ATOM     27  H   UNL     1      38.532 -27.255 -15.639  0.00  0.00    +0.222 HD
ENDBRANCH  22  26
ENDBRANCH  21  22
ENDBRANCH  20  21
ENDBRANCH   4  20
TORSDOF 9
ENDMDL
MODEL 2
REMARK VINA RESULT:      -8.6      2.200      3.296
REMARK  Name = 100252
REMARK  9 active torsions:
REMARK  status: ('A' for Active; 'I' for Inactive)
REMARK    1  A    between atoms: C_2  and  O_16
REMARK    2  A    between atoms: C_3  and  O_18
REMARK    3  A    between atoms: C_4  and  C_20
REMARK    4  A    between atoms: C_5  and  N_6
REMARK    5  A    between atoms: C_10  and  C_13
REMARK    6  A    between atoms: C_20  and  O_21
REMARK    7  A    between atoms: O_21  and  P_22
REMARK    8  A    between atoms: P_22  and  O_24
REMARK    9  A    between atoms: P_22  and  O_26
REMARK                            x       y       z     vdW  Elec       q    Type
REMARK                         _______ _______ _______ _____ _____    ______ ____
ROOT
ATOM      1  O   UNL     1      36.402 -24.136 -14.900  0.00  0.00    -0.332 OA
ATOM      2  C   UNL     1      36.653 -25.128 -12.786  0.00  0.00    +0.171 C 
ATOM      3  C   UNL     1      35.897 -23.830 -12.573  0.00  0.00    +0.188 C 
ATOM      4  C   UNL     1      37.346 -24.884 -14.116  0.00  0.00    +0.176 C 
ATOM      5  C   UNL     1      35.538 -23.409 -14.000  0.00  0.00    +0.240 C 
ENDROOT
BRANCH   5   6
ATOM      6  N   UNL     1      34.141 -23.665 -14.354  0.00  0.00    -0.172 N 
ATOM      7  N   UNL     1      33.266 -24.105 -13.437  0.00  0.00    -0.120 NA
ATOM      8  N   UNL     1      32.279 -23.844 -15.484  0.00  0.00    -0.191 NA
ATOM      9  C   UNL     1      33.546 -23.513 -15.567  0.00  0.00    +0.250 C 
ATOM     10  C   UNL     1      32.155 -24.197 -14.170  0.00  0.00    +0.104 C 
BRANCH  10  13
ATOM     11  O   UNL     1      30.516 -24.301 -12.470  0.00  0.00    -0.259 OA
ATOM     12  N   UNL     1      30.111 -25.481 -14.378  0.00  0.00    -0.317 N 
ATOM     13  C   UNL     1      30.917 -24.641 -13.604  0.00  0.00    +0.307 C 
ATOM     14  H   UNL     1      29.254 -25.805 -14.020  0.00  0.00    +0.146 HD
ATOM     15  H   UNL     1      30.402 -25.747 -15.280  0.00  0.00    +0.146 HD
ENDBRANCH  10  13
ENDBRANCH   5   6
BRANCH   2  16
ATOM     16  O   UNL     1      37.572 -25.417 -11.754  0.00  0.00    -0.379 OA
ATOM     17  H   UNL     1      38.270 -24.743 -11.745  0.00  0.00    +0.211 HD
ENDBRANCH   2  16
BRANCH   3  18
ATOM     18  O   UNL     1      36.732 -22.834 -11.987  0.00  0.00    -0.378 OA
ATOM     19  H   UNL     1      36.323 -21.961 -12.101  0.00  0.00    +0.211 HD
ENDBRANCH   3  18
BRANCH   4  20
ATOM     20  C   UNL     1      37.722 -26.161 -14.845  0.00  0.00    +0.186 C 
BRANCH  20  21
ATOM     21  O   UNL     1      38.895 -26.691 -14.254  0.00  0.00    -0.271 OA
BRANCH  21  22
ATOM     22  P   UNL     1      40.307 -25.951 -14.540  0.00  0.00    +0.473 P 
ATOM     23  O   UNL     1      40.477 -24.626 -13.857  0.00  0.00    -0.227 OA
BRANCH  22  24
ATOM     24  O   UNL     1      40.402 -25.916 -16.154  0.00  0.00    -0.303 OA
ATOM     25  H   UNL     1      39.701 -25.347 -16.507  0.00  0.00    +0.222 HD
ENDBRANCH  22  24
BRANCH  22  26
ATOM     26  O   UNL     1      41.394 -27.076 -14.129  0.00  0.00    -0.303 OA
ATOM     27  H   UNL     1      41.638 -26.966 -13.197  0.00  0.00    +0.222 HD
ENDBRANCH  22  26
ENDBRANCH  21  22
ENDBRANCH  20  21
ENDBRANCH   4  20
TORSDOF 9
ENDMDL
MODEL 3
REMARK VINA RESULT:      -8.4      7.579     11.053
REMARK  Name = 100252
REMARK  9 active torsions:
REMARK  status: ('A' for Active; 'I' for Inactive)
REMARK    1  A    between atoms: C_2  and  O_16
REMARK    2  A    between atoms: C_3  and  O_18
REMARK    3  A    between atoms: C_4  and  C_20
REMARK    4  A    between atoms: C_5  and  N_6
REMARK    5  A    between atoms: C_10  and  C_13
REMARK    6  A    between atoms: C_20  and  O_21
REMARK    7  A    between atoms: O_21  and  P_22
REMARK    8  A    between atoms: P_22  and  O_24
REMARK    9  A    between atoms: P_22  and  O_26
REMARK                            x       y       z     vdW  Elec       q    Type
REMARK                         _______ _______ _______ _____ _____    ______ ____
ROOT
ATOM      1  O   UNL     1      34.920 -17.219 -20.632  0.00  0.00    -0.332 OA
ATOM      2  C   UNL     1      34.913 -17.250 -22.980  0.00  0.00    +0.171 C 
ATOM      3  C   UNL     1      35.696 -18.468 -22.529  0.00  0.00    +0.188 C 
ATOM      4  C   UNL     1      35.002 -16.341 -21.766  0.00  0.00    +0.176 C 
ATOM      5  C   UNL     1      35.409 -18.519 -21.027  0.00  0.00    +0.240 C 
ENDROOT
BRANCH   5   6
ATOM      6  N   UNL     1      34.432 -19.542 -20.651  0.00  0.00    -0.172 N 
ATOM      7  N   UNL     1      34.799 -20.621 -19.944  0.00  0.00    -0.120 NA
ATOM      8  N   UNL     1      32.562 -20.651 -20.423  0.00  0.00    -0.191 NA
ATOM      9  C   UNL     1      33.101 -19.568 -20.932  0.00  0.00    +0.250 C 
ATOM     10  C   UNL     1      33.633 -21.260 -19.833  0.00  0.00    +0.104 C 
BRANCH  10  13
ATOM     11  O   UNL     1      34.191 -23.522 -19.429  0.00  0.00    -0.259 OA
ATOM     12  N   UNL     1      32.638 -22.574 -18.058  0.00  0.00    -0.317 N 
ATOM     13  C   UNL     1      33.524 -22.506 -19.136  0.00  0.00    +0.307 C 
ATOM     14  H   UNL     1      32.537 -23.414 -17.556  0.00  0.00    +0.146 HD
ATOM     15  H   UNL     1      32.115 -21.780 -17.801  0.00  0.00    +0.146 HD
ENDBRANCH  10  13
ENDBRANCH   5   6
BRANCH   2  16
ATOM     16  O   UNL     1      35.440 -16.640 -24.139  0.00  0.00    -0.379 OA
ATOM     17  H   UNL     1      34.719 -16.244 -24.653  0.00  0.00    +0.211 HD
ENDBRANCH   2  16
BRANCH   3  18
ATOM     18  O   UNL     1      37.096 -18.287 -22.733  0.00  0.00    -0.378 OA
ATOM     19  H   UNL     1      37.283 -17.347 -22.884  0.00  0.00    +0.211 HD
ENDBRANCH   3  18
BRANCH   4  20
ATOM     20  C   UNL     1      33.889 -15.311 -21.699  0.00  0.00    +0.186 C 
BRANCH  20  21
ATOM     21  O   UNL     1      34.296 -14.157 -22.413  0.00  0.00    -0.271 OA
BRANCH  21  22
ATOM     22  P   UNL     1      33.389 -13.659 -23.659  0.00  0.00    +0.473 P 
ATOM     23  O   UNL     1      33.215 -14.666 -24.758  0.00  0.00    -0.227 OA
BRANCH  22  24
ATOM     24  O   UNL     1      34.076 -12.264 -24.101  0.00  0.00    -0.303 OA
ATOM     25  H   UNL     1      33.425 -11.548 -24.034  0.00  0.00    +0.222 HD
ENDBRANCH  22  24
BRANCH  22  26
ATOM     26  O   UNL     1      32.018 -13.187 -22.942  0.00  0.00    -0.303 OA
ATOM     27  H   UNL     1      32.066 -12.239 -22.744  0.00  0.00    +0.222 HD
ENDBRANCH  22  26
ENDBRANCH  21  22
ENDBRANCH  20  21
ENDBRANCH   4  20
TORSDOF 9
ENDMDL
MODEL 4
REMARK VINA RESULT:      -8.3      1.224      1.934
REMARK  Name = 100252
REMARK  9 active torsions:
REMARK  status: ('A' for Active; 'I' for Inactive)
REMARK    1  A    between atoms: C_2  and  O_16
REMARK    2  A    between atoms: C_3  and  O_18
REMARK    3  A    between atoms: C_4  and  C_20
REMARK    4  A    between atoms: C_5  and  N_6
REMARK    5  A    between atoms: C_10  and  C_13
REMARK    6  A    between atoms: C_20  and  O_21
REMARK    7  A    between atoms: O_21  and  P_22
REMARK    8  A    between atoms: P_22  and  O_24
REMARK    9  A    between atoms: P_22  and  O_26
REMARK                            x       y       z     vdW  Elec       q    Type
REMARK                         _______ _______ _______ _____ _____    ______ ____
ROOT
ATOM      1  O   UNL     1      37.031 -23.145 -13.236  0.00  0.00    -0.332 OA
ATOM      2  C   UNL     1      36.713 -25.458 -12.980  0.00  0.00    +0.171 C 
ATOM      3  C   UNL     1      35.336 -24.841 -13.134  0.00  0.00    +0.188 C 
ATOM      4  C   UNL     1      37.547 -24.275 -12.515  0.00  0.00    +0.176 C 
ATOM      5  C   UNL     1      35.652 -23.410 -13.572  0.00  0.00    +0.240 C 
ENDROOT
BRANCH   5   6
ATOM      6  N   UNL     1      35.445 -23.174 -15.002  0.00  0.00    -0.172 N 
ATOM      7  N   UNL     1      34.241 -23.354 -15.564  0.00  0.00    -0.120 NA
ATOM      8  N   UNL     1      35.792 -22.671 -17.100  0.00  0.00    -0.191 NA
ATOM      9  C   UNL     1      36.361 -22.769 -15.922  0.00  0.00    +0.250 C 
ATOM     10  C   UNL     1      34.503 -23.037 -16.834  0.00  0.00    +0.104 C 
BRANCH  10  13
ATOM     11  O   UNL     1      33.715 -23.381 -19.035  0.00  0.00    -0.259 OA
ATOM     12  N   UNL     1      32.176 -22.797 -17.460  0.00  0.00    -0.317 N 
ATOM     13  C   UNL     1      33.489 -23.082 -17.843  0.00  0.00    +0.307 C 
ATOM     14  H   UNL     1      31.453 -22.818 -18.128  0.00  0.00    +0.146 HD
ATOM     15  H   UNL     1      31.975 -22.575 -16.522  0.00  0.00    +0.146 HD
ENDBRANCH  10  13
ENDBRANCH   5   6
BRANCH   2  16
ATOM     16  O   UNL     1      36.750 -26.528 -12.060  0.00  0.00    -0.379 OA
ATOM     17  H   UNL     1      37.670 -26.715 -11.819  0.00  0.00    +0.211 HD
ENDBRANCH   2  16
BRANCH   3  18
ATOM     18  O   UNL     1      34.642 -24.807 -11.889  0.00  0.00    -0.378 OA
ATOM     19  H   UNL     1      35.215 -24.418 -11.209  0.00  0.00    +0.211 HD
ENDBRANCH   3  18
BRANCH   4  20
ATOM     20  C   UNL     1      39.030 -24.432 -12.796  0.00  0.00    +0.186 C 
BRANCH  20  21
ATOM     21  O   UNL     1      39.209 -24.615 -14.190  0.00  0.00    -0.271 OA
BRANCH  21  22
ATOM     22  P   UNL     1      39.722 -26.056 -14.720  0.00  0.00    +0.473 P 
ATOM     23  O   UNL     1      38.691 -27.146 -14.691  0.00  0.00    -0.227 OA
BRANCH  22  24
ATOM     24  O   UNL     1      41.051 -26.338 -13.844  0.00  0.00    -0.303 OA
ATOM     25  H   UNL     1      41.314 -27.266 -13.943  0.00  0.00    +0.222 HD
ENDBRANCH  22  24
BRANCH  22  26
ATOM     26  O   UNL     1      40.311 -25.713 -16.187  0.00  0.00    -0.303 OA
ATOM     27  H   UNL     1      41.109 -25.170 -16.096  0.00  0.00    +0.222 HD
ENDBRANCH  22  26
ENDBRANCH  21  22
ENDBRANCH  20  21
ENDBRANCH   4  20
TORSDOF 9
ENDMDL
MODEL 5
REMARK VINA RESULT:      -7.8      2.637      4.069
REMARK  Name = 100252
REMARK  9 active torsions:
REMARK  status: ('A' for Active; 'I' for Inactive)
REMARK    1  A    between atoms: C_2  and  O_16
REMARK    2  A    between atoms: C_3  and  O_18
REMARK    3  A    between atoms: C_4  and  C_20
REMARK    4  A    between atoms: C_5  and  N_6
REMARK    5  A    between atoms: C_10  and  C_13
REMARK    6  A    between atoms: C_20  and  O_21
REMARK    7  A    between atoms: O_21  and  P_22
REMARK    8  A    between atoms: P_22  and  O_24
REMARK    9  A    between atoms: P_22  and  O_26
REMARK                            x       y       z     vdW  Elec       q    Type
REMARK                         _______ _______ _______ _____ _____    ______ ____
ROOT
ATOM      1  O   UNL     1      35.183 -24.766 -15.818  0.00  0.00    -0.332 OA
ATOM      2  C   UNL     1      36.388 -22.818 -15.299  0.00  0.00    +0.171 C 
ATOM      3  C   UNL     1      35.450 -22.462 -16.436  0.00  0.00    +0.188 C 
ATOM      4  C   UNL     1      36.495 -24.328 -15.429  0.00  0.00    +0.176 C 
ATOM      5  C   UNL     1      34.528 -23.681 -16.510  0.00  0.00    +0.240 C 
ENDROOT
BRANCH   5   6
ATOM      6  N   UNL     1      33.207 -23.455 -15.921  0.00  0.00    -0.172 N 
ATOM      7  N   UNL     1      32.111 -23.383 -16.691  0.00  0.00    -0.120 NA
ATOM      8  N   UNL     1      31.602 -23.114 -14.477  0.00  0.00    -0.191 NA
ATOM      9  C   UNL     1      32.896 -23.293 -14.607  0.00  0.00    +0.250 C 
ATOM     10  C   UNL     1      31.167 -23.176 -15.771  0.00  0.00    +0.104 C 
BRANCH  10  13
ATOM     11  O   UNL     1      29.391 -22.277 -17.044  0.00  0.00    -0.259 OA
ATOM     12  N   UNL     1      28.849 -23.788 -15.426  0.00  0.00    -0.317 N 
ATOM     13  C   UNL     1      29.789 -23.029 -16.129  0.00  0.00    +0.307 C 
ATOM     14  H   UNL     1      27.893 -23.712 -15.646  0.00  0.00    +0.146 HD
ATOM     15  H   UNL     1      29.145 -24.398 -14.713  0.00  0.00    +0.146 HD
ENDBRANCH  10  13
ENDBRANCH   5   6
BRANCH   2  16
ATOM     16  O   UNL     1      37.647 -22.186 -15.391  0.00  0.00    -0.379 OA
ATOM     17  H   UNL     1      37.561 -21.255 -15.133  0.00  0.00    +0.211 HD
ENDBRANCH   2  16
BRANCH   3  18
ATOM     18  O   UNL     1      36.156 -22.332 -17.668  0.00  0.00    -0.378 OA
ATOM     19  H   UNL     1      35.536 -22.433 -18.408  0.00  0.00    +0.211 HD
ENDBRANCH   3  18
BRANCH   4  20
ATOM     20  C   UNL     1      36.906 -25.018 -14.141  0.00  0.00    +0.186 C 
BRANCH  20  21
ATOM     21  O   UNL     1      36.725 -24.114 -13.065  0.00  0.00    -0.271 OA
BRANCH  21  22
ATOM     22  P   UNL     1      36.231 -24.701 -11.639  0.00  0.00    +0.473 P 
ATOM     23  O   UNL     1      36.604 -23.868 -10.448  0.00  0.00    -0.227 OA
BRANCH  22  24
ATOM     24  O   UNL     1      36.799 -26.215 -11.628  0.00  0.00    -0.303 OA
ATOM     25  H   UNL     1      37.765 -26.199 -11.711  0.00  0.00    +0.222 HD
ENDBRANCH  22  24
BRANCH  22  26
ATOM     26  O   UNL     1      34.642 -24.903 -11.861  0.00  0.00    -0.303 OA
ATOM     27  H   UNL     1      34.241 -25.242 -11.046  0.00  0.00    +0.222 HD
ENDBRANCH  22  26
ENDBRANCH  21  22
ENDBRANCH  20  21
ENDBRANCH   4  20
TORSDOF 9
ENDMDL
MODEL 6
REMARK VINA RESULT:      -7.7      2.517      4.455
REMARK  Name = 100252
REMARK  9 active torsions:
REMARK  status: ('A' for Active; 'I' for Inactive)
REMARK    1  A    between atoms: C_2  and  O_16
REMARK    2  A    between atoms: C_3  and  O_18
REMARK    3  A    between atoms: C_4  and  C_20
REMARK    4  A    between atoms: C_5  and  N_6
REMARK    5  A    between atoms: C_10  and  C_13
REMARK    6  A    between atoms: C_20  and  O_21
REMARK    7  A    between atoms: O_21  and  P_22
REMARK    8  A    between atoms: P_22  and  O_24
REMARK    9  A    between atoms: P_22  and  O_26
REMARK                            x       y       z     vdW  Elec       q    Type
REMARK                         _______ _______ _______ _____ _____    ______ ____
ROOT
ATOM      1  O   UNL     1      36.884 -26.042 -13.899  0.00  0.00    -0.332 OA
ATOM      2  C   UNL     1      38.796 -24.714 -13.589  0.00  0.00    +0.171 C 
ATOM      3  C   UNL     1      38.511 -24.729 -15.079  0.00  0.00    +0.188 C 
ATOM      4  C   UNL     1      38.083 -25.968 -13.111  0.00  0.00    +0.176 C 
ATOM      5  C   UNL     1      37.120 -25.363 -15.151  0.00  0.00    +0.240 C 
ENDROOT
BRANCH   5   6
ATOM      6  N   UNL     1      36.046 -24.397 -15.392  0.00  0.00    -0.172 N 
ATOM      7  N   UNL     1      34.797 -24.633 -14.964  0.00  0.00    -0.120 NA
ATOM      8  N   UNL     1      34.950 -22.623 -16.046  0.00  0.00    -0.191 NA
ATOM      9  C   UNL     1      36.129 -23.201 -16.034  0.00  0.00    +0.250 C 
ATOM     10  C   UNL     1      34.173 -23.531 -15.385  0.00  0.00    +0.104 C 
BRANCH  10  13
ATOM     11  O   UNL     1      31.897 -23.500 -16.023  0.00  0.00    -0.259 OA
ATOM     12  N   UNL     1      32.381 -22.928 -13.871  0.00  0.00    -0.317 N 
ATOM     13  C   UNL     1      32.775 -23.325 -15.151  0.00  0.00    +0.307 C 
ATOM     14  H   UNL     1      31.428 -22.777 -13.675  0.00  0.00    +0.146 HD
ATOM     15  H   UNL     1      33.056 -22.800 -13.166  0.00  0.00    +0.146 HD
ENDBRANCH  10  13
ENDBRANCH   5   6
BRANCH   2  16
ATOM     16  O   UNL     1      40.173 -24.737 -13.281  0.00  0.00    -0.379 OA
ATOM     17  H   UNL     1      40.559 -23.865 -13.460  0.00  0.00    +0.211 HD
ENDBRANCH   2  16
BRANCH   3  18
ATOM     18  O   UNL     1      39.440 -25.557 -15.775  0.00  0.00    -0.378 OA
ATOM     19  H   UNL     1      39.639 -26.341 -15.240  0.00  0.00    +0.211 HD
ENDBRANCH   3  18
BRANCH   4  20
ATOM     20  C   UNL     1      37.727 -25.935 -11.635  0.00  0.00    +0.186 C 
BRANCH  20  21
ATOM     21  O   UNL     1      36.358 -25.592 -11.507  0.00  0.00    -0.271 OA
BRANCH  21  22
ATOM     22  P   UNL     1      35.980 -24.117 -10.958  0.00  0.00    +0.473 P 
ATOM     23  O   UNL     1      37.127 -23.153 -10.889  0.00  0.00    -0.227 OA
BRANCH  22  24
ATOM     24  O   UNL     1      35.236 -24.409  -9.552  0.00  0.00    -0.303 OA
ATOM     25  H   UNL     1      34.584 -25.116  -9.672  0.00  0.00    +0.222 HD
ENDBRANCH  22  24
BRANCH  22  26
ATOM     26  O   UNL     1      34.768 -23.668 -11.931  0.00  0.00    -0.303 OA
ATOM     27  H   UNL     1      34.000 -24.238 -11.775  0.00  0.00    +0.222 HD
ENDBRANCH  22  26
ENDBRANCH  21  22
ENDBRANCH  20  21
ENDBRANCH   4  20
TORSDOF 9
ENDMDL
MODEL 7
REMARK VINA RESULT:      -7.7      1.765      2.237
REMARK  Name = 100252
REMARK  9 active torsions:
REMARK  status: ('A' for Active; 'I' for Inactive)
REMARK    1  A    between atoms: C_2  and  O_16
REMARK    2  A    between atoms: C_3  and  O_18
REMARK    3  A    between atoms: C_4  and  C_20
REMARK    4  A    between atoms: C_5  and  N_6
REMARK    5  A    between atoms: C_10  and  C_13
REMARK    6  A    between atoms: C_20  and  O_21
REMARK    7  A    between atoms: O_21  and  P_22
REMARK    8  A    between atoms: P_22  and  O_24
REMARK    9  A    between atoms: P_22  and  O_26
REMARK                            x       y       z     vdW  Elec       q    Type
REMARK                         _______ _______ _______ _____ _____    ______ ____
ROOT
ATOM      1  O   UNL     1      36.547 -24.137 -15.027  0.00  0.00    -0.332 OA
ATOM      2  C   UNL     1      36.598 -25.118 -12.893  0.00  0.00    +0.171 C 
ATOM      3  C   UNL     1      35.949 -23.757 -12.733  0.00  0.00    +0.188 C 
ATOM      4  C   UNL     1      37.379 -24.954 -14.187  0.00  0.00    +0.176 C 
ATOM      5  C   UNL     1      35.705 -23.325 -14.181  0.00  0.00    +0.240 C 
ENDROOT
BRANCH   5   6
ATOM      6  N   UNL     1      34.311 -23.462 -14.607  0.00  0.00    -0.172 N 
ATOM      7  N   UNL     1      33.894 -22.957 -15.777  0.00  0.00    -0.120 NA
ATOM      8  N   UNL     1      32.190 -23.987 -14.652  0.00  0.00    -0.191 NA
ATOM      9  C   UNL     1      33.292 -24.072 -13.944  0.00  0.00    +0.250 C 
ATOM     10  C   UNL     1      32.605 -23.300 -15.757  0.00  0.00    +0.104 C 
BRANCH  10  13
ATOM     11  O   UNL     1      30.476 -22.981 -16.734  0.00  0.00    -0.259 OA
ATOM     12  N   UNL     1      32.293 -22.577 -18.048  0.00  0.00    -0.317 N 
ATOM     13  C   UNL     1      31.722 -22.964 -16.833  0.00  0.00    +0.307 C 
ATOM     14  H   UNL     1      31.717 -22.339 -18.809  0.00  0.00    +0.146 HD
ATOM     15  H   UNL     1      33.273 -22.542 -18.141  0.00  0.00    +0.146 HD
ENDBRANCH  10  13
ENDBRANCH   5   6
BRANCH   2  16
ATOM     16  O   UNL     1      37.432 -25.473 -11.811  0.00  0.00    -0.379 OA
ATOM     17  H   UNL     1      38.261 -24.972 -11.864  0.00  0.00    +0.211 HD
ENDBRANCH   2  16
BRANCH   3  18
ATOM     18  O   UNL     1      36.837 -22.830 -12.112  0.00  0.00    -0.378 OA
ATOM     19  H   UNL     1      36.726 -22.872 -11.148  0.00  0.00    +0.211 HD
ENDBRANCH   3  18
BRANCH   4  20
ATOM     20  C   UNL     1      37.678 -26.269 -14.883  0.00  0.00    +0.186 C 
BRANCH  20  21
ATOM     21  O   UNL     1      38.849 -26.827 -14.313  0.00  0.00    -0.271 OA
BRANCH  21  22
ATOM     22  P   UNL     1      40.256 -26.055 -14.527  0.00  0.00    +0.473 P 
ATOM     23  O   UNL     1      40.585 -25.721 -15.952  0.00  0.00    -0.227 OA
BRANCH  22  24
ATOM     24  O   UNL     1      41.331 -26.998 -13.771  0.00  0.00    -0.303 OA
ATOM     25  H   UNL     1      42.167 -26.517 -13.669  0.00  0.00    +0.222 HD
ENDBRANCH  22  24
BRANCH  22  26
ATOM     26  O   UNL     1      40.122 -24.781 -13.539  0.00  0.00    -0.303 OA
ATOM     27  H   UNL     1      39.595 -25.026 -12.764  0.00  0.00    +0.222 HD
ENDBRANCH  22  26
ENDBRANCH  21  22
ENDBRANCH  20  21
ENDBRANCH   4  20
TORSDOF 9
ENDMDL
MODEL 8
REMARK VINA RESULT:      -7.5     10.151     13.015
REMARK  Name = 100252
REMARK  9 active torsions:
REMARK  status: ('A' for Active; 'I' for Inactive)
REMARK    1  A    between atoms: C_2  and  O_16
REMARK    2  A    between atoms: C_3  and  O_18
REMARK    3  A    between atoms: C_4  and  C_20
REMARK    4  A    between atoms: C_5  and  N_6
REMARK    5  A    between atoms: C_10  and  C_13
REMARK    6  A    between atoms: C_20  and  O_21
REMARK    7  A    between atoms: O_21  and  P_22
REMARK    8  A    between atoms: P_22  and  O_24
REMARK    9  A    between atoms: P_22  and  O_26
REMARK                            x       y       z     vdW  Elec       q    Type
REMARK                         _______ _______ _______ _____ _____    ______ ____
ROOT
ATOM      1  O   UNL     1      32.285 -14.626 -21.966  0.00  0.00    -0.332 OA
ATOM      2  C   UNL     1      34.431 -14.710 -22.915  0.00  0.00    +0.171 C 
ATOM      3  C   UNL     1      33.574 -13.875 -23.847  0.00  0.00    +0.188 C 
ATOM      4  C   UNL     1      33.392 -15.521 -22.159  0.00  0.00    +0.176 C 
ATOM      5  C   UNL     1      32.306 -13.642 -23.023  0.00  0.00    +0.240 C 
ENDROOT
BRANCH   5   6
ATOM      6  N   UNL     1      32.221 -12.301 -22.441  0.00  0.00    -0.172 N 
ATOM      7  N   UNL     1      31.872 -12.126 -21.158  0.00  0.00    -0.120 NA
ATOM      8  N   UNL     1      32.281 -10.130 -22.199  0.00  0.00    -0.191 NA
ATOM      9  C   UNL     1      32.463 -11.110 -23.053  0.00  0.00    +0.250 C 
ATOM     10  C   UNL     1      31.923 -10.796 -21.061  0.00  0.00    +0.104 C 
BRANCH  10  13
ATOM     11  O   UNL     1      30.683 -10.455 -19.078  0.00  0.00    -0.259 OA
ATOM     12  N   UNL     1      32.431  -9.045 -19.466  0.00  0.00    -0.317 N 
ATOM     13  C   UNL     1      31.619 -10.121 -19.836  0.00  0.00    +0.307 C 
ATOM     14  H   UNL     1      32.251  -8.558 -18.630  0.00  0.00    +0.146 HD
ATOM     15  H   UNL     1      33.183  -8.776 -20.042  0.00  0.00    +0.146 HD
ENDBRANCH  10  13
ENDBRANCH   5   6
BRANCH   2  16
ATOM     16  O   UNL     1      35.358 -15.533 -23.591  0.00  0.00    -0.379 OA
ATOM     17  H   UNL     1      35.515 -15.179 -24.480  0.00  0.00    +0.211 HD
ENDBRANCH   2  16
BRANCH   3  18
ATOM     18  O   UNL     1      33.238 -14.598 -25.029  0.00  0.00    -0.378 OA
ATOM     19  H   UNL     1      33.049 -13.974 -25.748  0.00  0.00    +0.211 HD
ENDBRANCH   3  18
BRANCH   4  20
ATOM     20  C   UNL     1      33.882 -16.028 -20.815  0.00  0.00    +0.186 C 
BRANCH  20  21
ATOM     21  O   UNL     1      35.088 -16.745 -21.014  0.00  0.00    -0.271 OA
BRANCH  21  22
ATOM     22  P   UNL     1      35.002 -18.329 -21.336  0.00  0.00    +0.473 P 
ATOM     23  O   UNL     1      33.661 -18.954 -21.084  0.00  0.00    -0.227 OA
BRANCH  22  24
ATOM     24  O   UNL     1      36.229 -18.961 -20.493  0.00  0.00    -0.303 OA
ATOM     25  H   UNL     1      36.768 -19.518 -21.075  0.00  0.00    +0.222 HD
ENDBRANCH  22  24
BRANCH  22  26
ATOM     26  O   UNL     1      35.520 -18.416 -22.866  0.00  0.00    -0.303 OA
ATOM     27  H   UNL     1      36.476 -18.260 -22.893  0.00  0.00    +0.222 HD
ENDBRANCH  22  26
ENDBRANCH  21  22
ENDBRANCH  20  21
ENDBRANCH   4  20
TORSDOF 9
ENDMDL
MODEL 9
REMARK VINA RESULT:      -7.5     10.654     13.371
REMARK  Name = 100252
REMARK  9 active torsions:
REMARK  status: ('A' for Active; 'I' for Inactive)
REMARK    1  A    between atoms: C_2  and  O_16
REMARK    2  A    between atoms: C_3  and  O_18
REMARK    3  A    between atoms: C_4  and  C_20
REMARK    4  A    between atoms: C_5  and  N_6
REMARK    5  A    between atoms: C_10  and  C_13
REMARK    6  A    between atoms: C_20  and  O_21
REMARK    7  A    between atoms: O_21  and  P_22
REMARK    8  A    between atoms: P_22  and  O_24
REMARK    9  A    between atoms: P_22  and  O_26
REMARK                            x       y       z     vdW  Elec       q    Type
REMARK                         _______ _______ _______ _____ _____    ______ ____
ROOT
ATOM      1  O   UNL     1      31.988 -14.392 -21.774  0.00  0.00    -0.332 OA
ATOM      2  C   UNL     1      34.179 -14.287 -22.615  0.00  0.00    +0.171 C 
ATOM      3  C   UNL     1      33.378 -13.229 -23.349  0.00  0.00    +0.188 C 
ATOM      4  C   UNL     1      33.095 -15.236 -22.131  0.00  0.00    +0.176 C 
ATOM      5  C   UNL     1      32.073 -13.178 -22.552  0.00  0.00    +0.240 C 
ENDROOT
BRANCH   5   6
ATOM      6  N   UNL     1      31.973 -12.021 -21.661  0.00  0.00    -0.172 N 
ATOM      7  N   UNL     1      32.166 -10.776 -22.122  0.00  0.00    -0.120 NA
ATOM      8  N   UNL     1      31.692 -10.780 -19.884  0.00  0.00    -0.191 NA
ATOM      9  C   UNL     1      31.692 -12.014 -20.330  0.00  0.00    +0.250 C 
ATOM     10  C   UNL     1      31.986 -10.062 -21.009  0.00  0.00    +0.104 C 
BRANCH  10  13
ATOM     11  O   UNL     1      31.591  -7.903 -21.884  0.00  0.00    -0.259 OA
ATOM     12  N   UNL     1      32.788  -8.037 -19.949  0.00  0.00    -0.317 N 
ATOM     13  C   UNL     1      32.096  -8.635 -21.006  0.00  0.00    +0.307 C 
ATOM     14  H   UNL     1      32.883  -7.059 -19.915  0.00  0.00    +0.146 HD
ATOM     15  H   UNL     1      33.179  -8.596 -19.240  0.00  0.00    +0.146 HD
ENDBRANCH  10  13
ENDBRANCH   5   6
BRANCH   2  16
ATOM     16  O   UNL     1      35.129 -14.938 -23.430  0.00  0.00    -0.379 OA
ATOM     17  H   UNL     1      35.933 -15.111 -22.915  0.00  0.00    +0.211 HD
ENDBRANCH   2  16
BRANCH   3  18
ATOM     18  O   UNL     1      33.095 -13.630 -24.687  0.00  0.00    -0.378 OA
ATOM     19  H   UNL     1      33.683 -13.157 -25.298  0.00  0.00    +0.211 HD
ENDBRANCH   3  18
BRANCH   4  20
ATOM     20  C   UNL     1      33.512 -16.071 -20.934  0.00  0.00    +0.186 C 
BRANCH  20  21
ATOM     21  O   UNL     1      34.856 -16.480 -21.114  0.00  0.00    -0.271 OA
BRANCH  21  22
ATOM     22  P   UNL     1      35.143 -17.996 -21.606  0.00  0.00    +0.473 P 
ATOM     23  O   UNL     1      33.917 -18.829 -21.837  0.00  0.00    -0.227 OA
BRANCH  22  24
ATOM     24  O   UNL     1      36.173 -18.571 -20.501  0.00  0.00    -0.303 OA
ATOM     25  H   UNL     1      37.082 -18.368 -20.769  0.00  0.00    +0.222 HD
ENDBRANCH  22  24
BRANCH  22  26
ATOM     26  O   UNL     1      36.078 -17.782 -22.908  0.00  0.00    -0.303 OA
ATOM     27  H   UNL     1      36.309 -18.644 -23.287  0.00  0.00    +0.222 HD
ENDBRANCH  22  26
ENDBRANCH  21  22
ENDBRANCH  20  21
ENDBRANCH   4  20
TORSDOF 9
ENDMDL
