MODEL 1
REMARK VINA RESULT:      -8.5      0.000      0.000
REMARK  Name = 67686
REMARK  4 active torsions:
REMARK  status: ('A' for Active; 'I' for Inactive)
REMARK    1  A    between atoms: N_3  and  C_9
REMARK    2  A    between atoms: N_4  and  C_16
REMARK    3  A    between atoms: C_9  and  C_10
REMARK    4  A    between atoms: C_16  and  C_17
REMARK                            x       y       z     vdW  Elec       q    Type
REMARK                         _______ _______ _______ _____ _____    ______ ____
ROOT
ATOM      1  S   UNL     1      35.369  -9.860 -24.906  0.00  0.00    -0.116 S 
ATOM      2  S   UNL     1      34.408  -7.249 -23.956  0.00  0.00    -0.028 S 
ATOM      3  N   UNL     1      33.717 -11.855 -24.110  0.00  0.00    +0.408 N 
ATOM      4  N   UNL     1      33.005  -9.591 -23.554  0.00  0.00    -0.315 N 
ATOM      5  C   UNL     1      32.591 -10.930 -24.001  0.00  0.00    +0.020 C 
ATOM      6  C   UNL     1      34.560 -11.434 -25.221  0.00  0.00    -0.008 C 
ATOM      7  C   UNL     1      34.119  -8.911 -24.085  0.00  0.00    +0.107 C 
ATOM      8  H   UNL     1      34.255 -11.845 -23.244  0.00  0.00    -0.075 HD
ENDROOT
BRANCH   3   9
ATOM      9  C   UNL     1      33.231 -13.218 -24.338  0.00  0.00    -0.046 C 
BRANCH   9  10
ATOM     10  C   UNL     1      33.421 -14.091 -23.126  0.00  0.00    -0.043 C 
ATOM     11  C   UNL     1      32.497 -14.036 -22.092  0.00  0.00    -0.006 C 
ATOM     12  C   UNL     1      34.517 -14.941 -23.061  0.00  0.00    -0.006 C 
ATOM     13  C   UNL     1      32.673 -14.845 -20.970  0.00  0.00    -0.000 C 
ATOM     14  C   UNL     1      34.692 -15.750 -21.939  0.00  0.00    -0.000 C 
ATOM     15  C   UNL     1      33.770 -15.702 -20.893  0.00  0.00    -0.000 C 
ENDBRANCH   9  10
ENDBRANCH   3   9
BRANCH   4  16
ATOM     16  C   UNL     1      32.000  -8.904 -22.733  0.00  0.00    +0.117 C 
BRANCH  16  17
ATOM     17  C   UNL     1      31.819  -9.569 -21.396  0.00  0.00    -0.002 C 
ATOM     18  C   UNL     1      32.356  -8.979 -20.259  0.00  0.00    -0.003 C 
ATOM     19  C   UNL     1      31.119 -10.765 -21.315  0.00  0.00    -0.003 C 
ATOM     20  C   UNL     1      32.188  -9.595 -19.020  0.00  0.00    -0.000 C 
ATOM     21  C   UNL     1      30.951 -11.381 -20.076  0.00  0.00    -0.000 C 
ATOM     22  C   UNL     1      31.486 -10.797 -18.927  0.00  0.00    -0.000 C 
ENDBRANCH  16  17
ENDBRANCH   4  16
TORSDOF 4
ENDMDL
MODEL 2
REMARK VINA RESULT:      -8.5      3.199      5.441
REMARK  Name = 67686
REMARK  4 active torsions:
REMARK  status: ('A' for Active; 'I' for Inactive)
REMARK    1  A    between atoms: N_3  and  C_9
REMARK    2  A    between atoms: N_4  and  C_16
REMARK    3  A    between atoms: C_9  and  C_10
REMARK    4  A    between atoms: C_16  and  C_17
REMARK                            x       y       z     vdW  Elec       q    Type
REMARK                         _______ _______ _______ _____ _____    ______ ____
ROOT
ATOM      1  S   UNL     1      33.070 -14.544 -20.585  0.00  0.00    -0.116 S 
ATOM      2  S   UNL     1      31.624 -12.258 -21.736  0.00  0.00    -0.028 S 
ATOM      3  N   UNL     1      34.265 -16.017 -22.521  0.00  0.00    +0.408 N 
ATOM      4  N   UNL     1      33.144 -13.983 -23.262  0.00  0.00    -0.315 N 
ATOM      5  C   UNL     1      34.310 -14.867 -23.420  0.00  0.00    +0.020 C 
ATOM      6  C   UNL     1      34.449 -15.548 -21.154  0.00  0.00    -0.008 C 
ATOM      7  C   UNL     1      32.650 -13.576 -22.007  0.00  0.00    +0.107 C 
ATOM      8  H   UNL     1      33.362 -16.486 -22.608  0.00  0.00    -0.075 HD
ENDROOT
BRANCH   3   9
ATOM      9  C   UNL     1      35.318 -16.973 -22.869  0.00  0.00    -0.046 C 
BRANCH   9  10
ATOM     10  C   UNL     1      35.278 -18.197 -21.994  0.00  0.00    -0.043 C 
ATOM     11  C   UNL     1      34.071 -18.850 -21.787  0.00  0.00    -0.006 C 
ATOM     12  C   UNL     1      36.449 -18.656 -21.406  0.00  0.00    -0.006 C 
ATOM     13  C   UNL     1      34.034 -19.985 -20.976  0.00  0.00    -0.000 C 
ATOM     14  C   UNL     1      36.412 -19.790 -20.595  0.00  0.00    -0.000 C 
ATOM     15  C   UNL     1      35.204 -20.455 -20.380  0.00  0.00    -0.000 C 
ENDBRANCH   9  10
ENDBRANCH   3   9
BRANCH   4  16
ATOM     16  C   UNL     1      32.726 -13.327 -24.506  0.00  0.00    +0.117 C 
BRANCH  16  17
ATOM     17  C   UNL     1      33.654 -12.205 -24.887  0.00  0.00    -0.002 C 
ATOM     18  C   UNL     1      33.910 -11.189 -23.977  0.00  0.00    -0.003 C 
ATOM     19  C   UNL     1      34.242 -12.201 -26.145  0.00  0.00    -0.003 C 
ATOM     20  C   UNL     1      34.770 -10.150 -24.330  0.00  0.00    -0.000 C 
ATOM     21  C   UNL     1      35.102 -11.162 -26.498  0.00  0.00    -0.000 C 
ATOM     22  C   UNL     1      35.366 -10.135 -25.591  0.00  0.00    -0.000 C 
ENDBRANCH  16  17
ENDBRANCH   4  16
TORSDOF 4
ENDMDL
MODEL 3
REMARK VINA RESULT:      -8.4     10.479     13.986
REMARK  Name = 67686
REMARK  4 active torsions:
REMARK  status: ('A' for Active; 'I' for Inactive)
REMARK    1  A    between atoms: N_3  and  C_9
REMARK    2  A    between atoms: N_4  and  C_16
REMARK    3  A    between atoms: C_9  and  C_10
REMARK    4  A    between atoms: C_16  and  C_17
REMARK                            x       y       z     vdW  Elec       q    Type
REMARK                         _______ _______ _______ _____ _____    ______ ____
ROOT
ATOM      1  S   UNL     1      32.207 -23.239 -16.631  0.00  0.00    -0.116 S 
ATOM      2  S   UNL     1      32.710 -23.813 -13.793  0.00  0.00    -0.028 S 
ATOM      3  N   UNL     1      34.464 -22.388 -17.868  0.00  0.00    +0.408 N 
ATOM      4  N   UNL     1      34.711 -23.067 -15.540  0.00  0.00    -0.315 N 
ATOM      5  C   UNL     1      35.304 -23.070 -16.887  0.00  0.00    +0.020 C 
ATOM      6  C   UNL     1      33.262 -23.182 -18.086  0.00  0.00    -0.008 C 
ATOM      7  C   UNL     1      33.359 -23.375 -15.292  0.00  0.00    +0.107 C 
ATOM      8  H   UNL     1      34.209 -21.463 -17.519  0.00  0.00    -0.075 HD
ENDROOT
BRANCH   3   9
ATOM      9  C   UNL     1      35.191 -22.223 -19.128  0.00  0.00    -0.046 C 
BRANCH   9  10
ATOM     10  C   UNL     1      34.728 -21.009 -19.889  0.00  0.00    -0.043 C 
ATOM     11  C   UNL     1      35.666 -20.163 -20.465  0.00  0.00    -0.006 C 
ATOM     12  C   UNL     1      33.368 -20.753 -20.005  0.00  0.00    -0.006 C 
ATOM     13  C   UNL     1      35.237 -19.039 -21.170  0.00  0.00    -0.000 C 
ATOM     14  C   UNL     1      32.939 -19.629 -20.711  0.00  0.00    -0.000 C 
ATOM     15  C   UNL     1      33.874 -18.772 -21.293  0.00  0.00    -0.000 C 
ENDBRANCH   9  10
ENDBRANCH   3   9
BRANCH   4  16
ATOM     16  C   UNL     1      35.701 -23.012 -14.458  0.00  0.00    +0.117 C 
BRANCH  16  17
ATOM     17  C   UNL     1      36.658 -24.172 -14.514  0.00  0.00    -0.002 C 
ATOM     18  C   UNL     1      36.176 -25.465 -14.364  0.00  0.00    -0.003 C 
ATOM     19  C   UNL     1      38.011 -23.933 -14.714  0.00  0.00    -0.003 C 
ATOM     20  C   UNL     1      37.063 -26.540 -14.416  0.00  0.00    -0.000 C 
ATOM     21  C   UNL     1      38.898 -25.008 -14.766  0.00  0.00    -0.000 C 
ATOM     22  C   UNL     1      38.425 -26.312 -14.617  0.00  0.00    -0.000 C 
ENDBRANCH  16  17
ENDBRANCH   4  16
TORSDOF 4
ENDMDL
MODEL 4
REMARK VINA RESULT:      -8.3      3.432      7.489
REMARK  Name = 67686
REMARK  4 active torsions:
REMARK  status: ('A' for Active; 'I' for Inactive)
REMARK    1  A    between atoms: N_3  and  C_9
REMARK    2  A    between atoms: N_4  and  C_16
REMARK    3  A    between atoms: C_9  and  C_10
REMARK    4  A    between atoms: C_16  and  C_17
REMARK                            x       y       z     vdW  Elec       q    Type
REMARK                         _______ _______ _______ _____ _____    ______ ____
ROOT
ATOM      1  S   UNL     1      31.948  -6.524 -20.631  0.00  0.00    -0.116 S 
ATOM      2  S   UNL     1      32.196  -9.327 -19.780  0.00  0.00    -0.028 S 
ATOM      3  N   UNL     1      31.728  -6.339 -23.325  0.00  0.00    +0.408 N 
ATOM      4  N   UNL     1      31.786  -8.597 -22.409  0.00  0.00    -0.315 N 
ATOM      5  C   UNL     1      31.197  -7.697 -23.413  0.00  0.00    +0.020 C 
ATOM      6  C   UNL     1      31.256  -5.732 -22.088  0.00  0.00    -0.008 C 
ATOM      7  C   UNL     1      31.944  -8.244 -21.055  0.00  0.00    +0.107 C 
ATOM      8  H   UNL     1      32.748  -6.369 -23.329  0.00  0.00    -0.075 HD
ENDROOT
BRANCH   3   9
ATOM      9  C   UNL     1      31.284  -5.547 -24.474  0.00  0.00    -0.046 C 
BRANCH   9  10
ATOM     10  C   UNL     1      32.422  -5.221 -25.405  0.00  0.00    -0.043 C 
ATOM     11  C   UNL     1      32.295  -4.163 -26.295  0.00  0.00    -0.006 C 
ATOM     12  C   UNL     1      33.583  -5.981 -25.358  0.00  0.00    -0.006 C 
ATOM     13  C   UNL     1      33.349  -3.860 -27.156  0.00  0.00    -0.000 C 
ATOM     14  C   UNL     1      34.637  -5.678 -26.220  0.00  0.00    -0.000 C 
ATOM     15  C   UNL     1      34.520  -4.617 -27.119  0.00  0.00    -0.000 C 
ENDBRANCH   9  10
ENDBRANCH   3   9
BRANCH   4  16
ATOM     16  C   UNL     1      31.917  -9.986 -22.865  0.00  0.00    +0.117 C 
BRANCH  16  17
ATOM     17  C   UNL     1      33.098 -10.166 -23.781  0.00  0.00    -0.002 C 
ATOM     18  C   UNL     1      33.164 -11.284 -24.601  0.00  0.00    -0.003 C 
ATOM     19  C   UNL     1      34.106  -9.212 -23.793  0.00  0.00    -0.003 C 
ATOM     20  C   UNL     1      34.258 -11.451 -25.449  0.00  0.00    -0.000 C 
ATOM     21  C   UNL     1      35.200  -9.378 -24.641  0.00  0.00    -0.000 C 
ATOM     22  C   UNL     1      35.277 -10.498 -25.470  0.00  0.00    -0.000 C 
ENDBRANCH  16  17
ENDBRANCH   4  16
TORSDOF 4
ENDMDL
MODEL 5
REMARK VINA RESULT:      -8.2      2.609      6.171
REMARK  Name = 67686
REMARK  4 active torsions:
REMARK  status: ('A' for Active; 'I' for Inactive)
REMARK    1  A    between atoms: N_3  and  C_9
REMARK    2  A    between atoms: N_4  and  C_16
REMARK    3  A    between atoms: C_9  and  C_10
REMARK    4  A    between atoms: C_16  and  C_17
REMARK                            x       y       z     vdW  Elec       q    Type
REMARK                         _______ _______ _______ _____ _____    ______ ____
ROOT
ATOM      1  S   UNL     1      34.049 -12.208 -26.703  0.00  0.00    -0.116 S 
ATOM      2  S   UNL     1      32.966 -14.918 -26.353  0.00  0.00    -0.028 S 
ATOM      3  N   UNL     1      33.700 -10.722 -24.464  0.00  0.00    +0.408 N 
ATOM      4  N   UNL     1      33.008 -13.055 -24.318  0.00  0.00    -0.315 N 
ATOM      5  C   UNL     1      33.647 -11.921 -23.631  0.00  0.00    +0.020 C 
ATOM      6  C   UNL     1      34.636 -10.954 -25.556  0.00  0.00    -0.008 C 
ATOM      7  C   UNL     1      33.308 -13.420 -25.645  0.00  0.00    +0.107 C 
ATOM      8  H   UNL     1      32.773 -10.522 -24.839  0.00  0.00    -0.075 HD
ENDROOT
BRANCH   3   9
ATOM      9  C   UNL     1      34.135  -9.573 -23.667  0.00  0.00    -0.046 C 
BRANCH   9  10
ATOM     10  C   UNL     1      33.165  -8.425 -23.763  0.00  0.00    -0.043 C 
ATOM     11  C   UNL     1      33.640  -7.150 -24.038  0.00  0.00    -0.006 C 
ATOM     12  C   UNL     1      31.809  -8.658 -23.575  0.00  0.00    -0.006 C 
ATOM     13  C   UNL     1      32.742  -6.086 -24.127  0.00  0.00    -0.000 C 
ATOM     14  C   UNL     1      30.911  -7.594 -23.664  0.00  0.00    -0.000 C 
ATOM     15  C   UNL     1      31.378  -6.308 -23.940  0.00  0.00    -0.000 C 
ENDBRANCH   9  10
ENDBRANCH   3   9
BRANCH   4  16
ATOM     16  C   UNL     1      32.263 -13.946 -23.422  0.00  0.00    +0.117 C 
BRANCH  16  17
ATOM     17  C   UNL     1      33.180 -14.735 -22.526  0.00  0.00    -0.002 C 
ATOM     18  C   UNL     1      34.076 -15.636 -23.087  0.00  0.00    -0.003 C 
ATOM     19  C   UNL     1      33.119 -14.552 -21.152  0.00  0.00    -0.003 C 
ATOM     20  C   UNL     1      34.925 -16.367 -22.257  0.00  0.00    -0.000 C 
ATOM     21  C   UNL     1      33.968 -15.283 -20.322  0.00  0.00    -0.000 C 
ATOM     22  C   UNL     1      34.872 -16.191 -20.874  0.00  0.00    -0.000 C 
ENDBRANCH  16  17
ENDBRANCH   4  16
TORSDOF 4
ENDMDL
MODEL 6
REMARK VINA RESULT:      -8.1      2.620      6.055
REMARK  Name = 67686
REMARK  4 active torsions:
REMARK  status: ('A' for Active; 'I' for Inactive)
REMARK    1  A    between atoms: N_3  and  C_9
REMARK    2  A    between atoms: N_4  and  C_16
REMARK    3  A    between atoms: C_9  and  C_10
REMARK    4  A    between atoms: C_16  and  C_17
REMARK                            x       y       z     vdW  Elec       q    Type
REMARK                         _______ _______ _______ _____ _____    ______ ____
ROOT
ATOM      1  S   UNL     1      33.792 -14.877 -21.020  0.00  0.00    -0.116 S 
ATOM      2  S   UNL     1      34.848 -15.743 -23.623  0.00  0.00    -0.028 S 
ATOM      3  N   UNL     1      32.313 -12.621 -21.270  0.00  0.00    +0.408 N 
ATOM      4  N   UNL     1      33.148 -13.588 -23.346  0.00  0.00    -0.315 N 
ATOM      5  C   UNL     1      32.024 -12.920 -22.670  0.00  0.00    +0.020 C 
ATOM      6  C   UNL     1      32.384 -13.873 -20.529  0.00  0.00    -0.008 C 
ATOM      7  C   UNL     1      33.863 -14.660 -22.777  0.00  0.00    +0.107 C 
ATOM      8  H   UNL     1      33.203 -12.126 -21.201  0.00  0.00    -0.075 HD
ENDROOT
BRANCH   3   9
ATOM      9  C   UNL     1      31.265 -11.766 -20.709  0.00  0.00    -0.046 C 
BRANCH   9  10
ATOM     10  C   UNL     1      31.590 -10.304 -20.863  0.00  0.00    -0.043 C 
ATOM     11  C   UNL     1      31.485  -9.708 -22.112  0.00  0.00    -0.006 C 
ATOM     12  C   UNL     1      31.990  -9.572 -19.753  0.00  0.00    -0.006 C 
ATOM     13  C   UNL     1      31.786  -8.354 -22.255  0.00  0.00    -0.000 C 
ATOM     14  C   UNL     1      32.290  -8.217 -19.896  0.00  0.00    -0.000 C 
ATOM     15  C   UNL     1      32.189  -7.608 -21.148  0.00  0.00    -0.000 C 
ENDBRANCH   9  10
ENDBRANCH   3   9
BRANCH   4  16
ATOM     16  C   UNL     1      33.268 -13.249 -24.769  0.00  0.00    +0.117 C 
BRANCH  16  17
ATOM     17  C   UNL     1      34.006 -11.953 -24.975  0.00  0.00    -0.002 C 
ATOM     18  C   UNL     1      34.674 -11.729 -26.172  0.00  0.00    -0.003 C 
ATOM     19  C   UNL     1      34.009 -11.000 -23.967  0.00  0.00    -0.003 C 
ATOM     20  C   UNL     1      35.358 -10.529 -26.363  0.00  0.00    -0.000 C 
ATOM     21  C   UNL     1      34.693  -9.799 -24.158  0.00  0.00    -0.000 C 
ATOM     22  C   UNL     1      35.368  -9.563 -25.356  0.00  0.00    -0.000 C 
ENDBRANCH  16  17
ENDBRANCH   4  16
TORSDOF 4
ENDMDL
MODEL 7
REMARK VINA RESULT:      -8.1      3.495      6.126
REMARK  Name = 67686
REMARK  4 active torsions:
REMARK  status: ('A' for Active; 'I' for Inactive)
REMARK    1  A    between atoms: N_3  and  C_9
REMARK    2  A    between atoms: N_4  and  C_16
REMARK    3  A    between atoms: C_9  and  C_10
REMARK    4  A    between atoms: C_16  and  C_17
REMARK                            x       y       z     vdW  Elec       q    Type
REMARK                         _______ _______ _______ _____ _____    ______ ____
ROOT
ATOM      1  S   UNL     1      32.487 -15.173 -20.352  0.00  0.00    -0.116 S 
ATOM      2  S   UNL     1      31.683 -12.422 -21.004  0.00  0.00    -0.028 S 
ATOM      3  N   UNL     1      34.258 -16.128 -22.167  0.00  0.00    +0.408 N 
ATOM      4  N   UNL     1      33.589 -13.800 -22.446  0.00  0.00    -0.315 N 
ATOM      5  C   UNL     1      34.689 -14.776 -22.513  0.00  0.00    +0.020 C 
ATOM      6  C   UNL     1      33.933 -16.165 -20.748  0.00  0.00    -0.008 C 
ATOM      7  C   UNL     1      32.676 -13.740 -21.375  0.00  0.00    +0.107 C 
ATOM      8  H   UNL     1      33.436 -16.378 -22.718  0.00  0.00    -0.075 HD
ENDROOT
BRANCH   3   9
ATOM      9  C   UNL     1      35.322 -17.089 -22.463  0.00  0.00    -0.046 C 
BRANCH   9  10
ATOM     10  C   UNL     1      35.176 -18.354 -21.659  0.00  0.00    -0.043 C 
ATOM     11  C   UNL     1      36.302 -18.942 -21.100  0.00  0.00    -0.006 C 
ATOM     12  C   UNL     1      33.917 -18.913 -21.487  0.00  0.00    -0.006 C 
ATOM     13  C   UNL     1      36.167 -20.114 -20.355  0.00  0.00    -0.000 C 
ATOM     14  C   UNL     1      33.782 -20.084 -20.742  0.00  0.00    -0.000 C 
ATOM     15  C   UNL     1      34.908 -20.685 -20.176  0.00  0.00    -0.000 C 
ENDBRANCH   9  10
ENDBRANCH   3   9
BRANCH   4  16
ATOM     16  C   UNL     1      33.701 -12.715 -23.428  0.00  0.00    +0.117 C 
BRANCH  16  17
ATOM     17  C   UNL     1      33.468 -13.203 -24.832  0.00  0.00    -0.002 C 
ATOM     18  C   UNL     1      33.044 -14.508 -25.042  0.00  0.00    -0.003 C 
ATOM     19  C   UNL     1      33.679 -12.341 -25.900  0.00  0.00    -0.003 C 
ATOM     20  C   UNL     1      32.828 -14.960 -26.343  0.00  0.00    -0.000 C 
ATOM     21  C   UNL     1      33.463 -12.793 -27.201  0.00  0.00    -0.000 C 
ATOM     22  C   UNL     1      33.037 -14.103 -27.424  0.00  0.00    -0.000 C 
ENDBRANCH  16  17
ENDBRANCH   4  16
TORSDOF 4
ENDMDL
MODEL 8
REMARK VINA RESULT:      -8.0      2.175      5.041
REMARK  Name = 67686
REMARK  4 active torsions:
REMARK  status: ('A' for Active; 'I' for Inactive)
REMARK    1  A    between atoms: N_3  and  C_9
REMARK    2  A    between atoms: N_4  and  C_16
REMARK    3  A    between atoms: C_9  and  C_10
REMARK    4  A    between atoms: C_16  and  C_17
REMARK                            x       y       z     vdW  Elec       q    Type
REMARK                         _______ _______ _______ _____ _____    ______ ____
ROOT
ATOM      1  S   UNL     1      34.138 -12.194 -26.547  0.00  0.00    -0.116 S 
ATOM      2  S   UNL     1      32.993 -14.788 -25.772  0.00  0.00    -0.028 S 
ATOM      3  N   UNL     1      33.926 -10.394 -24.532  0.00  0.00    +0.408 N 
ATOM      4  N   UNL     1      33.174 -12.658 -24.028  0.00  0.00    -0.315 N 
ATOM      5  C   UNL     1      33.874 -11.460 -23.535  0.00  0.00    +0.020 C 
ATOM      6  C   UNL     1      34.807 -10.810 -25.615  0.00  0.00    -0.008 C 
ATOM      7  C   UNL     1      33.408 -13.218 -25.299  0.00  0.00    +0.107 C 
ATOM      8  H   UNL     1      32.989 -10.218 -24.896  0.00  0.00    -0.075 HD
ENDROOT
BRANCH   3   9
ATOM      9  C   UNL     1      34.426  -9.159 -23.925  0.00  0.00    -0.046 C 
BRANCH   9  10
ATOM     10  C   UNL     1      33.319  -8.351 -23.303  0.00  0.00    -0.043 C 
ATOM     11  C   UNL     1      32.133  -8.165 -24.000  0.00  0.00    -0.006 C 
ATOM     12  C   UNL     1      33.499  -7.803 -22.040  0.00  0.00    -0.006 C 
ATOM     13  C   UNL     1      31.107  -7.417 -23.424  0.00  0.00    -0.000 C 
ATOM     14  C   UNL     1      32.473  -7.054 -21.464  0.00  0.00    -0.000 C 
ATOM     15  C   UNL     1      31.276  -6.861 -22.156  0.00  0.00    -0.000 C 
ENDBRANCH   9  10
ENDBRANCH   3   9
BRANCH   4  16
ATOM     16  C   UNL     1      32.443 -13.387 -22.985  0.00  0.00    +0.117 C 
BRANCH  16  17
ATOM     17  C   UNL     1      31.956 -12.470 -21.896  0.00  0.00    -0.002 C 
ATOM     18  C   UNL     1      32.241 -12.770 -20.571  0.00  0.00    -0.003 C 
ATOM     19  C   UNL     1      31.229 -11.336 -22.231  0.00  0.00    -0.003 C 
ATOM     20  C   UNL     1      31.790 -11.920 -19.562  0.00  0.00    -0.000 C 
ATOM     21  C   UNL     1      30.778 -10.486 -21.222  0.00  0.00    -0.000 C 
ATOM     22  C   UNL     1      31.058 -10.777 -19.886  0.00  0.00    -0.000 C 
ENDBRANCH  16  17
ENDBRANCH   4  16
TORSDOF 4
ENDMDL
MODEL 9
REMARK VINA RESULT:      -8.0      4.197      7.613
REMARK  Name = 67686
REMARK  4 active torsions:
REMARK  status: ('A' for Active; 'I' for Inactive)
REMARK    1  A    between atoms: N_3  and  C_9
REMARK    2  A    between atoms: N_4  and  C_16
REMARK    3  A    between atoms: C_9  and  C_10
REMARK    4  A    between atoms: C_16  and  C_17
REMARK                            x       y       z     vdW  Elec       q    Type
REMARK                         _______ _______ _______ _____ _____    ______ ____
ROOT
ATOM      1  S   UNL     1      33.700 -17.549 -25.591  0.00  0.00    -0.116 S 
ATOM      2  S   UNL     1      34.959 -19.999 -24.563  0.00  0.00    -0.028 S 
ATOM      3  N   UNL     1      34.059 -15.477 -23.882  0.00  0.00    +0.408 N 
ATOM      4  N   UNL     1      35.167 -17.564 -23.281  0.00  0.00    -0.315 N 
ATOM      5  C   UNL     1      35.259 -16.096 -23.324  0.00  0.00    +0.020 C 
ATOM      6  C   UNL     1      33.984 -15.798 -25.301  0.00  0.00    -0.008 C 
ATOM      7  C   UNL     1      34.700 -18.340 -24.361  0.00  0.00    +0.107 C 
ATOM      8  H   UNL     1      33.233 -15.836 -23.402  0.00  0.00    -0.075 HD
ENDROOT
BRANCH   3   9
ATOM      9  C   UNL     1      34.107 -14.025 -23.698  0.00  0.00    -0.046 C 
BRANCH   9  10
ATOM     10  C   UNL     1      33.272 -13.580 -22.526  0.00  0.00    -0.043 C 
ATOM     11  C   UNL     1      32.436 -12.481 -22.661  0.00  0.00    -0.006 C 
ATOM     12  C   UNL     1      33.349 -14.277 -21.328  0.00  0.00    -0.006 C 
ATOM     13  C   UNL     1      31.662 -12.069 -21.577  0.00  0.00    -0.000 C 
ATOM     14  C   UNL     1      32.576 -13.865 -20.243  0.00  0.00    -0.000 C 
ATOM     15  C   UNL     1      31.732 -12.760 -20.367  0.00  0.00    -0.000 C 
ENDBRANCH   9  10
ENDBRANCH   3   9
BRANCH   4  16
ATOM     16  C   UNL     1      35.875 -18.168 -22.146  0.00  0.00    +0.117 C 
BRANCH  16  17
ATOM     17  C   UNL     1      34.981 -19.079 -21.349  0.00  0.00    -0.002 C 
ATOM     18  C   UNL     1      33.621 -18.810 -21.274  0.00  0.00    -0.003 C 
ATOM     19  C   UNL     1      35.528 -20.177 -20.699  0.00  0.00    -0.003 C 
ATOM     20  C   UNL     1      32.793 -19.655 -20.535  0.00  0.00    -0.000 C 
ATOM     21  C   UNL     1      34.700 -21.022 -19.960  0.00  0.00    -0.000 C 
ATOM     22  C   UNL     1      33.332 -20.761 -19.877  0.00  0.00    -0.000 C 
ENDBRANCH  16  17
ENDBRANCH   4  16
TORSDOF 4
ENDMDL
