MODEL 1
REMARK VINA RESULT:     -10.4      0.000      0.000
REMARK  Name = 5281417
REMARK  8 active torsions:
REMARK  status: ('A' for Active; 'I' for Inactive)
REMARK    1  A    between atoms: C_2  and  O_7
REMARK    2  A    between atoms: C_3  and  O_9
REMARK    3  A    between atoms: C_4  and  O_11
REMARK    4  A    between atoms: C_5  and  C_27
REMARK    5  A    between atoms: C_6  and  O_13
REMARK    6  A    between atoms: O_13  and  C_16
REMARK    7  A    between atoms: C_18  and  O_25
REMARK    8  A    between atoms: C_27  and  O_28
REMARK                            x       y       z     vdW  Elec       q    Type
REMARK                         _______ _______ _______ _____ _____    ______ ____
ROOT
ATOM      1  O   UNL     1      36.449 -23.469 -14.003  0.00  0.00    -0.316 OA
ATOM      2  C   UNL     1      37.180 -26.245 -13.913  0.00  0.00    +0.173 C 
ATOM      3  C   UNL     1      37.703 -25.227 -12.900  0.00  0.00    +0.169 C 
ATOM      4  C   UNL     1      36.730 -25.561 -15.204  0.00  0.00    +0.210 C 
ATOM      5  C   UNL     1      36.714 -24.070 -12.733  0.00  0.00    +0.177 C 
ATOM      6  C   UNL     1      35.820 -24.367 -14.912  0.00  0.00    +0.318 C 
ENDROOT
BRANCH   2   7
ATOM      7  O   UNL     1      38.237 -27.161 -14.204  0.00  0.00    -0.379 OA
ATOM      8  H   UNL     1      38.280 -27.311 -15.162  0.00  0.00    +0.211 HD
ENDBRANCH   2   7
BRANCH   3   9
ATOM      9  O   UNL     1      37.893 -25.869 -11.641  0.00  0.00    -0.379 OA
ATOM     10  H   UNL     1      38.199 -26.777 -11.785  0.00  0.00    +0.211 HD
ENDBRANCH   3   9
BRANCH   4  11
ATOM     11  O   UNL     1      36.004 -26.492 -16.005  0.00  0.00    -0.377 OA
ATOM     12  H   UNL     1      36.626 -27.060 -16.486  0.00  0.00    +0.211 HD
ENDBRANCH   4  11
BRANCH   6  13
ATOM     13  O   UNL     1      35.561 -23.701 -16.147  0.00  0.00    -0.447 OA
BRANCH  13  16
ATOM     14  O   UNL     1      30.295 -22.307 -17.156  0.00  0.00    -0.421 OA
ATOM     15  O   UNL     1      28.135 -22.085 -16.425  0.00  0.00    -0.244 OA
ATOM     16  C   UNL     1      34.260 -23.357 -16.396  0.00  0.00    +0.175 C 
ATOM     17  C   UNL     1      33.318 -23.476 -15.373  0.00  0.00    +0.043 C 
ATOM     18  C   UNL     1      33.886 -22.894 -17.657  0.00  0.00    +0.171 C 
ATOM     19  C   UNL     1      31.986 -23.129 -15.611  0.00  0.00    +0.038 C 
ATOM     20  C   UNL     1      31.627 -22.668 -16.875  0.00  0.00    +0.152 C 
ATOM     21  C   UNL     1      32.561 -22.546 -17.903  0.00  0.00    +0.077 C 
ATOM     22  C   UNL     1      30.962 -23.231 -14.586  0.00  0.00    +0.010 C 
ATOM     23  C   UNL     1      29.702 -22.888 -14.859  0.00  0.00    +0.082 C 
ATOM     24  C   UNL     1      29.297 -22.398 -16.190  0.00  0.00    +0.346 C 
BRANCH  18  25
ATOM     25  O   UNL     1      34.807 -22.777 -18.654  0.00  0.00    -0.503 OA
ATOM     26  H   UNL     1      35.654 -23.164 -18.558  0.00  0.00    +0.292 HD
ENDBRANCH  18  25
ENDBRANCH  13  16
ENDBRANCH   6  13
BRANCH   5  27
ATOM     27  C   UNL     1      37.267 -22.983 -11.816  0.00  0.00    +0.169 C 
BRANCH  27  28
ATOM     28  O   UNL     1      38.658 -23.191 -11.657  0.00  0.00    -0.379 OA
ATOM     29  H   UNL     1      38.909 -24.028 -12.076  0.00  0.00    +0.211 HD
ENDBRANCH  27  28
ENDBRANCH   5  27
TORSDOF 8
ENDMDL
MODEL 2
REMARK VINA RESULT:      -9.8      3.102      6.230
REMARK  Name = 5281417
REMARK  8 active torsions:
REMARK  status: ('A' for Active; 'I' for Inactive)
REMARK    1  A    between atoms: C_2  and  O_7
REMARK    2  A    between atoms: C_3  and  O_9
REMARK    3  A    between atoms: C_4  and  O_11
REMARK    4  A    between atoms: C_5  and  C_27
REMARK    5  A    between atoms: C_6  and  O_13
REMARK    6  A    between atoms: O_13  and  C_16
REMARK    7  A    between atoms: C_18  and  O_25
REMARK    8  A    between atoms: C_27  and  O_28
REMARK                            x       y       z     vdW  Elec       q    Type
REMARK                         _______ _______ _______ _____ _____    ______ ____
ROOT
ATOM      1  O   UNL     1      33.242 -23.748 -15.644  0.00  0.00    -0.316 OA
ATOM      2  C   UNL     1      30.542 -23.093 -14.918  0.00  0.00    +0.173 C 
ATOM      3  C   UNL     1      31.492 -23.820 -13.967  0.00  0.00    +0.169 C 
ATOM      4  C   UNL     1      30.977 -23.262 -16.373  0.00  0.00    +0.210 C 
ATOM      5  C   UNL     1      32.948 -23.460 -14.275  0.00  0.00    +0.177 C 
ATOM      6  C   UNL     1      32.467 -22.963 -16.546  0.00  0.00    +0.318 C 
ENDROOT
BRANCH   2   7
ATOM      7  O   UNL     1      29.236 -23.646 -14.745  0.00  0.00    -0.379 OA
ATOM      8  H   UNL     1      29.266 -24.340 -14.068  0.00  0.00    +0.211 HD
ENDBRANCH   2   7
BRANCH   3   9
ATOM      9  O   UNL     1      31.191 -23.449 -12.623  0.00  0.00    -0.379 OA
ATOM     10  H   UNL     1      31.246 -22.486 -12.534  0.00  0.00    +0.211 HD
ENDBRANCH   3   9
BRANCH   4  11
ATOM     11  O   UNL     1      30.241 -22.358 -17.196  0.00  0.00    -0.377 OA
ATOM     12  H   UNL     1      29.410 -22.121 -16.754  0.00  0.00    +0.211 HD
ENDBRANCH   4  11
BRANCH   6  13
ATOM     13  O   UNL     1      32.825 -23.280 -17.890  0.00  0.00    -0.447 OA
BRANCH  13  16
ATOM     14  O   UNL     1      36.271 -19.763 -20.430  0.00  0.00    -0.421 OA
ATOM     15  O   UNL     1      36.629 -18.138 -22.004  0.00  0.00    -0.244 OA
ATOM     16  C   UNL     1      33.676 -22.412 -18.518  0.00  0.00    +0.175 C 
ATOM     17  C   UNL     1      33.182 -21.591 -19.532  0.00  0.00    +0.043 C 
ATOM     18  C   UNL     1      35.018 -22.352 -18.144  0.00  0.00    +0.171 C 
ATOM     19  C   UNL     1      34.038 -20.699 -20.182  0.00  0.00    +0.038 C 
ATOM     20  C   UNL     1      35.376 -20.650 -19.799  0.00  0.00    +0.152 C 
ATOM     21  C   UNL     1      35.879 -21.466 -18.787  0.00  0.00    +0.077 C 
ATOM     22  C   UNL     1      33.581 -19.819 -21.244  0.00  0.00    +0.010 C 
ATOM     23  C   UNL     1      34.435 -18.983 -21.838  0.00  0.00    +0.082 C 
ATOM     24  C   UNL     1      35.857 -18.913 -21.450  0.00  0.00    +0.346 C 
BRANCH  18  25
ATOM     25  O   UNL     1      35.499 -23.154 -17.153  0.00  0.00    -0.503 OA
ATOM     26  H   UNL     1      36.383 -23.056 -16.858  0.00  0.00    +0.292 HD
ENDBRANCH  18  25
ENDBRANCH  13  16
ENDBRANCH   6  13
BRANCH   5  27
ATOM     27  C   UNL     1      33.922 -24.263 -13.417  0.00  0.00    +0.169 C 
BRANCH  27  28
ATOM     28  O   UNL     1      34.203 -23.523 -12.243  0.00  0.00    -0.379 OA
ATOM     29  H   UNL     1      34.792 -24.038 -11.670  0.00  0.00    +0.211 HD
ENDBRANCH  27  28
ENDBRANCH   5  27
TORSDOF 8
ENDMDL
MODEL 3
REMARK VINA RESULT:      -9.6      2.091      4.410
REMARK  Name = 5281417
REMARK  8 active torsions:
REMARK  status: ('A' for Active; 'I' for Inactive)
REMARK    1  A    between atoms: C_2  and  O_7
REMARK    2  A    between atoms: C_3  and  O_9
REMARK    3  A    between atoms: C_4  and  O_11
REMARK    4  A    between atoms: C_5  and  C_27
REMARK    5  A    between atoms: C_6  and  O_13
REMARK    6  A    between atoms: O_13  and  C_16
REMARK    7  A    between atoms: C_18  and  O_25
REMARK    8  A    between atoms: C_27  and  O_28
REMARK                            x       y       z     vdW  Elec       q    Type
REMARK                         _______ _______ _______ _____ _____    ______ ____
ROOT
ATOM      1  O   UNL     1      35.950 -25.177 -14.783  0.00  0.00    -0.316 OA
ATOM      2  C   UNL     1      35.823 -24.625 -11.967  0.00  0.00    +0.173 C 
ATOM      3  C   UNL     1      36.840 -25.596 -12.567  0.00  0.00    +0.169 C 
ATOM      4  C   UNL     1      34.616 -24.448 -12.889  0.00  0.00    +0.210 C 
ATOM      5  C   UNL     1      37.156 -25.223 -14.018  0.00  0.00    +0.177 C 
ATOM      6  C   UNL     1      35.052 -24.168 -14.327  0.00  0.00    +0.318 C 
ENDROOT
BRANCH   2   7
ATOM      7  O   UNL     1      35.390 -25.158 -10.714  0.00  0.00    -0.379 OA
ATOM      8  H   UNL     1      34.637 -24.642 -10.386  0.00  0.00    +0.211 HD
ENDBRANCH   2   7
BRANCH   3   9
ATOM      9  O   UNL     1      38.041 -25.556 -11.799  0.00  0.00    -0.379 OA
ATOM     10  H   UNL     1      38.767 -25.233 -12.353  0.00  0.00    +0.211 HD
ENDBRANCH   3   9
BRANCH   4  11
ATOM     11  O   UNL     1      33.833 -23.344 -12.435  0.00  0.00    -0.377 OA
ATOM     12  H   UNL     1      33.902 -23.273 -11.470  0.00  0.00    +0.211 HD
ENDBRANCH   4  11
BRANCH   6  13
ATOM     13  O   UNL     1      33.883 -24.158 -15.146  0.00  0.00    -0.447 OA
BRANCH  13  16
ATOM     14  O   UNL     1      34.163 -21.217 -19.832  0.00  0.00    -0.421 OA
ATOM     15  O   UNL     1      35.407 -20.047 -21.359  0.00  0.00    -0.244 OA
ATOM     16  C   UNL     1      33.952 -23.431 -16.303  0.00  0.00    +0.175 C 
ATOM     17  C   UNL     1      35.190 -22.943 -16.725  0.00  0.00    +0.043 C 
ATOM     18  C   UNL     1      32.799 -23.185 -17.046  0.00  0.00    +0.171 C 
ATOM     19  C   UNL     1      35.277 -22.200 -17.905  0.00  0.00    +0.038 C 
ATOM     20  C   UNL     1      34.117 -21.962 -18.637  0.00  0.00    +0.152 C 
ATOM     21  C   UNL     1      32.877 -22.445 -18.223  0.00  0.00    +0.077 C 
ATOM     22  C   UNL     1      36.537 -21.666 -18.394  0.00  0.00    +0.010 C 
ATOM     23  C   UNL     1      36.573 -20.961 -19.527  0.00  0.00    +0.082 C 
ATOM     24  C   UNL     1      35.357 -20.695 -20.320  0.00  0.00    +0.346 C 
BRANCH  18  25
ATOM     25  O   UNL     1      31.592 -23.663 -16.634  0.00  0.00    -0.503 OA
ATOM     26  H   UNL     1      31.400 -23.724 -15.719  0.00  0.00    +0.292 HD
ENDBRANCH  18  25
ENDBRANCH  13  16
ENDBRANCH   6  13
BRANCH   5  27
ATOM     27  C   UNL     1      38.079 -26.245 -14.675  0.00  0.00    +0.169 C 
BRANCH  27  28
ATOM     28  O   UNL     1      37.443 -26.745 -15.837  0.00  0.00    -0.379 OA
ATOM     29  H   UNL     1      37.768 -26.267 -16.615  0.00  0.00    +0.211 HD
ENDBRANCH  27  28
ENDBRANCH   5  27
TORSDOF 8
ENDMDL
MODEL 4
REMARK VINA RESULT:      -9.6      3.219      5.240
REMARK  Name = 5281417
REMARK  8 active torsions:
REMARK  status: ('A' for Active; 'I' for Inactive)
REMARK    1  A    between atoms: C_2  and  O_7
REMARK    2  A    between atoms: C_3  and  O_9
REMARK    3  A    between atoms: C_4  and  O_11
REMARK    4  A    between atoms: C_5  and  C_27
REMARK    5  A    between atoms: C_6  and  O_13
REMARK    6  A    between atoms: O_13  and  C_16
REMARK    7  A    between atoms: C_18  and  O_25
REMARK    8  A    between atoms: C_27  and  O_28
REMARK                            x       y       z     vdW  Elec       q    Type
REMARK                         _______ _______ _______ _____ _____    ______ ____
ROOT
ATOM      1  O   UNL     1      36.129 -23.707 -16.050  0.00  0.00    -0.316 OA
ATOM      2  C   UNL     1      34.172 -23.767 -13.949  0.00  0.00    +0.173 C 
ATOM      3  C   UNL     1      35.628 -24.176 -13.725  0.00  0.00    +0.169 C 
ATOM      4  C   UNL     1      33.788 -23.872 -15.425  0.00  0.00    +0.210 C 
ATOM      5  C   UNL     1      36.552 -23.454 -14.709  0.00  0.00    +0.177 C 
ATOM      6  C   UNL     1      34.827 -23.194 -16.319  0.00  0.00    +0.318 C 
ENDROOT
BRANCH   2   7
ATOM      7  O   UNL     1      33.345 -24.641 -13.179  0.00  0.00    -0.379 OA
ATOM      8  H   UNL     1      32.454 -24.262 -13.107  0.00  0.00    +0.211 HD
ENDBRANCH   2   7
BRANCH   3   9
ATOM      9  O   UNL     1      36.011 -23.847 -12.391  0.00  0.00    -0.379 OA
ATOM     10  H   UNL     1      36.772 -24.389 -12.131  0.00  0.00    +0.211 HD
ENDBRANCH   3   9
BRANCH   4  11
ATOM     11  O   UNL     1      32.531 -23.229 -15.633  0.00  0.00    -0.377 OA
ATOM     12  H   UNL     1      32.618 -22.568 -16.338  0.00  0.00    +0.211 HD
ENDBRANCH   4  11
BRANCH   6  13
ATOM     13  O   UNL     1      34.476 -23.457 -17.676  0.00  0.00    -0.447 OA
BRANCH  13  16
ATOM     14  O   UNL     1      34.308 -19.094 -21.087  0.00  0.00    -0.421 OA
ATOM     15  O   UNL     1      35.405 -17.537 -22.360  0.00  0.00    -0.244 OA
ATOM     16  C   UNL     1      34.434 -22.379 -18.518  0.00  0.00    +0.175 C 
ATOM     17  C   UNL     1      35.631 -21.843 -18.995  0.00  0.00    +0.043 C 
ATOM     18  C   UNL     1      33.209 -21.828 -18.892  0.00  0.00    +0.171 C 
ATOM     19  C   UNL     1      35.606 -20.744 -19.856  0.00  0.00    +0.038 C 
ATOM     20  C   UNL     1      34.376 -20.203 -20.221  0.00  0.00    +0.152 C 
ATOM     21  C   UNL     1      33.175 -20.731 -19.750  0.00  0.00    +0.077 C 
ATOM     22  C   UNL     1      36.819 -20.143 -20.384  0.00  0.00    +0.010 C 
ATOM     23  C   UNL     1      36.747 -19.092 -21.204  0.00  0.00    +0.082 C 
ATOM     24  C   UNL     1      35.455 -18.502 -21.604  0.00  0.00    +0.346 C 
BRANCH  18  25
ATOM     25  O   UNL     1      32.041 -22.353 -18.427  0.00  0.00    -0.503 OA
ATOM     26  H   UNL     1      31.973 -22.625 -17.534  0.00  0.00    +0.292 HD
ENDBRANCH  18  25
ENDBRANCH  13  16
ENDBRANCH   6  13
BRANCH   5  27
ATOM     27  C   UNL     1      37.995 -23.934 -14.584  0.00  0.00    +0.169 C 
BRANCH  27  28
ATOM     28  O   UNL     1      38.694 -23.575 -15.761  0.00  0.00    -0.379 OA
ATOM     29  H   UNL     1      38.403 -22.697 -16.054  0.00  0.00    +0.211 HD
ENDBRANCH  27  28
ENDBRANCH   5  27
TORSDOF 8
ENDMDL
MODEL 5
REMARK VINA RESULT:      -9.6      3.418      5.830
REMARK  Name = 5281417
REMARK  8 active torsions:
REMARK  status: ('A' for Active; 'I' for Inactive)
REMARK    1  A    between atoms: C_2  and  O_7
REMARK    2  A    between atoms: C_3  and  O_9
REMARK    3  A    between atoms: C_4  and  O_11
REMARK    4  A    between atoms: C_5  and  C_27
REMARK    5  A    between atoms: C_6  and  O_13
REMARK    6  A    between atoms: O_13  and  C_16
REMARK    7  A    between atoms: C_18  and  O_25
REMARK    8  A    between atoms: C_27  and  O_28
REMARK                            x       y       z     vdW  Elec       q    Type
REMARK                         _______ _______ _______ _____ _____    ______ ____
ROOT
ATOM      1  O   UNL     1      35.083 -23.650 -16.007  0.00  0.00    -0.316 OA
ATOM      2  C   UNL     1      32.417 -23.405 -14.966  0.00  0.00    +0.173 C 
ATOM      3  C   UNL     1      33.562 -24.008 -14.152  0.00  0.00    +0.169 C 
ATOM      4  C   UNL     1      32.704 -23.479 -16.466  0.00  0.00    +0.210 C 
ATOM      5  C   UNL     1      34.909 -23.437 -14.604  0.00  0.00    +0.177 C 
ATOM      6  C   UNL     1      34.108 -22.966 -16.789  0.00  0.00    +0.318 C 
ENDROOT
BRANCH   2   7
ATOM      7  O   UNL     1      31.230 -24.144 -14.672  0.00  0.00    -0.379 OA
ATOM      8  H   UNL     1      31.444 -24.872 -14.068  0.00  0.00    +0.211 HD
ENDBRANCH   2   7
BRANCH   3   9
ATOM      9  O   UNL     1      33.366 -23.714 -12.771  0.00  0.00    -0.379 OA
ATOM     10  H   UNL     1      33.988 -24.235 -12.239  0.00  0.00    +0.211 HD
ENDBRANCH   3   9
BRANCH   4  11
ATOM     11  O   UNL     1      31.760 -22.672 -17.169  0.00  0.00    -0.377 OA
ATOM     12  H   UNL     1      31.229 -23.233 -17.757  0.00  0.00    +0.211 HD
ENDBRANCH   4  11
BRANCH   6  13
ATOM     13  O   UNL     1      34.352 -23.199 -18.175  0.00  0.00    -0.447 OA
BRANCH  13  16
ATOM     14  O   UNL     1      36.266 -18.906 -21.108  0.00  0.00    -0.421 OA
ATOM     15  O   UNL     1      35.897 -17.221 -22.616  0.00  0.00    -0.244 OA
ATOM     16  C   UNL     1      34.825 -22.139 -18.900  0.00  0.00    +0.175 C 
ATOM     17  C   UNL     1      33.953 -21.451 -19.745  0.00  0.00    +0.043 C 
ATOM     18  C   UNL     1      36.161 -21.756 -18.791  0.00  0.00    +0.171 C 
ATOM     19  C   UNL     1      34.420 -20.366 -20.491  0.00  0.00    +0.038 C 
ATOM     20  C   UNL     1      35.757 -19.995 -20.373  0.00  0.00    +0.152 C 
ATOM     21  C   UNL     1      36.635 -20.676 -19.532  0.00  0.00    +0.077 C 
ATOM     22  C   UNL     1      33.559 -19.613 -21.386  0.00  0.00    +0.010 C 
ATOM     23  C   UNL     1      34.049 -18.583 -22.080  0.00  0.00    +0.082 C 
ATOM     24  C   UNL     1      35.462 -18.170 -21.972  0.00  0.00    +0.346 C 
BRANCH  18  25
ATOM     25  O   UNL     1      37.011 -22.427 -17.965  0.00  0.00    -0.503 OA
ATOM     26  H   UNL     1      37.910 -22.534 -18.204  0.00  0.00    +0.292 HD
ENDBRANCH  18  25
ENDBRANCH  13  16
ENDBRANCH   6  13
BRANCH   5  27
ATOM     27  C   UNL     1      36.077 -24.109 -13.888  0.00  0.00    +0.169 C 
BRANCH  27  28
ATOM     28  O   UNL     1      35.656 -25.383 -13.437  0.00  0.00    -0.379 OA
ATOM     29  H   UNL     1      36.335 -25.762 -12.859  0.00  0.00    +0.211 HD
ENDBRANCH  27  28
ENDBRANCH   5  27
TORSDOF 8
ENDMDL
MODEL 6
REMARK VINA RESULT:      -9.5      1.560      2.606
REMARK  Name = 5281417
REMARK  8 active torsions:
REMARK  status: ('A' for Active; 'I' for Inactive)
REMARK    1  A    between atoms: C_2  and  O_7
REMARK    2  A    between atoms: C_3  and  O_9
REMARK    3  A    between atoms: C_4  and  O_11
REMARK    4  A    between atoms: C_5  and  C_27
REMARK    5  A    between atoms: C_6  and  O_13
REMARK    6  A    between atoms: O_13  and  C_16
REMARK    7  A    between atoms: C_18  and  O_25
REMARK    8  A    between atoms: C_27  and  O_28
REMARK                            x       y       z     vdW  Elec       q    Type
REMARK                         _______ _______ _______ _____ _____    ______ ____
ROOT
ATOM      1  O   UNL     1      36.846 -25.016 -14.043  0.00  0.00    -0.316 OA
ATOM      2  C   UNL     1      36.671 -23.540 -11.586  0.00  0.00    +0.173 C 
ATOM      3  C   UNL     1      37.983 -24.145 -12.087  0.00  0.00    +0.169 C 
ATOM      4  C   UNL     1      35.464 -24.249 -12.200  0.00  0.00    +0.210 C 
ATOM      5  C   UNL     1      37.980 -24.259 -13.614  0.00  0.00    +0.177 C 
ATOM      6  C   UNL     1      35.611 -24.385 -13.716  0.00  0.00    +0.318 C 
ENDROOT
BRANCH   2   7
ATOM      7  O   UNL     1      36.634 -23.681 -10.165  0.00  0.00    -0.379 OA
ATOM      8  H   UNL     1      36.226 -24.530  -9.935  0.00  0.00    +0.211 HD
ENDBRANCH   2   7
BRANCH   3   9
ATOM      9  O   UNL     1      39.070 -23.318 -11.680  0.00  0.00    -0.379 OA
ATOM     10  H   UNL     1      39.261 -22.670 -12.376  0.00  0.00    +0.211 HD
ENDBRANCH   3   9
BRANCH   4  11
ATOM     11  O   UNL     1      34.284 -23.492 -11.931  0.00  0.00    -0.377 OA
ATOM     12  H   UNL     1      34.444 -22.558 -12.138  0.00  0.00    +0.211 HD
ENDBRANCH   4  11
BRANCH   6  13
ATOM     13  O   UNL     1      34.524 -25.177 -14.192  0.00  0.00    -0.447 OA
BRANCH  13  16
ATOM     14  O   UNL     1      30.539 -22.503 -16.960  0.00  0.00    -0.421 OA
ATOM     15  O   UNL     1      28.330 -21.939 -17.190  0.00  0.00    -0.244 OA
ATOM     16  C   UNL     1      33.540 -24.518 -14.876  0.00  0.00    +0.175 C 
ATOM     17  C   UNL     1      32.224 -24.599 -14.419  0.00  0.00    +0.043 C 
ATOM     18  C   UNL     1      33.853 -23.774 -16.013  0.00  0.00    +0.171 C 
ATOM     19  C   UNL     1      31.207 -23.931 -15.105  0.00  0.00    +0.038 C 
ATOM     20  C   UNL     1      31.535 -23.192 -16.240  0.00  0.00    +0.152 C 
ATOM     21  C   UNL     1      32.846 -23.104 -16.704  0.00  0.00    +0.077 C 
ATOM     22  C   UNL     1      29.820 -23.980 -14.678  0.00  0.00    +0.010 C 
ATOM     23  C   UNL     1      28.882 -23.325 -15.365  0.00  0.00    +0.082 C 
ATOM     24  C   UNL     1      29.204 -22.536 -16.570  0.00  0.00    +0.346 C 
BRANCH  18  25
ATOM     25  O   UNL     1      35.139 -23.693 -16.457  0.00  0.00    -0.503 OA
ATOM     26  H   UNL     1      35.313 -23.601 -17.372  0.00  0.00    +0.292 HD
ENDBRANCH  18  25
ENDBRANCH  13  16
ENDBRANCH   6  13
BRANCH   5  27
ATOM     27  C   UNL     1      39.229 -24.968 -14.129  0.00  0.00    +0.169 C 
BRANCH  27  28
ATOM     28  O   UNL     1      39.488 -24.522 -15.448  0.00  0.00    -0.379 OA
ATOM     29  H   UNL     1      40.114 -23.782 -15.421  0.00  0.00    +0.211 HD
ENDBRANCH  27  28
ENDBRANCH   5  27
TORSDOF 8
ENDMDL
MODEL 7
REMARK VINA RESULT:      -9.1      5.443      9.293
REMARK  Name = 5281417
REMARK  8 active torsions:
REMARK  status: ('A' for Active; 'I' for Inactive)
REMARK    1  A    between atoms: C_2  and  O_7
REMARK    2  A    between atoms: C_3  and  O_9
REMARK    3  A    between atoms: C_4  and  O_11
REMARK    4  A    between atoms: C_5  and  C_27
REMARK    5  A    between atoms: C_6  and  O_13
REMARK    6  A    between atoms: O_13  and  C_16
REMARK    7  A    between atoms: C_18  and  O_25
REMARK    8  A    between atoms: C_27  and  O_28
REMARK                            x       y       z     vdW  Elec       q    Type
REMARK                         _______ _______ _______ _____ _____    ______ ____
ROOT
ATOM      1  O   UNL     1      33.475 -17.680 -21.168  0.00  0.00    -0.316 OA
ATOM      2  C   UNL     1      35.317 -16.320 -22.901  0.00  0.00    +0.173 C 
ATOM      3  C   UNL     1      34.048 -15.654 -22.369  0.00  0.00    +0.169 C 
ATOM      4  C   UNL     1      35.196 -17.844 -22.872  0.00  0.00    +0.210 C 
ATOM      5  C   UNL     1      33.634 -16.266 -21.029  0.00  0.00    +0.177 C 
ATOM      6  C   UNL     1      34.691 -18.336 -21.516  0.00  0.00    +0.318 C 
ENDROOT
BRANCH   2   7
ATOM      7  O   UNL     1      35.514 -15.884 -24.247  0.00  0.00    -0.379 OA
ATOM      8  H   UNL     1      34.766 -16.172 -24.793  0.00  0.00    +0.211 HD
ENDBRANCH   2   7
BRANCH   3   9
ATOM      9  O   UNL     1      34.285 -14.258 -22.196  0.00  0.00    -0.379 OA
ATOM     10  H   UNL     1      33.511 -13.760 -22.499  0.00  0.00    +0.211 HD
ENDBRANCH   3   9
BRANCH   4  11
ATOM     11  O   UNL     1      36.478 -18.425 -23.110  0.00  0.00    -0.377 OA
ATOM     12  H   UNL     1      36.713 -19.005 -22.369  0.00  0.00    +0.211 HD
ENDBRANCH   4  11
BRANCH   6  13
ATOM     13  O   UNL     1      34.469 -19.742 -21.614  0.00  0.00    -0.447 OA
BRANCH  13  16
ATOM     14  O   UNL     1      35.636 -22.761 -17.118  0.00  0.00    -0.421 OA
ATOM     15  O   UNL     1      34.933 -24.124 -15.416  0.00  0.00    -0.244 OA
ATOM     16  C   UNL     1      34.757 -20.486 -20.503  0.00  0.00    +0.175 C 
ATOM     17  C   UNL     1      33.723 -21.158 -19.849  0.00  0.00    +0.043 C 
ATOM     18  C   UNL     1      36.068 -20.572 -20.037  0.00  0.00    +0.171 C 
ATOM     19  C   UNL     1      34.001 -21.923 -18.714  0.00  0.00    +0.038 C 
ATOM     20  C   UNL     1      35.315 -21.999 -18.259  0.00  0.00    +0.152 C 
ATOM     21  C   UNL     1      36.354 -21.332 -18.905  0.00  0.00    +0.077 C 
ATOM     22  C   UNL     1      32.966 -22.643 -17.992  0.00  0.00    +0.010 C 
ATOM     23  C   UNL     1      33.278 -23.362 -16.911  0.00  0.00    +0.082 C 
ATOM     24  C   UNL     1      34.662 -23.458 -16.409  0.00  0.00    +0.346 C 
BRANCH  18  25
ATOM     25  O   UNL     1      37.077 -19.917 -20.677  0.00  0.00    -0.503 OA
ATOM     26  H   UNL     1      37.841 -20.385 -20.948  0.00  0.00    +0.292 HD
ENDBRANCH  18  25
ENDBRANCH  13  16
ENDBRANCH   6  13
BRANCH   5  27
ATOM     27  C   UNL     1      32.306 -15.700 -20.535  0.00  0.00    +0.169 C 
BRANCH  27  28
ATOM     28  O   UNL     1      31.343 -16.737 -20.544  0.00  0.00    -0.379 OA
ATOM     29  H   UNL     1      31.729 -17.540 -20.164  0.00  0.00    +0.211 HD
ENDBRANCH  27  28
ENDBRANCH   5  27
TORSDOF 8
ENDMDL
MODEL 8
REMARK VINA RESULT:      -9.1      2.705      4.641
REMARK  Name = 5281417
REMARK  8 active torsions:
REMARK  status: ('A' for Active; 'I' for Inactive)
REMARK    1  A    between atoms: C_2  and  O_7
REMARK    2  A    between atoms: C_3  and  O_9
REMARK    3  A    between atoms: C_4  and  O_11
REMARK    4  A    between atoms: C_5  and  C_27
REMARK    5  A    between atoms: C_6  and  O_13
REMARK    6  A    between atoms: O_13  and  C_16
REMARK    7  A    between atoms: C_18  and  O_25
REMARK    8  A    between atoms: C_27  and  O_28
REMARK                            x       y       z     vdW  Elec       q    Type
REMARK                         _______ _______ _______ _____ _____    ______ ____
ROOT
ATOM      1  O   UNL     1      36.414 -24.708 -15.689  0.00  0.00    -0.316 OA
ATOM      2  C   UNL     1      35.109 -24.067 -13.212  0.00  0.00    +0.173 C 
ATOM      3  C   UNL     1      36.304 -25.018 -13.287  0.00  0.00    +0.169 C 
ATOM      4  C   UNL     1      34.395 -23.968 -14.561  0.00  0.00    +0.210 C 
ATOM      5  C   UNL     1      37.190 -24.682 -14.489  0.00  0.00    +0.177 C 
ATOM      6  C   UNL     1      35.387 -23.721 -15.698  0.00  0.00    +0.318 C 
ENDROOT
BRANCH   2   7
ATOM      7  O   UNL     1      34.203 -24.573 -12.231  0.00  0.00    -0.379 OA
ATOM      8  H   UNL     1      34.509 -25.442 -11.926  0.00  0.00    +0.211 HD
ENDBRANCH   2   7
BRANCH   3   9
ATOM      9  O   UNL     1      37.071 -24.906 -12.091  0.00  0.00    -0.379 OA
ATOM     10  H   UNL     1      36.600 -25.339 -11.363  0.00  0.00    +0.211 HD
ENDBRANCH   3   9
BRANCH   4  11
ATOM     11  O   UNL     1      33.471 -22.880 -14.528  0.00  0.00    -0.377 OA
ATOM     12  H   UNL     1      32.581 -23.218 -14.343  0.00  0.00    +0.211 HD
ENDBRANCH   4  11
BRANCH   6  13
ATOM     13  O   UNL     1      34.668 -23.783 -16.928  0.00  0.00    -0.447 OA
BRANCH  13  16
ATOM     14  O   UNL     1      35.543 -19.659 -20.523  0.00  0.00    -0.421 OA
ATOM     15  O   UNL     1      34.737 -18.214 -22.106  0.00  0.00    -0.244 OA
ATOM     16  C   UNL     1      34.885 -22.766 -17.817  0.00  0.00    +0.175 C 
ATOM     17  C   UNL     1      33.815 -22.287 -18.574  0.00  0.00    +0.043 C 
ATOM     18  C   UNL     1      36.159 -22.216 -17.958  0.00  0.00    +0.171 C 
ATOM     19  C   UNL     1      34.019 -21.247 -19.485  0.00  0.00    +0.038 C 
ATOM     20  C   UNL     1      35.297 -20.709 -19.616  0.00  0.00    +0.152 C 
ATOM     21  C   UNL     1      36.371 -21.180 -18.863  0.00  0.00    +0.077 C 
ATOM     22  C   UNL     1      32.945 -20.708 -20.301  0.00  0.00    +0.010 C 
ATOM     23  C   UNL     1      33.186 -19.714 -21.158  0.00  0.00    +0.082 C 
ATOM     24  C   UNL     1      34.531 -19.128 -21.315  0.00  0.00    +0.346 C 
BRANCH  18  25
ATOM     25  O   UNL     1      37.201 -22.684 -17.216  0.00  0.00    -0.503 OA
ATOM     26  H   UNL     1      37.746 -23.367 -17.552  0.00  0.00    +0.292 HD
ENDBRANCH  18  25
ENDBRANCH  13  16
ENDBRANCH   6  13
BRANCH   5  27
ATOM     27  C   UNL     1      38.325 -25.689 -14.653  0.00  0.00    +0.169 C 
BRANCH  27  28
ATOM     28  O   UNL     1      37.918 -26.922 -14.089  0.00  0.00    -0.379 OA
ATOM     29  H   UNL     1      38.255 -27.652 -14.631  0.00  0.00    +0.211 HD
ENDBRANCH  27  28
ENDBRANCH   5  27
TORSDOF 8
ENDMDL
MODEL 9
REMARK VINA RESULT:      -8.9     10.887     14.367
REMARK  Name = 5281417
REMARK  8 active torsions:
REMARK  status: ('A' for Active; 'I' for Inactive)
REMARK    1  A    between atoms: C_2  and  O_7
REMARK    2  A    between atoms: C_3  and  O_9
REMARK    3  A    between atoms: C_4  and  O_11
REMARK    4  A    between atoms: C_5  and  C_27
REMARK    5  A    between atoms: C_6  and  O_13
REMARK    6  A    between atoms: O_13  and  C_16
REMARK    7  A    between atoms: C_18  and  O_25
REMARK    8  A    between atoms: C_27  and  O_28
REMARK                            x       y       z     vdW  Elec       q    Type
REMARK                         _______ _______ _______ _____ _____    ______ ____
ROOT
ATOM      1  O   UNL     1      32.179 -12.250 -23.024  0.00  0.00    -0.316 OA
ATOM      2  C   UNL     1      33.495  -9.715 -23.323  0.00  0.00    +0.173 C 
ATOM      3  C   UNL     1      32.217  -9.883 -22.501  0.00  0.00    +0.169 C 
ATOM      4  C   UNL     1      33.646 -10.839 -24.348  0.00  0.00    +0.210 C 
ATOM      5  C   UNL     1      32.108 -11.308 -21.952  0.00  0.00    +0.177 C 
ATOM      6  C   UNL     1      33.429 -12.210 -23.706  0.00  0.00    +0.318 C 
ENDROOT
BRANCH   2   7
ATOM      7  O   UNL     1      33.422  -8.460 -24.001  0.00  0.00    -0.379 OA
ATOM      8  H   UNL     1      34.266  -7.992 -23.905  0.00  0.00    +0.211 HD
ENDBRANCH   2   7
BRANCH   3   9
ATOM      9  O   UNL     1      32.229  -8.960 -21.415  0.00  0.00    -0.379 OA
ATOM     10  H   UNL     1      31.324  -8.665 -21.232  0.00  0.00    +0.211 HD
ENDBRANCH   3   9
BRANCH   4  11
ATOM     11  O   UNL     1      34.963 -10.805 -24.897  0.00  0.00    -0.377 OA
ATOM     12  H   UNL     1      35.317 -11.707 -24.946  0.00  0.00    +0.211 HD
ENDBRANCH   4  11
BRANCH   6  13
ATOM     13  O   UNL     1      33.444 -13.188 -24.745  0.00  0.00    -0.447 OA
BRANCH  13  16
ATOM     14  O   UNL     1      34.931 -18.324 -23.294  0.00  0.00    -0.421 OA
ATOM     15  O   UNL     1      35.635 -19.797 -21.687  0.00  0.00    -0.244 OA
ATOM     16  C   UNL     1      33.812 -14.456 -24.387  0.00  0.00    +0.175 C 
ATOM     17  C   UNL     1      34.177 -14.709 -23.064  0.00  0.00    +0.043 C 
ATOM     18  C   UNL     1      33.819 -15.479 -25.335  0.00  0.00    +0.171 C 
ATOM     19  C   UNL     1      34.554 -15.998 -22.682  0.00  0.00    +0.038 C 
ATOM     20  C   UNL     1      34.557 -17.010 -23.639  0.00  0.00    +0.152 C 
ATOM     21  C   UNL     1      34.194 -16.767 -24.962  0.00  0.00    +0.077 C 
ATOM     22  C   UNL     1      34.944 -16.321 -21.320  0.00  0.00    +0.010 C 
ATOM     23  C   UNL     1      35.298 -17.568 -21.001  0.00  0.00    +0.082 C 
ATOM     24  C   UNL     1      35.309 -18.656 -21.997  0.00  0.00    +0.346 C 
BRANCH  18  25
ATOM     25  O   UNL     1      33.461 -15.231 -26.626  0.00  0.00    -0.503 OA
ATOM     26  H   UNL     1      34.051 -14.783 -27.198  0.00  0.00    +0.292 HD
ENDBRANCH  18  25
ENDBRANCH  13  16
ENDBRANCH   6  13
BRANCH   5  27
ATOM     27  C   UNL     1      30.784 -11.535 -21.227  0.00  0.00    +0.169 C 
BRANCH  27  28
ATOM     28  O   UNL     1      30.904 -11.042 -19.906  0.00  0.00    -0.379 OA
ATOM     29  H   UNL     1      30.082 -11.213 -19.421  0.00  0.00    +0.211 HD
ENDBRANCH  27  28
ENDBRANCH   5  27
TORSDOF 8
ENDMDL
