MODEL 1
REMARK VINA RESULT:     -11.5      0.000      0.000
REMARK  Name = 24836811
REMARK  4 active torsions:
REMARK  status: ('A' for Active; 'I' for Inactive)
REMARK    1  A    between atoms: C_9  and  C_12
REMARK    2  A    between atoms: C_11  and  C_19
REMARK    3  A    between atoms: C_21  and  C_25
REMARK    4  A    between atoms: N_24  and  O_27
REMARK                            x       y       z     vdW  Elec       q    Type
REMARK                         _______ _______ _______ _____ _____    ______ ____
ROOT
ATOM      1  O   UNL     1      37.890 -21.979 -16.886  0.00  0.00    -0.269 OA
ATOM      2  N   UNL     1      34.749 -20.403 -20.170  0.00  0.00    -0.271 N 
ATOM      3  N   UNL     1      36.033 -22.014 -18.308  0.00  0.00    -0.267 N 
ATOM      4  N   UNL     1      32.723 -21.213 -19.806  0.00  0.00    -0.230 NA
ATOM      5  C   UNL     1      36.183 -20.260 -20.020  0.00  0.00    +0.118 C 
ATOM      6  C   UNL     1      36.792 -21.546 -19.474  0.00  0.00    +0.116 C 
ATOM      7  C   UNL     1      34.604 -22.299 -18.534  0.00  0.00    +0.155 C 
ATOM      8  C   UNL     1      33.996 -21.323 -19.484  0.00  0.00    +0.133 C 
ATOM      9  C   UNL     1      33.923 -19.672 -20.965  0.00  0.00    +0.072 C 
ATOM     10  C   UNL     1      32.671 -20.190 -20.723  0.00  0.00    +0.115 C 
ATOM     11  C   UNL     1      36.700 -22.211 -17.094  0.00  0.00    +0.255 C 
ENDROOT
BRANCH   9  12
ATOM     12  C   UNL     1      34.341 -18.613 -21.850  0.00  0.00    +0.015 C 
ATOM     13  C   UNL     1      34.416 -17.301 -21.381  0.00  0.00    +0.001 C 
ATOM     14  C   UNL     1      34.671 -18.899 -23.175  0.00  0.00    +0.001 C 
ATOM     15  C   UNL     1      34.819 -16.277 -22.237  0.00  0.00    +0.000 C 
ATOM     16  C   UNL     1      35.076 -17.876 -24.031  0.00  0.00    +0.000 C 
ATOM     17  C   UNL     1      35.150 -16.563 -23.562  0.00  0.00    +0.000 C 
ENDBRANCH   9  12
BRANCH  11  19
ATOM     18  S   UNL     1      36.744 -23.090 -14.490  0.00  0.00    -0.078 S 
ATOM     19  C   UNL     1      35.933 -22.746 -15.958  0.00  0.00    +0.083 C 
ATOM     20  C   UNL     1      34.587 -23.030 -15.885  0.00  0.00    +0.012 C 
ATOM     21  C   UNL     1      35.293 -23.622 -13.751  0.00  0.00    +0.085 C 
ATOM     22  C   UNL     1      34.216 -23.537 -14.605  0.00  0.00    +0.012 C 
BRANCH  21  25
ATOM     23  O   UNL     1      34.454 -24.853 -11.936  0.00  0.00    -0.268 OA
ATOM     24  N   UNL     1      36.364 -23.613 -11.575  0.00  0.00    -0.193 N 
ATOM     25  C   UNL     1      35.329 -24.073 -12.398  0.00  0.00    +0.274 C 
ATOM     26  H   UNL     1      37.055 -23.003 -11.921  0.00  0.00    +0.183 HD
BRANCH  24  27
ATOM     27  O   UNL     1      36.383 -24.050 -10.242  0.00  0.00    -0.295 OA
ATOM     28  H   UNL     1      35.690 -23.592  -9.741  0.00  0.00    +0.241 HD
ENDBRANCH  24  27
ENDBRANCH  21  25
ENDBRANCH  11  19
TORSDOF 4
ENDMDL
MODEL 2
REMARK VINA RESULT:     -10.6      1.821      2.472
REMARK  Name = 24836811
REMARK  4 active torsions:
REMARK  status: ('A' for Active; 'I' for Inactive)
REMARK    1  A    between atoms: C_9  and  C_12
REMARK    2  A    between atoms: C_11  and  C_19
REMARK    3  A    between atoms: C_21  and  C_25
REMARK    4  A    between atoms: N_24  and  O_27
REMARK                            x       y       z     vdW  Elec       q    Type
REMARK                         _______ _______ _______ _____ _____    ______ ____
ROOT
ATOM      1  O   UNL     1      37.622 -22.004 -16.644  0.00  0.00    -0.269 OA
ATOM      2  N   UNL     1      34.706 -20.465 -20.146  0.00  0.00    -0.271 N 
ATOM      3  N   UNL     1      35.886 -22.069 -18.211  0.00  0.00    -0.267 N 
ATOM      4  N   UNL     1      32.683 -21.341 -19.958  0.00  0.00    -0.230 NA
ATOM      5  C   UNL     1      36.117 -20.282 -19.879  0.00  0.00    +0.118 C 
ATOM      6  C   UNL     1      36.721 -21.559 -19.305  0.00  0.00    +0.116 C 
ATOM      7  C   UNL     1      34.489 -22.393 -18.555  0.00  0.00    +0.155 C 
ATOM      8  C   UNL     1      33.929 -21.419 -19.536  0.00  0.00    +0.133 C 
ATOM      9  C   UNL     1      33.923 -19.745 -20.994  0.00  0.00    +0.072 C 
ATOM     10  C   UNL     1      32.673 -20.305 -20.861  0.00  0.00    +0.115 C 
ATOM     11  C   UNL     1      36.460 -22.268 -16.950  0.00  0.00    +0.255 C 
ENDROOT
BRANCH   9  12
ATOM     12  C   UNL     1      34.377 -18.659 -21.827  0.00  0.00    +0.015 C 
ATOM     13  C   UNL     1      34.765 -18.907 -23.144  0.00  0.00    +0.001 C 
ATOM     14  C   UNL     1      34.430 -17.362 -21.317  0.00  0.00    +0.001 C 
ATOM     15  C   UNL     1      35.205 -17.857 -23.950  0.00  0.00    +0.000 C 
ATOM     16  C   UNL     1      34.869 -16.312 -22.123  0.00  0.00    +0.000 C 
ATOM     17  C   UNL     1      35.257 -16.560 -23.441  0.00  0.00    +0.000 C 
ENDBRANCH   9  12
BRANCH  11  19
ATOM     18  S   UNL     1      34.004 -23.276 -16.242  0.00  0.00    -0.078 S 
ATOM     19  C   UNL     1      35.621 -22.845 -15.888  0.00  0.00    +0.083 C 
ATOM     20  C   UNL     1      35.952 -23.108 -14.576  0.00  0.00    +0.012 C 
ATOM     21  C   UNL     1      33.739 -23.817 -14.639  0.00  0.00    +0.085 C 
ATOM     22  C   UNL     1      34.861 -23.672 -13.853  0.00  0.00    +0.012 C 
BRANCH  21  25
ATOM     23  O   UNL     1      32.279 -24.984 -13.218  0.00  0.00    -0.268 OA
ATOM     24  N   UNL     1      31.394 -24.136 -15.169  0.00  0.00    -0.193 N 
ATOM     25  C   UNL     1      32.460 -24.341 -14.285  0.00  0.00    +0.274 C 
ATOM     26  H   UNL     1      31.519 -23.635 -16.008  0.00  0.00    +0.183 HD
BRANCH  24  27
ATOM     27  O   UNL     1      30.144 -24.666 -14.822  0.00  0.00    -0.295 OA
ATOM     28  H   UNL     1      29.442 -24.143 -15.241  0.00  0.00    +0.241 HD
ENDBRANCH  24  27
ENDBRANCH  21  25
ENDBRANCH  11  19
TORSDOF 4
ENDMDL
MODEL 3
REMARK VINA RESULT:     -10.2      7.844     12.021
REMARK  Name = 24836811
REMARK  4 active torsions:
REMARK  status: ('A' for Active; 'I' for Inactive)
REMARK    1  A    between atoms: C_9  and  C_12
REMARK    2  A    between atoms: C_11  and  C_19
REMARK    3  A    between atoms: C_21  and  C_25
REMARK    4  A    between atoms: N_24  and  O_27
REMARK                            x       y       z     vdW  Elec       q    Type
REMARK                         _______ _______ _______ _____ _____    ______ ____
ROOT
ATOM      1  O   UNL     1      31.945 -12.545 -20.280  0.00  0.00    -0.269 OA
ATOM      2  N   UNL     1      33.899 -16.442 -22.311  0.00  0.00    -0.271 N 
ATOM      3  N   UNL     1      32.440 -14.107 -21.949  0.00  0.00    -0.267 N 
ATOM      4  N   UNL     1      34.320 -16.111 -24.457  0.00  0.00    -0.230 NA
ATOM      5  C   UNL     1      33.356 -16.176 -20.996  0.00  0.00    +0.118 C 
ATOM      6  C   UNL     1      32.140 -15.263 -21.095  0.00  0.00    +0.116 C 
ATOM      7  C   UNL     1      32.843 -14.410 -23.335  0.00  0.00    +0.155 C 
ATOM      8  C   UNL     1      33.692 -15.634 -23.401  0.00  0.00    +0.133 C 
ATOM      9  C   UNL     1      34.694 -17.480 -22.685  0.00  0.00    +0.072 C 
ATOM     10  C   UNL     1      34.944 -17.254 -24.019  0.00  0.00    +0.115 C 
ATOM     11  C   UNL     1      32.279 -12.816 -21.432  0.00  0.00    +0.255 C 
ENDROOT
BRANCH   9  12
ATOM     12  C   UNL     1      35.127 -18.551 -21.821  0.00  0.00    +0.015 C 
ATOM     13  C   UNL     1      34.200 -19.479 -21.346  0.00  0.00    +0.001 C 
ATOM     14  C   UNL     1      36.469 -18.659 -21.460  0.00  0.00    +0.001 C 
ATOM     15  C   UNL     1      34.617 -20.515 -20.510  0.00  0.00    +0.000 C 
ATOM     16  C   UNL     1      36.887 -19.695 -20.625  0.00  0.00    +0.000 C 
ATOM     17  C   UNL     1      35.960 -20.623 -20.149  0.00  0.00    +0.000 C 
ENDBRANCH   9  12
BRANCH  11  19
ATOM     18  S   UNL     1      31.599 -10.246 -22.125  0.00  0.00    -0.078 S 
ATOM     19  C   UNL     1      32.520 -11.674 -22.328  0.00  0.00    +0.083 C 
ATOM     20  C   UNL     1      33.422 -11.566 -23.363  0.00  0.00    +0.012 C 
ATOM     21  C   UNL     1      32.406  -9.477 -23.426  0.00  0.00    +0.085 C 
ATOM     22  C   UNL     1      33.356 -10.293 -24.000  0.00  0.00    +0.012 C 
BRANCH  21  25
ATOM     23  O   UNL     1      30.842  -7.788 -23.892  0.00  0.00    -0.268 OA
ATOM     24  N   UNL     1      33.073  -7.217 -24.001  0.00  0.00    -0.193 N 
ATOM     25  C   UNL     1      32.045  -8.141 -23.774  0.00  0.00    +0.274 C 
ATOM     26  H   UNL     1      34.018  -7.478 -23.913  0.00  0.00    +0.183 HD
BRANCH  24  27
ATOM     27  O   UNL     1      32.711  -5.910 -24.356  0.00  0.00    -0.295 OA
ATOM     28  H   UNL     1      32.822  -5.793 -25.313  0.00  0.00    +0.241 HD
ENDBRANCH  24  27
ENDBRANCH  21  25
ENDBRANCH  11  19
TORSDOF 4
ENDMDL
MODEL 4
REMARK VINA RESULT:     -10.2      6.639      9.848
REMARK  Name = 24836811
REMARK  4 active torsions:
REMARK  status: ('A' for Active; 'I' for Inactive)
REMARK    1  A    between atoms: C_9  and  C_12
REMARK    2  A    between atoms: C_11  and  C_19
REMARK    3  A    between atoms: C_21  and  C_25
REMARK    4  A    between atoms: N_24  and  O_27
REMARK                            x       y       z     vdW  Elec       q    Type
REMARK                         _______ _______ _______ _____ _____    ______ ____
ROOT
ATOM      1  O   UNL     1      35.284 -15.359 -24.613  0.00  0.00    -0.269 OA
ATOM      2  N   UNL     1      32.767 -11.541 -23.122  0.00  0.00    -0.271 N 
ATOM      3  N   UNL     1      33.518 -14.161 -23.657  0.00  0.00    -0.267 N 
ATOM      4  N   UNL     1      31.564 -12.016 -21.328  0.00  0.00    -0.230 NA
ATOM      5  C   UNL     1      33.606 -11.787 -24.277  0.00  0.00    +0.118 C 
ATOM      6  C   UNL     1      33.422 -13.215 -24.775  0.00  0.00    +0.116 C 
ATOM      7  C   UNL     1      32.543 -13.977 -22.564  0.00  0.00    +0.155 C 
ATOM      8  C   UNL     1      32.279 -12.532 -22.307  0.00  0.00    +0.133 C 
ATOM      9  C   UNL     1      32.347 -10.339 -22.644  0.00  0.00    +0.072 C 
ATOM     10  C   UNL     1      31.603 -10.657 -21.531  0.00  0.00    +0.115 C 
ATOM     11  C   UNL     1      34.465 -15.190 -23.711  0.00  0.00    +0.255 C 
ENDROOT
BRANCH   9  12
ATOM     12  C   UNL     1      32.643  -9.058 -23.236  0.00  0.00    +0.015 C 
ATOM     13  C   UNL     1      31.606  -8.250 -23.704  0.00  0.00    +0.001 C 
ATOM     14  C   UNL     1      33.965  -8.626 -23.341  0.00  0.00    +0.001 C 
ATOM     15  C   UNL     1      31.892  -7.011 -24.277  0.00  0.00    +0.000 C 
ATOM     16  C   UNL     1      34.251  -7.387 -23.913  0.00  0.00    +0.000 C 
ATOM     17  C   UNL     1      33.214  -6.579 -24.382  0.00  0.00    +0.000 C 
ENDBRANCH   9  12
BRANCH  11  19
ATOM     18  S   UNL     1      34.162 -17.811 -22.944  0.00  0.00    -0.078 S 
ATOM     19  C   UNL     1      34.495 -16.166 -22.611  0.00  0.00    +0.083 C 
ATOM     20  C   UNL     1      34.765 -15.952 -21.277  0.00  0.00    +0.012 C 
ATOM     21  C   UNL     1      34.378 -18.243 -21.301  0.00  0.00    +0.085 C 
ATOM     22  C   UNL     1      34.698 -17.156 -20.518  0.00  0.00    +0.012 C 
BRANCH  21  25
ATOM     23  O   UNL     1      35.203 -20.393 -20.840  0.00  0.00    -0.268 OA
ATOM     24  N   UNL     1      32.930 -20.071 -20.632  0.00  0.00    -0.193 N 
ATOM     25  C   UNL     1      34.221 -19.608 -20.916  0.00  0.00    +0.274 C 
ATOM     26  H   UNL     1      32.152 -19.469 -20.687  0.00  0.00    +0.183 HD
BRANCH  24  27
ATOM     27  O   UNL     1      32.782 -21.416 -20.268  0.00  0.00    -0.295 OA
ATOM     28  H   UNL     1      32.095 -21.826 -20.817  0.00  0.00    +0.241 HD
ENDBRANCH  24  27
ENDBRANCH  21  25
ENDBRANCH  11  19
TORSDOF 4
ENDMDL
MODEL 5
REMARK VINA RESULT:      -9.9      6.202      9.712
REMARK  Name = 24836811
REMARK  4 active torsions:
REMARK  status: ('A' for Active; 'I' for Inactive)
REMARK    1  A    between atoms: C_9  and  C_12
REMARK    2  A    between atoms: C_11  and  C_19
REMARK    3  A    between atoms: C_21  and  C_25
REMARK    4  A    between atoms: N_24  and  O_27
REMARK                            x       y       z     vdW  Elec       q    Type
REMARK                         _______ _______ _______ _____ _____    ______ ____
ROOT
ATOM      1  O   UNL     1      34.926 -15.897 -26.291  0.00  0.00    -0.269 OA
ATOM      2  N   UNL     1      32.956 -12.399 -23.643  0.00  0.00    -0.271 N 
ATOM      3  N   UNL     1      33.451 -14.879 -24.789  0.00  0.00    -0.267 N 
ATOM      4  N   UNL     1      32.116 -13.188 -21.756  0.00  0.00    -0.230 NA
ATOM      5  C   UNL     1      33.532 -12.432 -24.971  0.00  0.00    +0.118 C 
ATOM      6  C   UNL     1      33.180 -13.739 -25.672  0.00  0.00    +0.116 C 
ATOM      7  C   UNL     1      32.726 -14.893 -23.504  0.00  0.00    +0.155 C 
ATOM      8  C   UNL     1      32.593 -13.519 -22.939  0.00  0.00    +0.133 C 
ATOM      9  C   UNL     1      32.702 -11.303 -22.878  0.00  0.00    +0.072 C 
ATOM     10  C   UNL     1      32.182 -11.816 -21.712  0.00  0.00    +0.115 C 
ATOM     11  C   UNL     1      34.314 -15.891 -25.225  0.00  0.00    +0.255 C 
ENDROOT
BRANCH   9  12
ATOM     12  C   UNL     1      32.938  -9.937 -23.275  0.00  0.00    +0.015 C 
ATOM     13  C   UNL     1      34.226  -9.525 -23.621  0.00  0.00    +0.001 C 
ATOM     14  C   UNL     1      31.881  -9.028 -23.315  0.00  0.00    +0.001 C 
ATOM     15  C   UNL     1      34.454  -8.203 -24.005  0.00  0.00    +0.000 C 
ATOM     16  C   UNL     1      32.110  -7.708 -23.699  0.00  0.00    +0.000 C 
ATOM     17  C   UNL     1      33.397  -7.295 -24.044  0.00  0.00    +0.000 C 
ENDBRANCH   9  12
BRANCH  11  19
ATOM     18  S   UNL     1      35.132 -16.820 -22.772  0.00  0.00    -0.078 S 
ATOM     19  C   UNL     1      34.516 -17.057 -24.351  0.00  0.00    +0.083 C 
ATOM     20  C   UNL     1      34.273 -18.386 -24.618  0.00  0.00    +0.012 C 
ATOM     21  C   UNL     1      35.077 -18.500 -22.440  0.00  0.00    +0.085 C 
ATOM     22  C   UNL     1      34.598 -19.223 -23.510  0.00  0.00    +0.012 C 
BRANCH  21  25
ATOM     23  O   UNL     1      36.174 -18.247 -20.379  0.00  0.00    -0.268 OA
ATOM     24  N   UNL     1      35.163 -20.277 -20.791  0.00  0.00    -0.193 N 
ATOM     25  C   UNL     1      35.501 -18.969 -21.161  0.00  0.00    +0.274 C 
ATOM     26  H   UNL     1      34.638 -20.854 -21.392  0.00  0.00    +0.183 HD
BRANCH  24  27
ATOM     27  O   UNL     1      35.596 -20.735 -19.539  0.00  0.00    -0.295 OA
ATOM     28  H   UNL     1      35.529 -20.017 -18.890  0.00  0.00    +0.241 HD
ENDBRANCH  24  27
ENDBRANCH  21  25
ENDBRANCH  11  19
TORSDOF 4
ENDMDL
MODEL 6
REMARK VINA RESULT:      -9.8      6.196      9.330
REMARK  Name = 24836811
REMARK  4 active torsions:
REMARK  status: ('A' for Active; 'I' for Inactive)
REMARK    1  A    between atoms: C_9  and  C_12
REMARK    2  A    between atoms: C_11  and  C_19
REMARK    3  A    between atoms: C_21  and  C_25
REMARK    4  A    between atoms: N_24  and  O_27
REMARK                            x       y       z     vdW  Elec       q    Type
REMARK                         _______ _______ _______ _____ _____    ______ ____
ROOT
ATOM      1  O   UNL     1      34.980 -15.995 -24.759  0.00  0.00    -0.269 OA
ATOM      2  N   UNL     1      32.656 -12.230 -22.874  0.00  0.00    -0.271 N 
ATOM      3  N   UNL     1      33.377 -14.834 -23.512  0.00  0.00    -0.267 N 
ATOM      4  N   UNL     1      31.807 -12.714 -20.890  0.00  0.00    -0.230 NA
ATOM      5  C   UNL     1      33.283 -12.467 -24.157  0.00  0.00    +0.118 C 
ATOM      6  C   UNL     1      33.055 -13.906 -24.603  0.00  0.00    +0.116 C 
ATOM      7  C   UNL     1      32.607 -14.663 -22.265  0.00  0.00    +0.155 C 
ATOM      8  C   UNL     1      32.351 -13.222 -21.976  0.00  0.00    +0.133 C 
ATOM      9  C   UNL     1      32.293 -11.033 -22.338  0.00  0.00    +0.072 C 
ATOM     10  C   UNL     1      31.769 -11.357 -21.107  0.00  0.00    +0.115 C 
ATOM     11  C   UNL     1      34.329 -15.837 -23.727  0.00  0.00    +0.255 C 
ENDROOT
BRANCH   9  12
ATOM     12  C   UNL     1      32.441  -9.752 -22.983  0.00  0.00    +0.015 C 
ATOM     13  C   UNL     1      33.713  -9.281 -23.313  0.00  0.00    +0.001 C 
ATOM     14  C   UNL     1      31.315  -8.984 -23.279  0.00  0.00    +0.001 C 
ATOM     15  C   UNL     1      33.856  -8.042 -23.936  0.00  0.00    +0.000 C 
ATOM     16  C   UNL     1      31.459  -7.746 -23.903  0.00  0.00    +0.000 C 
ATOM     17  C   UNL     1      32.731  -7.274 -24.232  0.00  0.00    +0.000 C 
ENDBRANCH   9  12
BRANCH  11  19
ATOM     18  S   UNL     1      33.840 -18.338 -22.698  0.00  0.00    -0.078 S 
ATOM     19  C   UNL     1      34.584 -16.797 -22.642  0.00  0.00    +0.083 C 
ATOM     20  C   UNL     1      35.372 -16.643 -21.523  0.00  0.00    +0.012 C 
ATOM     21  C   UNL     1      34.572 -18.804 -21.221  0.00  0.00    +0.085 C 
ATOM     22  C   UNL     1      35.366 -17.807 -20.699  0.00  0.00    +0.012 C 
BRANCH  21  25
ATOM     23  O   UNL     1      35.243 -20.911 -20.432  0.00  0.00    -0.268 OA
ATOM     24  N   UNL     1      32.979 -20.485 -20.498  0.00  0.00    -0.193 N 
ATOM     25  C   UNL     1      34.312 -20.107 -20.699  0.00  0.00    +0.274 C 
ATOM     26  H   UNL     1      32.240 -19.867 -20.703  0.00  0.00    +0.183 HD
BRANCH  24  27
ATOM     27  O   UNL     1      32.732 -21.771 -19.998  0.00  0.00    -0.295 OA
ATOM     28  H   UNL     1      32.968 -22.430 -20.670  0.00  0.00    +0.241 HD
ENDBRANCH  24  27
ENDBRANCH  21  25
ENDBRANCH  11  19
TORSDOF 4
ENDMDL
MODEL 7
REMARK VINA RESULT:      -9.4      3.915      9.375
REMARK  Name = 24836811
REMARK  4 active torsions:
REMARK  status: ('A' for Active; 'I' for Inactive)
REMARK    1  A    between atoms: C_9  and  C_12
REMARK    2  A    between atoms: C_11  and  C_19
REMARK    3  A    between atoms: C_21  and  C_25
REMARK    4  A    between atoms: N_24  and  O_27
REMARK                            x       y       z     vdW  Elec       q    Type
REMARK                         _______ _______ _______ _____ _____    ______ ____
ROOT
ATOM      1  O   UNL     1      32.659 -20.979 -20.383  0.00  0.00    -0.269 OA
ATOM      2  N   UNL     1      35.529 -22.541 -16.854  0.00  0.00    -0.271 N 
ATOM      3  N   UNL     1      34.607 -21.765 -19.356  0.00  0.00    -0.267 N 
ATOM      4  N   UNL     1      37.630 -21.939 -17.193  0.00  0.00    -0.230 NA
ATOM      5  C   UNL     1      34.128 -22.746 -17.157  0.00  0.00    +0.118 C 
ATOM      6  C   UNL     1      33.919 -22.861 -18.662  0.00  0.00    +0.116 C 
ATOM      7  C   UNL     1      36.065 -21.677 -19.147  0.00  0.00    +0.155 C 
ATOM      8  C   UNL     1      36.438 -22.033 -17.748  0.00  0.00    +0.133 C 
ATOM      9  C   UNL     1      36.165 -22.781 -15.676  0.00  0.00    +0.072 C 
ATOM     10  C   UNL     1      37.467 -22.400 -15.909  0.00  0.00    +0.115 C 
ATOM     11  C   UNL     1      33.873 -20.922 -20.197  0.00  0.00    +0.255 C 
ENDROOT
BRANCH   9  12
ATOM     12  C   UNL     1      35.549 -23.329 -14.493  0.00  0.00    +0.015 C 
ATOM     13  C   UNL     1      36.263 -23.380 -13.295  0.00  0.00    +0.001 C 
ATOM     14  C   UNL     1      34.240 -23.809 -14.545  0.00  0.00    +0.001 C 
ATOM     15  C   UNL     1      35.668 -23.911 -12.151  0.00  0.00    +0.000 C 
ATOM     16  C   UNL     1      33.645 -24.338 -13.401  0.00  0.00    +0.000 C 
ATOM     17  C   UNL     1      34.359 -24.390 -12.203  0.00  0.00    +0.000 C 
ENDBRANCH   9  12
BRANCH  11  19
ATOM     18  S   UNL     1      33.805 -19.052 -22.210  0.00  0.00    -0.078 S 
ATOM     19  C   UNL     1      34.596 -19.874 -20.934  0.00  0.00    +0.083 C 
ATOM     20  C   UNL     1      35.885 -19.424 -20.750  0.00  0.00    +0.012 C 
ATOM     21  C   UNL     1      35.187 -18.090 -22.520  0.00  0.00    +0.085 C 
ATOM     22  C   UNL     1      36.227 -18.390 -21.669  0.00  0.00    +0.012 C 
BRANCH  21  25
ATOM     23  O   UNL     1      35.378 -15.903 -23.354  0.00  0.00    -0.268 OA
ATOM     24  N   UNL     1      34.798 -17.555 -24.854  0.00  0.00    -0.193 N 
ATOM     25  C   UNL     1      35.138 -17.121 -23.567  0.00  0.00    +0.274 C 
ATOM     26  H   UNL     1      34.607 -18.504 -25.036  0.00  0.00    +0.183 HD
BRANCH  24  27
ATOM     27  O   UNL     1      34.738 -16.594 -25.873  0.00  0.00    -0.295 OA
ATOM     28  H   UNL     1      35.460 -16.745 -26.503  0.00  0.00    +0.241 HD
ENDBRANCH  24  27
ENDBRANCH  21  25
ENDBRANCH  11  19
TORSDOF 4
ENDMDL
MODEL 8
REMARK VINA RESULT:      -9.3      9.584     13.640
REMARK  Name = 24836811
REMARK  4 active torsions:
REMARK  status: ('A' for Active; 'I' for Inactive)
REMARK    1  A    between atoms: C_9  and  C_12
REMARK    2  A    between atoms: C_11  and  C_19
REMARK    3  A    between atoms: C_21  and  C_25
REMARK    4  A    between atoms: N_24  and  O_27
REMARK                            x       y       z     vdW  Elec       q    Type
REMARK                         _______ _______ _______ _____ _____    ______ ____
ROOT
ATOM      1  O   UNL     1      31.418 -10.311 -19.369  0.00  0.00    -0.269 OA
ATOM      2  N   UNL     1      33.213 -13.435 -22.555  0.00  0.00    -0.271 N 
ATOM      3  N   UNL     1      31.825 -11.299 -21.449  0.00  0.00    -0.267 N 
ATOM      4  N   UNL     1      33.579 -12.473 -24.513  0.00  0.00    -0.230 NA
ATOM      5  C   UNL     1      32.715 -13.574 -21.202  0.00  0.00    +0.118 C 
ATOM      6  C   UNL     1      31.520 -12.655 -20.977  0.00  0.00    +0.116 C 
ATOM      7  C   UNL     1      32.179 -11.171 -22.876  0.00  0.00    +0.155 C 
ATOM      8  C   UNL     1      32.995 -12.330 -23.340  0.00  0.00    +0.133 C 
ATOM      9  C   UNL     1      33.971 -14.322 -23.254  0.00  0.00    +0.072 C 
ATOM     10  C   UNL     1      34.186 -13.705 -24.465  0.00  0.00    +0.115 C 
ATOM     11  C   UNL     1      31.711 -10.225 -20.560  0.00  0.00    +0.255 C 
ENDROOT
BRANCH   9  12
ATOM     12  C   UNL     1      34.401 -15.611 -22.772  0.00  0.00    +0.015 C 
ATOM     13  C   UNL     1      34.601 -15.813 -21.405  0.00  0.00    +0.001 C 
ATOM     14  C   UNL     1      34.616 -16.657 -23.669  0.00  0.00    +0.001 C 
ATOM     15  C   UNL     1      35.017 -17.059 -20.939  0.00  0.00    +0.000 C 
ATOM     16  C   UNL     1      35.031 -17.903 -23.202  0.00  0.00    +0.000 C 
ATOM     17  C   UNL     1      35.232 -18.105 -21.836  0.00  0.00    +0.000 C 
ENDBRANCH   9  12
BRANCH  11  19
ATOM     18  S   UNL     1      31.305  -8.422 -22.593  0.00  0.00    -0.078 S 
ATOM     19  C   UNL     1      31.955  -8.868 -21.074  0.00  0.00    +0.083 C 
ATOM     20  C   UNL     1      32.664  -7.840 -20.493  0.00  0.00    +0.012 C 
ATOM     21  C   UNL     1      31.973  -6.849 -22.478  0.00  0.00    +0.085 C 
ATOM     22  C   UNL     1      32.675  -6.670 -21.306  0.00  0.00    +0.012 C 
BRANCH  21  25
ATOM     23  O   UNL     1      32.448  -5.936 -24.589  0.00  0.00    -0.268 OA
ATOM     24  N   UNL     1      30.740  -4.967 -23.383  0.00  0.00    -0.193 N 
ATOM     25  C   UNL     1      31.752  -5.921 -23.539  0.00  0.00    +0.274 C 
ATOM     26  H   UNL     1      30.187  -4.941 -22.568  0.00  0.00    +0.183 HD
BRANCH  24  27
ATOM     27  O   UNL     1      30.538  -4.050 -24.424  0.00  0.00    -0.295 OA
ATOM     28  H   UNL     1      29.626  -3.721 -24.394  0.00  0.00    +0.241 HD
ENDBRANCH  24  27
ENDBRANCH  21  25
ENDBRANCH  11  19
TORSDOF 4
ENDMDL
MODEL 9
REMARK VINA RESULT:      -9.1      7.003     11.520
REMARK  Name = 24836811
REMARK  4 active torsions:
REMARK  status: ('A' for Active; 'I' for Inactive)
REMARK    1  A    between atoms: C_9  and  C_12
REMARK    2  A    between atoms: C_11  and  C_19
REMARK    3  A    between atoms: C_21  and  C_25
REMARK    4  A    between atoms: N_24  and  O_27
REMARK                            x       y       z     vdW  Elec       q    Type
REMARK                         _______ _______ _______ _____ _____    ______ ____
ROOT
ATOM      1  O   UNL     1      31.908 -12.851 -20.207  0.00  0.00    -0.269 OA
ATOM      2  N   UNL     1      34.002 -16.754 -22.080  0.00  0.00    -0.271 N 
ATOM      3  N   UNL     1      32.518 -14.421 -21.830  0.00  0.00    -0.267 N 
ATOM      4  N   UNL     1      34.566 -16.434 -24.194  0.00  0.00    -0.230 NA
ATOM      5  C   UNL     1      33.371 -16.483 -20.805  0.00  0.00    +0.118 C 
ATOM      6  C   UNL     1      32.163 -15.573 -20.992  0.00  0.00    +0.116 C 
ATOM      7  C   UNL     1      33.014 -14.730 -23.184  0.00  0.00    +0.155 C 
ATOM      8  C   UNL     1      33.867 -15.953 -23.186  0.00  0.00    +0.133 C 
ATOM      9  C   UNL     1      34.823 -17.793 -22.393  0.00  0.00    +0.072 C 
ATOM     10  C   UNL     1      35.161 -17.574 -23.709  0.00  0.00    +0.115 C 
ATOM     11  C   UNL     1      32.320 -13.128 -21.332  0.00  0.00    +0.255 C 
ENDROOT
BRANCH   9  12
ATOM     12  C   UNL     1      35.198 -18.858 -21.496  0.00  0.00    +0.015 C 
ATOM     13  C   UNL     1      36.523 -18.984 -21.080  0.00  0.00    +0.001 C 
ATOM     14  C   UNL     1      34.236 -19.762 -21.044  0.00  0.00    +0.001 C 
ATOM     15  C   UNL     1      36.887 -20.014 -20.212  0.00  0.00    +0.000 C 
ATOM     16  C   UNL     1      34.599 -20.791 -20.176  0.00  0.00    +0.000 C 
ATOM     17  C   UNL     1      35.925 -20.918 -19.760  0.00  0.00    +0.000 C 
ENDBRANCH   9  12
BRANCH  11  19
ATOM     18  S   UNL     1      34.000 -12.056 -23.224  0.00  0.00    -0.078 S 
ATOM     19  C   UNL     1      32.619 -11.990 -22.216  0.00  0.00    +0.083 C 
ATOM     20  C   UNL     1      31.922 -10.812 -22.368  0.00  0.00    +0.012 C 
ATOM     21  C   UNL     1      33.669 -10.504 -23.869  0.00  0.00    +0.085 C 
ATOM     22  C   UNL     1      32.531  -9.950 -23.327  0.00  0.00    +0.012 C 
BRANCH  21  25
ATOM     23  O   UNL     1      34.887  -8.748 -24.842  0.00  0.00    -0.268 OA
ATOM     24  N   UNL     1      35.022 -10.811 -25.860  0.00  0.00    -0.193 N 
ATOM     25  C   UNL     1      34.548  -9.960 -24.854  0.00  0.00    +0.274 C 
ATOM     26  H   UNL     1      34.765 -11.761 -25.883  0.00  0.00    +0.183 HD
BRANCH  24  27
ATOM     27  O   UNL     1      35.873 -10.265 -26.831  0.00  0.00    -0.295 OA
ATOM     28  H   UNL     1      36.092  -9.351 -26.592  0.00  0.00    +0.241 HD
ENDBRANCH  24  27
ENDBRANCH  21  25
ENDBRANCH  11  19
TORSDOF 4
ENDMDL
