MODEL 1
REMARK VINA RESULT:      -5.9      0.000      0.000
REMARK  Name = 19094
REMARK  7 active torsions:
REMARK  status: ('A' for Active; 'I' for Inactive)
REMARK    1  A    between atoms: O_1  and  C_2
REMARK    2  A    between atoms: O_1  and  C_10
REMARK    3  A    between atoms: C_2  and  C_4
REMARK    4  A    between atoms: C_4  and  C_5
REMARK    5  A    between atoms: C_5  and  O_8
REMARK    6  A    between atoms: C_10  and  C_14
REMARK    7  A    between atoms: C_10  and  O_15
REMARK                            x       y       z     vdW  Elec       q    Type
REMARK                         _______ _______ _______ _____ _____    ______ ____
ROOT
ATOM      1  O   UNL     1      33.617 -16.408 -22.099  0.00  0.00    -0.330 OA
ENDROOT
BRANCH   1   2
ATOM      2  C   UNL     1      33.427 -15.135 -21.490  0.00  0.00    +0.120 C 
ATOM      3  C   UNL     1      32.700 -15.366 -20.170  0.00  0.00    +0.032 C 
BRANCH   2   4
ATOM      4  C   UNL     1      32.615 -14.205 -22.407  0.00  0.00    +0.057 C 
BRANCH   4   5
ATOM      5  C   UNL     1      33.412 -13.492 -23.524  0.00  0.00    +0.091 C 
ATOM      6  C   UNL     1      33.023 -14.073 -24.888  0.00  0.00    +0.029 C 
ATOM      7  C   UNL     1      33.184 -11.979 -23.528  0.00  0.00    +0.029 C 
BRANCH   5   8
ATOM      8  O   UNL     1      34.811 -13.713 -23.343  0.00  0.00    -0.387 OA
ATOM      9  H   UNL     1      35.060 -14.560 -23.745  0.00  0.00    +0.210 HD
ENDBRANCH   5   8
ENDBRANCH   4   5
ENDBRANCH   2   4
ENDBRANCH   1   2
BRANCH   1  10
ATOM     10  C   UNL     1      34.983 -16.837 -22.059  0.00  0.00    +0.276 C 
BRANCH  10  14
ATOM     11 CL   UNL     1      35.012 -19.113 -23.582  0.00  0.00    -0.078 Cl
ATOM     12 CL   UNL     1      33.647 -19.000 -21.012  0.00  0.00    -0.078 Cl
ATOM     13 CL   UNL     1      36.553 -18.879 -21.131  0.00  0.00    -0.078 Cl
ATOM     14  C   UNL     1      35.038 -18.373 -21.949  0.00  0.00    +0.249 C 
ENDBRANCH  10  14
BRANCH  10  15
ATOM     15  O   UNL     1      35.701 -16.385 -23.208  0.00  0.00    -0.357 OA
ATOM     16  H   UNL     1      35.764 -15.417 -23.189  0.00  0.00    +0.213 HD
ENDBRANCH  10  15
ENDBRANCH   1  10
TORSDOF 7
ENDMDL
MODEL 2
REMARK VINA RESULT:      -5.8      3.369      5.397
REMARK  Name = 19094
REMARK  7 active torsions:
REMARK  status: ('A' for Active; 'I' for Inactive)
REMARK    1  A    between atoms: O_1  and  C_2
REMARK    2  A    between atoms: O_1  and  C_10
REMARK    3  A    between atoms: C_2  and  C_4
REMARK    4  A    between atoms: C_4  and  C_5
REMARK    5  A    between atoms: C_5  and  O_8
REMARK    6  A    between atoms: C_10  and  C_14
REMARK    7  A    between atoms: C_10  and  O_15
REMARK                            x       y       z     vdW  Elec       q    Type
REMARK                         _______ _______ _______ _____ _____    ______ ____
ROOT
ATOM      1  O   UNL     1      33.922 -15.952 -23.443  0.00  0.00    -0.330 OA
ENDROOT
BRANCH   1   2
ATOM      2  C   UNL     1      34.897 -16.930 -23.788  0.00  0.00    +0.120 C 
ATOM      3  C   UNL     1      34.875 -17.081 -25.304  0.00  0.00    +0.032 C 
BRANCH   2   4
ATOM      4  C   UNL     1      34.595 -18.272 -23.100  0.00  0.00    +0.057 C 
BRANCH   4   5
ATOM      5  C   UNL     1      34.946 -18.355 -21.596  0.00  0.00    +0.091 C 
ATOM      6  C   UNL     1      34.005 -19.345 -20.900  0.00  0.00    +0.029 C 
ATOM      7  C   UNL     1      36.398 -18.775 -21.358  0.00  0.00    +0.029 C 
BRANCH   5   8
ATOM      8  O   UNL     1      34.764 -17.080 -20.981  0.00  0.00    -0.387 OA
ATOM      9  H   UNL     1      35.534 -16.520 -21.162  0.00  0.00    +0.210 HD
ENDBRANCH   5   8
ENDBRANCH   4   5
ENDBRANCH   2   4
ENDBRANCH   1   2
BRANCH   1  10
ATOM     10  C   UNL     1      34.450 -14.621 -23.458  0.00  0.00    +0.276 C 
BRANCH  10  14
ATOM     11 CL   UNL     1      32.626 -14.318 -25.478  0.00  0.00    -0.078 Cl
ATOM     12 CL   UNL     1      34.107 -12.058 -24.390  0.00  0.00    -0.078 Cl
ATOM     13 CL   UNL     1      32.095 -13.404 -22.773  0.00  0.00    -0.078 Cl
ATOM     14  C   UNL     1      33.384 -13.649 -23.997  0.00  0.00    +0.249 C 
ENDBRANCH  10  14
BRANCH  10  15
ATOM     15  O   UNL     1      34.887 -14.224 -22.157  0.00  0.00    -0.357 OA
ATOM     16  H   UNL     1      35.092 -13.276 -22.161  0.00  0.00    +0.213 HD
ENDBRANCH  10  15
ENDBRANCH   1  10
TORSDOF 7
ENDMDL
MODEL 3
REMARK VINA RESULT:      -5.8      2.703      5.230
REMARK  Name = 19094
REMARK  7 active torsions:
REMARK  status: ('A' for Active; 'I' for Inactive)
REMARK    1  A    between atoms: O_1  and  C_2
REMARK    2  A    between atoms: O_1  and  C_10
REMARK    3  A    between atoms: C_2  and  C_4
REMARK    4  A    between atoms: C_4  and  C_5
REMARK    5  A    between atoms: C_5  and  O_8
REMARK    6  A    between atoms: C_10  and  C_14
REMARK    7  A    between atoms: C_10  and  O_15
REMARK                            x       y       z     vdW  Elec       q    Type
REMARK                         _______ _______ _______ _____ _____    ______ ____
ROOT
ATOM      1  O   UNL     1      33.801 -17.277 -22.801  0.00  0.00    -0.330 OA
ENDROOT
BRANCH   1   2
ATOM      2  C   UNL     1      34.844 -18.044 -23.392  0.00  0.00    +0.120 C 
ATOM      3  C   UNL     1      34.510 -18.206 -24.870  0.00  0.00    +0.032 C 
BRANCH   2   4
ATOM      4  C   UNL     1      34.973 -19.414 -22.707  0.00  0.00    +0.057 C 
BRANCH   4   5
ATOM      5  C   UNL     1      34.925 -19.405 -21.161  0.00  0.00    +0.091 C 
ATOM      6  C   UNL     1      33.508 -19.746 -20.686  0.00  0.00    +0.029 C 
ATOM      7  C   UNL     1      35.922 -20.385 -20.541  0.00  0.00    +0.029 C 
BRANCH   5   8
ATOM      8  O   UNL     1      35.243 -18.103 -20.671  0.00  0.00    -0.387 OA
ATOM      9  H   UNL     1      34.595 -17.843 -19.997  0.00  0.00    +0.210 HD
ENDBRANCH   5   8
ENDBRANCH   4   5
ENDBRANCH   2   4
ENDBRANCH   1   2
BRANCH   1  10
ATOM     10  C   UNL     1      33.972 -15.870 -23.003  0.00  0.00    +0.276 C 
BRANCH  10  14
ATOM     11 CL   UNL     1      32.237 -16.150 -20.901  0.00  0.00    -0.078 Cl
ATOM     12 CL   UNL     1      32.495 -13.641 -22.359  0.00  0.00    -0.078 Cl
ATOM     13 CL   UNL     1      34.679 -14.593 -20.686  0.00  0.00    -0.078 Cl
ATOM     14  C   UNL     1      33.375 -15.101 -21.808  0.00  0.00    +0.249 C 
ENDBRANCH  10  14
BRANCH  10  15
ATOM     15  O   UNL     1      35.349 -15.537 -23.182  0.00  0.00    -0.357 OA
ATOM     16  H   UNL     1      35.852 -15.811 -22.399  0.00  0.00    +0.213 HD
ENDBRANCH  10  15
ENDBRANCH   1  10
TORSDOF 7
ENDMDL
MODEL 4
REMARK VINA RESULT:      -5.7     10.770     12.322
REMARK  Name = 19094
REMARK  7 active torsions:
REMARK  status: ('A' for Active; 'I' for Inactive)
REMARK    1  A    between atoms: O_1  and  C_2
REMARK    2  A    between atoms: O_1  and  C_10
REMARK    3  A    between atoms: C_2  and  C_4
REMARK    4  A    between atoms: C_4  and  C_5
REMARK    5  A    between atoms: C_5  and  O_8
REMARK    6  A    between atoms: C_10  and  C_14
REMARK    7  A    between atoms: C_10  and  O_15
REMARK                            x       y       z     vdW  Elec       q    Type
REMARK                         _______ _______ _______ _____ _____    ______ ____
ROOT
ATOM      1  O   UNL     1      34.864 -23.439 -13.967  0.00  0.00    -0.330 OA
ENDROOT
BRANCH   1   2
ATOM      2  C   UNL     1      34.169 -23.755 -15.168  0.00  0.00    +0.120 C 
ATOM      3  C   UNL     1      34.999 -23.221 -16.330  0.00  0.00    +0.032 C 
BRANCH   2   4
ATOM      4  C   UNL     1      32.763 -23.131 -15.168  0.00  0.00    +0.057 C 
BRANCH   4   5
ATOM      5  C   UNL     1      31.822 -23.582 -14.027  0.00  0.00    +0.091 C 
ATOM      6  C   UNL     1      30.416 -23.018 -14.263  0.00  0.00    +0.029 C 
ATOM      7  C   UNL     1      31.748 -25.104 -13.899  0.00  0.00    +0.029 C 
BRANCH   5   8
ATOM      8  O   UNL     1      32.289 -23.070 -12.779  0.00  0.00    -0.387 OA
ATOM      9  H   UNL     1      32.871 -23.722 -12.359  0.00  0.00    +0.210 HD
ENDBRANCH   5   8
ENDBRANCH   4   5
ENDBRANCH   2   4
ENDBRANCH   1   2
BRANCH   1  10
ATOM     10  C   UNL     1      35.406 -24.599 -13.326  0.00  0.00    +0.276 C 
BRANCH  10  14
ATOM     11 CL   UNL     1      37.618 -25.848 -12.302  0.00  0.00    -0.078 Cl
ATOM     12 CL   UNL     1      37.161 -22.994 -11.945  0.00  0.00    -0.078 Cl
ATOM     13 CL   UNL     1      37.778 -24.058 -14.583  0.00  0.00    -0.078 Cl
ATOM     14  C   UNL     1      36.907 -24.381 -13.049  0.00  0.00    +0.249 C 
ENDBRANCH  10  14
BRANCH  10  15
ATOM     15  O   UNL     1      34.706 -24.896 -12.117  0.00  0.00    -0.357 OA
ATOM     16  H   UNL     1      34.814 -24.162 -11.492  0.00  0.00    +0.213 HD
ENDBRANCH  10  15
ENDBRANCH   1  10
TORSDOF 7
ENDMDL
MODEL 5
REMARK VINA RESULT:      -5.7      1.457      2.596
REMARK  Name = 19094
REMARK  7 active torsions:
REMARK  status: ('A' for Active; 'I' for Inactive)
REMARK    1  A    between atoms: O_1  and  C_2
REMARK    2  A    between atoms: O_1  and  C_10
REMARK    3  A    between atoms: C_2  and  C_4
REMARK    4  A    between atoms: C_4  and  C_5
REMARK    5  A    between atoms: C_5  and  O_8
REMARK    6  A    between atoms: C_10  and  C_14
REMARK    7  A    between atoms: C_10  and  O_15
REMARK                            x       y       z     vdW  Elec       q    Type
REMARK                         _______ _______ _______ _____ _____    ______ ____
ROOT
ATOM      1  O   UNL     1      35.082 -16.668 -22.800  0.00  0.00    -0.330 OA
ENDROOT
BRANCH   1   2
ATOM      2  C   UNL     1      34.096 -15.900 -23.481  0.00  0.00    +0.120 C 
ATOM      3  C   UNL     1      34.228 -16.205 -24.969  0.00  0.00    +0.032 C 
BRANCH   2   4
ATOM      4  C   UNL     1      34.289 -14.398 -23.212  0.00  0.00    +0.057 C 
BRANCH   4   5
ATOM      5  C   UNL     1      33.007 -13.602 -22.871  0.00  0.00    +0.091 C 
ATOM      6  C   UNL     1      32.670 -13.778 -21.385  0.00  0.00    +0.029 C 
ATOM      7  C   UNL     1      33.143 -12.113 -23.192  0.00  0.00    +0.029 C 
BRANCH   5   8
ATOM      8  O   UNL     1      31.905 -14.105 -23.626  0.00  0.00    -0.387 OA
ATOM      9  H   UNL     1      31.731 -13.515 -24.376  0.00  0.00    +0.210 HD
ENDBRANCH   5   8
ENDBRANCH   4   5
ENDBRANCH   2   4
ENDBRANCH   1   2
BRANCH   1  10
ATOM     10  C   UNL     1      34.583 -17.256 -21.594  0.00  0.00    +0.276 C 
BRANCH  10  14
ATOM     11 CL   UNL     1      36.365 -19.190 -20.830  0.00  0.00    -0.078 Cl
ATOM     12 CL   UNL     1      34.857 -19.384 -23.314  0.00  0.00    -0.078 Cl
ATOM     13 CL   UNL     1      33.495 -19.624 -20.753  0.00  0.00    -0.078 Cl
ATOM     14  C   UNL     1      34.813 -18.779 -21.629  0.00  0.00    +0.249 C 
ENDBRANCH  10  14
BRANCH  10  15
ATOM     15  O   UNL     1      35.199 -16.677 -20.443  0.00  0.00    -0.357 OA
ATOM     16  H   UNL     1      34.523 -16.504 -19.768  0.00  0.00    +0.213 HD
ENDBRANCH  10  15
ENDBRANCH   1  10
TORSDOF 7
ENDMDL
MODEL 6
REMARK VINA RESULT:      -5.7      1.459      2.575
REMARK  Name = 19094
REMARK  7 active torsions:
REMARK  status: ('A' for Active; 'I' for Inactive)
REMARK    1  A    between atoms: O_1  and  C_2
REMARK    2  A    between atoms: O_1  and  C_10
REMARK    3  A    between atoms: C_2  and  C_4
REMARK    4  A    between atoms: C_4  and  C_5
REMARK    5  A    between atoms: C_5  and  O_8
REMARK    6  A    between atoms: C_10  and  C_14
REMARK    7  A    between atoms: C_10  and  O_15
REMARK                            x       y       z     vdW  Elec       q    Type
REMARK                         _______ _______ _______ _____ _____    ______ ____
ROOT
ATOM      1  O   UNL     1      35.253 -16.805 -22.794  0.00  0.00    -0.330 OA
ENDROOT
BRANCH   1   2
ATOM      2  C   UNL     1      34.318 -16.078 -23.583  0.00  0.00    +0.120 C 
ATOM      3  C   UNL     1      34.521 -16.497 -25.034  0.00  0.00    +0.032 C 
BRANCH   2   4
ATOM      4  C   UNL     1      34.523 -14.563 -23.418  0.00  0.00    +0.057 C 
BRANCH   4   5
ATOM      5  C   UNL     1      33.247 -13.693 -23.507  0.00  0.00    +0.091 C 
ATOM      6  C   UNL     1      32.409 -13.874 -22.236  0.00  0.00    +0.029 C 
ATOM      7  C   UNL     1      33.565 -12.210 -23.705  0.00  0.00    +0.029 C 
BRANCH   5   8
ATOM      8  O   UNL     1      32.448 -14.111 -24.614  0.00  0.00    -0.387 OA
ATOM      9  H   UNL     1      32.436 -15.080 -24.657  0.00  0.00    +0.210 HD
ENDBRANCH   5   8
ENDBRANCH   4   5
ENDBRANCH   2   4
ENDBRANCH   1   2
BRANCH   1  10
ATOM     10  C   UNL     1      34.666 -17.345 -21.605  0.00  0.00    +0.276 C 
BRANCH  10  14
ATOM     11 CL   UNL     1      33.546 -19.668 -20.683  0.00  0.00    -0.078 Cl
ATOM     12 CL   UNL     1      36.431 -19.275 -20.755  0.00  0.00    -0.078 Cl
ATOM     13 CL   UNL     1      34.927 -19.531 -23.234  0.00  0.00    -0.078 Cl
ATOM     14  C   UNL     1      34.886 -18.870 -21.567  0.00  0.00    +0.249 C 
ENDBRANCH  10  14
BRANCH  10  15
ATOM     15  O   UNL     1      35.205 -16.726 -20.436  0.00  0.00    -0.357 OA
ATOM     16  H   UNL     1      36.173 -16.788 -20.455  0.00  0.00    +0.213 HD
ENDBRANCH  10  15
ENDBRANCH   1  10
TORSDOF 7
ENDMDL
MODEL 7
REMARK VINA RESULT:      -5.6      8.630     10.316
REMARK  Name = 19094
REMARK  7 active torsions:
REMARK  status: ('A' for Active; 'I' for Inactive)
REMARK    1  A    between atoms: O_1  and  C_2
REMARK    2  A    between atoms: O_1  and  C_10
REMARK    3  A    between atoms: C_2  and  C_4
REMARK    4  A    between atoms: C_4  and  C_5
REMARK    5  A    between atoms: C_5  and  O_8
REMARK    6  A    between atoms: C_10  and  C_14
REMARK    7  A    between atoms: C_10  and  O_15
REMARK                            x       y       z     vdW  Elec       q    Type
REMARK                         _______ _______ _______ _____ _____    ______ ____
ROOT
ATOM      1  O   UNL     1      35.467 -24.181 -16.106  0.00  0.00    -0.330 OA
ENDROOT
BRANCH   1   2
ATOM      2  C   UNL     1      34.508 -23.131 -16.182  0.00  0.00    +0.120 C 
ATOM      3  C   UNL     1      33.688 -23.169 -14.898  0.00  0.00    +0.032 C 
BRANCH   2   4
ATOM      4  C   UNL     1      33.604 -23.303 -17.414  0.00  0.00    +0.057 C 
BRANCH   4   5
ATOM      5  C   UNL     1      34.106 -22.641 -18.719  0.00  0.00    +0.091 C 
ATOM      6  C   UNL     1      33.094 -21.590 -19.188  0.00  0.00    +0.029 C 
ATOM      7  C   UNL     1      35.480 -21.991 -18.553  0.00  0.00    +0.029 C 
BRANCH   5   8
ATOM      8  O   UNL     1      34.219 -23.622 -19.751  0.00  0.00    -0.387 OA
ATOM      9  H   UNL     1      35.150 -23.866 -19.866  0.00  0.00    +0.210 HD
ENDBRANCH   5   8
ENDBRANCH   4   5
ENDBRANCH   2   4
ENDBRANCH   1   2
BRANCH   1  10
ATOM     10  C   UNL     1      36.577 -23.850 -15.264  0.00  0.00    +0.276 C 
BRANCH  10  14
ATOM     11 CL   UNL     1      36.313 -25.126 -12.855  0.00  0.00    -0.078 Cl
ATOM     12 CL   UNL     1      38.818 -25.148 -14.340  0.00  0.00    -0.078 Cl
ATOM     13 CL   UNL     1      36.501 -26.586 -15.358  0.00  0.00    -0.078 Cl
ATOM     14  C   UNL     1      37.034 -25.106 -14.497  0.00  0.00    +0.249 C 
ENDBRANCH  10  14
BRANCH  10  15
ATOM     15  O   UNL     1      37.654 -23.299 -16.022  0.00  0.00    -0.357 OA
ATOM     16  H   UNL     1      37.617 -22.331 -15.980  0.00  0.00    +0.213 HD
ENDBRANCH  10  15
ENDBRANCH   1  10
TORSDOF 7
ENDMDL
MODEL 8
REMARK VINA RESULT:      -5.6     10.866     13.009
REMARK  Name = 19094
REMARK  7 active torsions:
REMARK  status: ('A' for Active; 'I' for Inactive)
REMARK    1  A    between atoms: O_1  and  C_2
REMARK    2  A    between atoms: O_1  and  C_10
REMARK    3  A    between atoms: C_2  and  C_4
REMARK    4  A    between atoms: C_4  and  C_5
REMARK    5  A    between atoms: C_5  and  O_8
REMARK    6  A    between atoms: C_10  and  C_14
REMARK    7  A    between atoms: C_10  and  O_15
REMARK                            x       y       z     vdW  Elec       q    Type
REMARK                         _______ _______ _______ _____ _____    ______ ____
ROOT
ATOM      1  O   UNL     1      33.933 -24.508 -14.695  0.00  0.00    -0.330 OA
ENDROOT
BRANCH   1   2
ATOM      2  C   UNL     1      35.082 -23.910 -14.105  0.00  0.00    +0.120 C 
ATOM      3  C   UNL     1      35.574 -22.827 -15.059  0.00  0.00    +0.032 C 
BRANCH   2   4
ATOM      4  C   UNL     1      36.179 -24.958 -13.855  0.00  0.00    +0.057 C 
BRANCH   4   5
ATOM      5  C   UNL     1      36.649 -25.109 -12.389  0.00  0.00    +0.091 C 
ATOM      6  C   UNL     1      38.000 -24.408 -12.206  0.00  0.00    +0.029 C 
ATOM      7  C   UNL     1      35.639 -24.544 -11.391  0.00  0.00    +0.029 C 
BRANCH   5   8
ATOM      8  O   UNL     1      36.834 -26.490 -12.076  0.00  0.00    -0.387 OA
ATOM      9  H   UNL     1      37.084 -26.974 -12.879  0.00  0.00    +0.210 HD
ENDBRANCH   5   8
ENDBRANCH   4   5
ENDBRANCH   2   4
ENDBRANCH   1   2
BRANCH   1  10
ATOM     10  C   UNL     1      32.725 -24.174 -14.003  0.00  0.00    +0.276 C 
BRANCH  10  14
ATOM     11 CL   UNL     1      32.330 -23.497 -16.628  0.00  0.00    -0.078 Cl
ATOM     12 CL   UNL     1      30.631 -22.463 -14.500  0.00  0.00    -0.078 Cl
ATOM     13 CL   UNL     1      30.532 -25.284 -15.210  0.00  0.00    -0.078 Cl
ATOM     14  C   UNL     1      31.614 -23.865 -15.025  0.00  0.00    +0.249 C 
ENDBRANCH  10  14
BRANCH  10  15
ATOM     15  O   UNL     1      32.326 -25.227 -13.124  0.00  0.00    -0.357 OA
ATOM     16  H   UNL     1      31.394 -25.107 -12.879  0.00  0.00    +0.213 HD
ENDBRANCH  10  15
ENDBRANCH   1  10
TORSDOF 7
ENDMDL
MODEL 9
REMARK VINA RESULT:      -5.6      9.915     11.465
REMARK  Name = 19094
REMARK  7 active torsions:
REMARK  status: ('A' for Active; 'I' for Inactive)
REMARK    1  A    between atoms: O_1  and  C_2
REMARK    2  A    between atoms: O_1  and  C_10
REMARK    3  A    between atoms: C_2  and  C_4
REMARK    4  A    between atoms: C_4  and  C_5
REMARK    5  A    between atoms: C_5  and  O_8
REMARK    6  A    between atoms: C_10  and  C_14
REMARK    7  A    between atoms: C_10  and  O_15
REMARK                            x       y       z     vdW  Elec       q    Type
REMARK                         _______ _______ _______ _____ _____    ______ ____
ROOT
ATOM      1  O   UNL     1      33.112 -23.326 -15.115  0.00  0.00    -0.330 OA
ENDROOT
BRANCH   1   2
ATOM      2  C   UNL     1      32.428 -23.591 -16.335  0.00  0.00    +0.120 C 
ATOM      3  C   UNL     1      33.332 -23.132 -17.474  0.00  0.00    +0.032 C 
BRANCH   2   4
ATOM      4  C   UNL     1      31.079 -22.856 -16.378  0.00  0.00    +0.057 C 
BRANCH   4   5
ATOM      5  C   UNL     1      29.991 -23.381 -15.412  0.00  0.00    +0.091 C 
ATOM      6  C   UNL     1      28.684 -22.612 -15.638  0.00  0.00    +0.029 C 
ATOM      7  C   UNL     1      29.739 -24.880 -15.577  0.00  0.00    +0.029 C 
BRANCH   5   8
ATOM      8  O   UNL     1      30.392 -23.161 -14.059  0.00  0.00    -0.387 OA
ATOM      9  H   UNL     1      30.053 -22.305 -13.756  0.00  0.00    +0.210 HD
ENDBRANCH   5   8
ENDBRANCH   4   5
ENDBRANCH   2   4
ENDBRANCH   1   2
BRANCH   1  10
ATOM     10  C   UNL     1      33.572 -24.521 -14.474  0.00  0.00    +0.276 C 
BRANCH  10  14
ATOM     11 CL   UNL     1      35.977 -25.694 -15.058  0.00  0.00    -0.078 Cl
ATOM     12 CL   UNL     1      35.419 -24.554 -12.436  0.00  0.00    -0.078 Cl
ATOM     13 CL   UNL     1      35.699 -22.819 -14.757  0.00  0.00    -0.078 Cl
ATOM     14  C   UNL     1      35.082 -24.405 -14.189  0.00  0.00    +0.249 C 
ENDBRANCH  10  14
BRANCH  10  15
ATOM     15  O   UNL     1      32.848 -24.772 -13.269  0.00  0.00    -0.357 OA
ATOM     16  H   UNL     1      33.410 -25.266 -12.651  0.00  0.00    +0.213 HD
ENDBRANCH  10  15
ENDBRANCH   1  10
TORSDOF 7
ENDMDL
