MODEL 1
REMARK VINA RESULT:      -8.4      0.000      0.000
REMARK  Name = 6914644
REMARK  5 active torsions:
REMARK  status: ('A' for Active; 'I' for Inactive)
REMARK    1  A    between atoms: S_1  and  C_5
REMARK    2  A    between atoms: S_1  and  N_15
REMARK    3  A    between atoms: C_6  and  N_12
REMARK    4  A    between atoms: C_16  and  C_21
REMARK    5  A    between atoms: C_21  and  O_22
REMARK                            x       y       z     vdW  Elec       q    Type
REMARK                         _______ _______ _______ _____ _____    ______ ____
ROOT
ATOM      1  S   UNL     1      37.320 -23.219 -15.079  0.00  0.00    +0.065 S 
ATOM      2  O   UNL     1      37.990 -22.704 -16.259  0.00  0.00    -0.153 OA
ATOM      3  O   UNL     1      37.519 -22.591 -13.787  0.00  0.00    -0.153 OA
ENDROOT
BRANCH   1   5
ATOM      4 CL   UNL     1      31.178 -23.206 -16.326  0.00  0.00    -0.083 Cl
ATOM      5  C   UNL     1      35.584 -23.220 -15.412  0.00  0.00    +0.135 C 
ATOM      6  C   UNL     1      34.666 -23.439 -14.397  0.00  0.00    +0.061 C 
ATOM      7  C   UNL     1      35.170 -22.995 -16.717  0.00  0.00    +0.018 C 
ATOM      8  C   UNL     1      33.807 -22.989 -17.011  0.00  0.00    -0.010 C 
ATOM      9  C   UNL     1      33.303 -23.433 -14.691  0.00  0.00    +0.027 C 
ATOM     10  C   UNL     1      32.873 -23.208 -15.998  0.00  0.00    +0.055 C 
ATOM     11  C   UNL     1      33.387 -22.742 -18.425  0.00  0.00    +0.032 C 
BRANCH   6  12
ATOM     12  N   UNL     1      35.077 -23.669 -13.064  0.00  0.00    -0.356 N 
ATOM     13  H   UNL     1      35.563 -22.969 -12.571  0.00  0.00    +0.142 HD
ATOM     14  H   UNL     1      34.876 -24.529 -12.629  0.00  0.00    +0.142 HD
ENDBRANCH   6  12
ENDBRANCH   1   5
BRANCH   1  15
ATOM     15  N   UNL     1      37.609 -24.889 -14.946  0.00  0.00    -0.146 NA
ATOM     16  C   UNL     1      38.309 -25.382 -13.727  0.00  0.00    +0.178 C 
ATOM     17  C   UNL     1      37.566 -26.645 -13.306  0.00  0.00    +0.031 C 
ATOM     18  C   UNL     1      36.473 -25.806 -15.239  0.00  0.00    +0.096 C 
ATOM     19  C   UNL     1      36.882 -27.113 -14.580  0.00  0.00    +0.021 C 
BRANCH  16  21
ATOM     20  O   UNL     1      40.073 -26.686 -14.728  0.00  0.00    -0.249 OA
ATOM     21  C   UNL     1      39.707 -25.664 -14.167  0.00  0.00    +0.330 C 
BRANCH  21  22
ATOM     22  O   UNL     1      40.524 -24.628 -13.858  0.00  0.00    -0.479 OA
ATOM     23  H   UNL     1      41.444 -24.773 -13.752  0.00  0.00    +0.295 HD
ENDBRANCH  21  22
ENDBRANCH  16  21
ENDBRANCH   1  15
TORSDOF 5
ENDMDL
MODEL 2
REMARK VINA RESULT:      -8.4      2.194      2.864
REMARK  Name = 6914644
REMARK  5 active torsions:
REMARK  status: ('A' for Active; 'I' for Inactive)
REMARK    1  A    between atoms: S_1  and  C_5
REMARK    2  A    between atoms: S_1  and  N_15
REMARK    3  A    between atoms: C_6  and  N_12
REMARK    4  A    between atoms: C_16  and  C_21
REMARK    5  A    between atoms: C_21  and  O_22
REMARK                            x       y       z     vdW  Elec       q    Type
REMARK                         _______ _______ _______ _____ _____    ______ ____
ROOT
ATOM      1  S   UNL     1      36.092 -23.947 -12.922  0.00  0.00    +0.065 S 
ATOM      2  O   UNL     1      36.667 -22.745 -12.348  0.00  0.00    -0.153 OA
ATOM      3  O   UNL     1      35.036 -24.660 -12.229  0.00  0.00    -0.153 OA
ENDROOT
BRANCH   1   5
ATOM      4 CL   UNL     1      34.021 -22.439 -18.642  0.00  0.00    -0.083 Cl
ATOM      5  C   UNL     1      35.492 -23.532 -14.532  0.00  0.00    +0.135 C 
ATOM      6  C   UNL     1      34.234 -23.941 -14.948  0.00  0.00    +0.061 C 
ATOM      7  C   UNL     1      36.315 -22.786 -15.363  0.00  0.00    +0.018 C 
ATOM      8  C   UNL     1      35.869 -22.442 -16.639  0.00  0.00    -0.010 C 
ATOM      9  C   UNL     1      33.788 -23.597 -16.224  0.00  0.00    +0.027 C 
ATOM     10  C   UNL     1      34.606 -22.848 -17.070  0.00  0.00    +0.055 C 
ATOM     11  C   UNL     1      36.774 -21.636 -17.515  0.00  0.00    +0.032 C 
BRANCH   6  12
ATOM     12  N   UNL     1      33.388 -24.701 -14.110  0.00  0.00    -0.356 N 
ATOM     13  H   UNL     1      32.966 -25.522 -14.451  0.00  0.00    +0.142 HD
ATOM     14  H   UNL     1      33.220 -24.408 -13.185  0.00  0.00    +0.142 HD
ENDBRANCH   6  12
ENDBRANCH   1   5
BRANCH   1  15
ATOM     15  N   UNL     1      37.336 -25.033 -13.328  0.00  0.00    -0.146 NA
ATOM     16  C   UNL     1      37.543 -25.353 -14.767  0.00  0.00    +0.178 C 
ATOM     17  C   UNL     1      39.052 -25.340 -14.981  0.00  0.00    +0.031 C 
ATOM     18  C   UNL     1      38.667 -24.815 -12.698  0.00  0.00    +0.096 C 
ATOM     19  C   UNL     1      39.623 -25.585 -13.593  0.00  0.00    +0.021 C 
BRANCH  16  21
ATOM     20  O   UNL     1      36.735 -27.237 -16.036  0.00  0.00    -0.249 OA
ATOM     21  C   UNL     1      36.953 -26.710 -14.955  0.00  0.00    +0.330 C 
BRANCH  21  22
ATOM     22  O   UNL     1      36.687 -27.287 -13.758  0.00  0.00    -0.479 OA
ATOM     23  H   UNL     1      37.222 -27.991 -13.448  0.00  0.00    +0.295 HD
ENDBRANCH  21  22
ENDBRANCH  16  21
ENDBRANCH   1  15
TORSDOF 5
ENDMDL
MODEL 3
REMARK VINA RESULT:      -8.2      2.361      2.996
REMARK  Name = 6914644
REMARK  5 active torsions:
REMARK  status: ('A' for Active; 'I' for Inactive)
REMARK    1  A    between atoms: S_1  and  C_5
REMARK    2  A    between atoms: S_1  and  N_15
REMARK    3  A    between atoms: C_6  and  N_12
REMARK    4  A    between atoms: C_16  and  C_21
REMARK    5  A    between atoms: C_21  and  O_22
REMARK                            x       y       z     vdW  Elec       q    Type
REMARK                         _______ _______ _______ _____ _____    ______ ____
ROOT
ATOM      1  S   UNL     1      35.072 -23.882 -14.474  0.00  0.00    +0.065 S 
ATOM      2  O   UNL     1      35.189 -22.889 -13.422  0.00  0.00    -0.153 OA
ATOM      3  O   UNL     1      33.852 -24.651 -14.628  0.00  0.00    -0.153 OA
ENDROOT
BRANCH   1   5
ATOM      4 CL   UNL     1      36.133 -21.014 -19.944  0.00  0.00    -0.083 Cl
ATOM      5  C   UNL     1      35.389 -23.068 -16.010  0.00  0.00    +0.135 C 
ATOM      6  C   UNL     1      36.612 -22.463 -16.255  0.00  0.00    +0.061 C 
ATOM      7  C   UNL     1      34.378 -23.053 -16.961  0.00  0.00    +0.018 C 
ATOM      8  C   UNL     1      34.598 -22.419 -18.184  0.00  0.00    -0.010 C 
ATOM      9  C   UNL     1      36.832 -21.829 -17.477  0.00  0.00    +0.027 C 
ATOM     10  C   UNL     1      35.825 -21.807 -18.442  0.00  0.00    +0.055 C 
ATOM     11  C   UNL     1      33.495 -22.419 -19.193  0.00  0.00    +0.032 C 
BRANCH   6  12
ATOM     12  N   UNL     1      37.647 -22.472 -15.294  0.00  0.00    -0.356 N 
ATOM     13  H   UNL     1      37.446 -22.689 -14.355  0.00  0.00    +0.142 HD
ATOM     14  H   UNL     1      38.571 -22.262 -15.563  0.00  0.00    +0.142 HD
ENDBRANCH   6  12
ENDBRANCH   1   5
BRANCH   1  15
ATOM     15  N   UNL     1      36.402 -24.940 -14.406  0.00  0.00    -0.146 NA
ATOM     16  C   UNL     1      36.800 -25.476 -13.075  0.00  0.00    +0.178 C 
ATOM     17  C   UNL     1      37.103 -26.953 -13.299  0.00  0.00    +0.031 C 
ATOM     18  C   UNL     1      36.441 -26.054 -15.393  0.00  0.00    +0.096 C 
ATOM     19  C   UNL     1      37.418 -27.045 -14.783  0.00  0.00    +0.021 C 
BRANCH  16  21
ATOM     20  O   UNL     1      38.919 -24.387 -13.448  0.00  0.00    -0.249 OA
ATOM     21  C   UNL     1      38.013 -24.699 -12.688  0.00  0.00    +0.330 C 
BRANCH  21  22
ATOM     22  O   UNL     1      37.979 -24.381 -11.371  0.00  0.00    -0.479 OA
ATOM     23  H   UNL     1      37.687 -25.013 -10.745  0.00  0.00    +0.295 HD
ENDBRANCH  21  22
ENDBRANCH  16  21
ENDBRANCH   1  15
TORSDOF 5
ENDMDL
MODEL 4
REMARK VINA RESULT:      -8.1      1.671      2.544
REMARK  Name = 6914644
REMARK  5 active torsions:
REMARK  status: ('A' for Active; 'I' for Inactive)
REMARK    1  A    between atoms: S_1  and  C_5
REMARK    2  A    between atoms: S_1  and  N_15
REMARK    3  A    between atoms: C_6  and  N_12
REMARK    4  A    between atoms: C_16  and  C_21
REMARK    5  A    between atoms: C_21  and  O_22
REMARK                            x       y       z     vdW  Elec       q    Type
REMARK                         _______ _______ _______ _____ _____    ______ ____
ROOT
ATOM      1  S   UNL     1      35.845 -24.152 -13.248  0.00  0.00    +0.065 S 
ATOM      2  O   UNL     1      36.500 -22.869 -13.075  0.00  0.00    -0.153 OA
ATOM      3  O   UNL     1      35.526 -24.977 -12.098  0.00  0.00    -0.153 OA
ENDROOT
BRANCH   1   5
ATOM      4 CL   UNL     1      30.485 -23.173 -16.345  0.00  0.00    -0.083 Cl
ATOM      5  C   UNL     1      34.343 -23.866 -14.135  0.00  0.00    +0.135 C 
ATOM      6  C   UNL     1      34.354 -23.212 -15.357  0.00  0.00    +0.061 C 
ATOM      7  C   UNL     1      33.158 -24.317 -13.572  0.00  0.00    +0.018 C 
ATOM      8  C   UNL     1      31.956 -24.107 -14.249  0.00  0.00    -0.010 C 
ATOM      9  C   UNL     1      33.152 -23.002 -16.033  0.00  0.00    +0.027 C 
ATOM     10  C   UNL     1      31.953 -23.449 -15.479  0.00  0.00    +0.055 C 
ATOM     11  C   UNL     1      30.692 -24.603 -13.622  0.00  0.00    +0.032 C 
BRANCH   6  12
ATOM     12  N   UNL     1      35.555 -22.749 -15.939  0.00  0.00    -0.356 N 
ATOM     13  H   UNL     1      35.958 -21.905 -15.632  0.00  0.00    +0.142 HD
ATOM     14  H   UNL     1      35.990 -23.272 -16.652  0.00  0.00    +0.142 HD
ENDBRANCH   6  12
ENDBRANCH   1   5
BRANCH   1  15
ATOM     15  N   UNL     1      36.704 -25.078 -14.387  0.00  0.00    -0.146 NA
ATOM     16  C   UNL     1      38.068 -25.547 -14.019  0.00  0.00    +0.178 C 
ATOM     17  C   UNL     1      38.150 -26.994 -14.493  0.00  0.00    +0.031 C 
ATOM     18  C   UNL     1      35.980 -26.203 -15.040  0.00  0.00    +0.096 C 
ATOM     19  C   UNL     1      37.092 -27.085 -15.581  0.00  0.00    +0.021 C 
BRANCH  16  21
ATOM     20  O   UNL     1      40.222 -24.728 -14.730  0.00  0.00    -0.249 OA
ATOM     21  C   UNL     1      39.003 -24.651 -14.761  0.00  0.00    +0.330 C 
BRANCH  21  22
ATOM     22  O   UNL     1      38.315 -23.731 -15.479  0.00  0.00    -0.479 OA
ATOM     23  H   UNL     1      37.958 -22.976 -15.055  0.00  0.00    +0.295 HD
ENDBRANCH  21  22
ENDBRANCH  16  21
ENDBRANCH   1  15
TORSDOF 5
ENDMDL
MODEL 5
REMARK VINA RESULT:      -8.1      1.675      2.302
REMARK  Name = 6914644
REMARK  5 active torsions:
REMARK  status: ('A' for Active; 'I' for Inactive)
REMARK    1  A    between atoms: S_1  and  C_5
REMARK    2  A    between atoms: S_1  and  N_15
REMARK    3  A    between atoms: C_6  and  N_12
REMARK    4  A    between atoms: C_16  and  C_21
REMARK    5  A    between atoms: C_21  and  O_22
REMARK                            x       y       z     vdW  Elec       q    Type
REMARK                         _______ _______ _______ _____ _____    ______ ____
ROOT
ATOM      1  S   UNL     1      37.048 -23.129 -13.935  0.00  0.00    +0.065 S 
ATOM      2  O   UNL     1      37.504 -22.481 -15.151  0.00  0.00    -0.153 OA
ATOM      3  O   UNL     1      37.148 -22.450 -12.657  0.00  0.00    -0.153 OA
ENDROOT
BRANCH   1   5
ATOM      4 CL   UNL     1      31.043 -24.676 -14.841  0.00  0.00    -0.083 Cl
ATOM      5  C   UNL     1      35.355 -23.575 -14.173  0.00  0.00    +0.135 C 
ATOM      6  C   UNL     1      34.661 -24.277 -13.200  0.00  0.00    +0.061 C 
ATOM      7  C   UNL     1      34.743 -23.201 -15.361  0.00  0.00    +0.018 C 
ATOM      8  C   UNL     1      33.407 -23.537 -15.579  0.00  0.00    -0.010 C 
ATOM      9  C   UNL     1      33.325 -24.613 -13.417  0.00  0.00    +0.027 C 
ATOM     10  C   UNL     1      32.698 -24.244 -14.607  0.00  0.00    +0.055 C 
ATOM     11  C   UNL     1      32.770 -23.122 -16.866  0.00  0.00    +0.032 C 
BRANCH   6  12
ATOM     12  N   UNL     1      35.274 -24.662 -11.987  0.00  0.00    -0.356 N 
ATOM     13  H   UNL     1      35.044 -25.524 -11.571  0.00  0.00    +0.142 HD
ATOM     14  H   UNL     1      35.932 -24.068 -11.557  0.00  0.00    +0.142 HD
ENDBRANCH   6  12
ENDBRANCH   1   5
BRANCH   1  15
ATOM     15  N   UNL     1      37.758 -24.670 -13.814  0.00  0.00    -0.146 NA
ATOM     16  C   UNL     1      37.961 -25.446 -15.068  0.00  0.00    +0.178 C 
ATOM     17  C   UNL     1      39.351 -26.062 -14.953  0.00  0.00    +0.031 C 
ATOM     18  C   UNL     1      38.986 -24.794 -12.980  0.00  0.00    +0.096 C 
ATOM     19  C   UNL     1      39.619 -26.090 -13.457  0.00  0.00    +0.021 C 
BRANCH  16  21
ATOM     20  O   UNL     1      36.294 -26.875 -16.064  0.00  0.00    -0.249 OA
ATOM     21  C   UNL     1      36.881 -26.475 -15.070  0.00  0.00    +0.330 C 
BRANCH  21  22
ATOM     22  O   UNL     1      36.632 -26.911 -13.811  0.00  0.00    -0.479 OA
ATOM     23  H   UNL     1      36.149 -27.702 -13.676  0.00  0.00    +0.295 HD
ENDBRANCH  21  22
ENDBRANCH  16  21
ENDBRANCH   1  15
TORSDOF 5
ENDMDL
MODEL 6
REMARK VINA RESULT:      -8.1      1.739      2.131
REMARK  Name = 6914644
REMARK  5 active torsions:
REMARK  status: ('A' for Active; 'I' for Inactive)
REMARK    1  A    between atoms: S_1  and  C_5
REMARK    2  A    between atoms: S_1  and  N_15
REMARK    3  A    between atoms: C_6  and  N_12
REMARK    4  A    between atoms: C_16  and  C_21
REMARK    5  A    between atoms: C_21  and  O_22
REMARK                            x       y       z     vdW  Elec       q    Type
REMARK                         _______ _______ _______ _____ _____    ______ ____
ROOT
ATOM      1  S   UNL     1      36.400 -23.264 -14.484  0.00  0.00    +0.065 S 
ATOM      2  O   UNL     1      37.375 -22.214 -14.258  0.00  0.00    -0.153 OA
ATOM      3  O   UNL     1      35.385 -23.553 -13.489  0.00  0.00    -0.153 OA
ENDROOT
BRANCH   1   5
ATOM      4 CL   UNL     1      33.524 -21.951 -19.895  0.00  0.00    -0.083 Cl
ATOM      5  C   UNL     1      35.573 -22.903 -16.004  0.00  0.00    +0.135 C 
ATOM      6  C   UNL     1      34.243 -23.247 -16.188  0.00  0.00    +0.061 C 
ATOM      7  C   UNL     1      36.294 -22.266 -17.003  0.00  0.00    +0.018 C 
ATOM      8  C   UNL     1      35.669 -21.966 -18.213  0.00  0.00    -0.010 C 
ATOM      9  C   UNL     1      33.617 -22.947 -17.398  0.00  0.00    +0.027 C 
ATOM     10  C   UNL     1      34.330 -22.307 -18.411  0.00  0.00    +0.055 C 
ATOM     11  C   UNL     1      36.466 -21.278 -19.274  0.00  0.00    +0.032 C 
BRANCH   6  12
ATOM     12  N   UNL     1      33.499 -23.895 -15.176  0.00  0.00    -0.356 N 
ATOM     13  H   UNL     1      33.135 -23.376 -14.423  0.00  0.00    +0.142 HD
ATOM     14  H   UNL     1      33.345 -24.867 -15.225  0.00  0.00    +0.142 HD
ENDBRANCH   6  12
ENDBRANCH   1   5
BRANCH   1  15
ATOM     15  N   UNL     1      37.204 -24.703 -14.905  0.00  0.00    -0.146 NA
ATOM     16  C   UNL     1      38.381 -25.110 -14.089  0.00  0.00    +0.178 C 
ATOM     17  C   UNL     1      38.234 -26.611 -13.871  0.00  0.00    +0.031 C 
ATOM     18  C   UNL     1      36.365 -25.907 -15.154  0.00  0.00    +0.096 C 
ATOM     19  C   UNL     1      37.340 -27.064 -15.015  0.00  0.00    +0.021 C 
BRANCH  16  21
ATOM     20  O   UNL     1      40.705 -25.177 -14.726  0.00  0.00    -0.249 OA
ATOM     21  C   UNL     1      39.570 -24.769 -14.923  0.00  0.00    +0.330 C 
BRANCH  21  22
ATOM     22  O   UNL     1      39.224 -23.939 -15.937  0.00  0.00    -0.479 OA
ATOM     23  H   UNL     1      38.714 -24.263 -16.653  0.00  0.00    +0.295 HD
ENDBRANCH  21  22
ENDBRANCH  16  21
ENDBRANCH   1  15
TORSDOF 5
ENDMDL
MODEL 7
REMARK VINA RESULT:      -7.9      2.331      3.238
REMARK  Name = 6914644
REMARK  5 active torsions:
REMARK  status: ('A' for Active; 'I' for Inactive)
REMARK    1  A    between atoms: S_1  and  C_5
REMARK    2  A    between atoms: S_1  and  N_15
REMARK    3  A    between atoms: C_6  and  N_12
REMARK    4  A    between atoms: C_16  and  C_21
REMARK    5  A    between atoms: C_21  and  O_22
REMARK                            x       y       z     vdW  Elec       q    Type
REMARK                         _______ _______ _______ _____ _____    ______ ____
ROOT
ATOM      1  S   UNL     1      36.060 -24.264 -15.338  0.00  0.00    +0.065 S 
ATOM      2  O   UNL     1      36.322 -25.564 -15.927  0.00  0.00    -0.153 OA
ATOM      3  O   UNL     1      36.706 -23.075 -15.861  0.00  0.00    -0.153 OA
ENDROOT
BRANCH   1   5
ATOM      4 CL   UNL     1      29.862 -23.348 -15.492  0.00  0.00    -0.083 Cl
ATOM      5  C   UNL     1      34.315 -23.995 -15.398  0.00  0.00    +0.135 C 
ATOM      6  C   UNL     1      33.737 -23.305 -16.452  0.00  0.00    +0.061 C 
ATOM      7  C   UNL     1      33.542 -24.495 -14.359  0.00  0.00    +0.018 C 
ATOM      8  C   UNL     1      32.161 -24.300 -14.378  0.00  0.00    -0.010 C 
ATOM      9  C   UNL     1      32.357 -23.110 -16.471  0.00  0.00    +0.027 C 
ATOM     10  C   UNL     1      31.568 -23.608 -15.434  0.00  0.00    +0.055 C 
ATOM     11  C   UNL     1      31.350 -24.851 -13.249  0.00  0.00    +0.032 C 
BRANCH   6  12
ATOM     12  N   UNL     1      34.515 -22.792 -17.515  0.00  0.00    -0.356 N 
ATOM     13  H   UNL     1      34.632 -23.318 -18.338  0.00  0.00    +0.142 HD
ATOM     14  H   UNL     1      34.940 -21.907 -17.431  0.00  0.00    +0.142 HD
ENDBRANCH   6  12
ENDBRANCH   1   5
BRANCH   1  15
ATOM     15  N   UNL     1      36.302 -24.344 -13.657  0.00  0.00    -0.146 NA
ATOM     16  C   UNL     1      37.572 -24.945 -13.162  0.00  0.00    +0.178 C 
ATOM     17  C   UNL     1      38.041 -24.043 -12.026  0.00  0.00    +0.031 C 
ATOM     18  C   UNL     1      36.024 -23.114 -12.865  0.00  0.00    +0.096 C 
ATOM     19  C   UNL     1      36.773 -23.343 -11.564  0.00  0.00    +0.021 C 
BRANCH  16  21
ATOM     20  O   UNL     1      36.986 -26.614 -11.523  0.00  0.00    -0.249 OA
ATOM     21  C   UNL     1      37.199 -26.310 -12.688  0.00  0.00    +0.330 C 
BRANCH  21  22
ATOM     22  O   UNL     1      37.128 -27.176 -13.728  0.00  0.00    -0.479 OA
ATOM     23  H   UNL     1      36.517 -27.886 -13.705  0.00  0.00    +0.295 HD
ENDBRANCH  21  22
ENDBRANCH  16  21
ENDBRANCH   1  15
TORSDOF 5
ENDMDL
MODEL 8
REMARK VINA RESULT:      -7.7      2.067      2.707
REMARK  Name = 6914644
REMARK  5 active torsions:
REMARK  status: ('A' for Active; 'I' for Inactive)
REMARK    1  A    between atoms: S_1  and  C_5
REMARK    2  A    between atoms: S_1  and  N_15
REMARK    3  A    between atoms: C_6  and  N_12
REMARK    4  A    between atoms: C_16  and  C_21
REMARK    5  A    between atoms: C_21  and  O_22
REMARK                            x       y       z     vdW  Elec       q    Type
REMARK                         _______ _______ _______ _____ _____    ______ ____
ROOT
ATOM      1  S   UNL     1      36.598 -24.355 -15.340  0.00  0.00    +0.065 S 
ATOM      2  O   UNL     1      36.746 -25.780 -15.570  0.00  0.00    -0.153 OA
ATOM      3  O   UNL     1      37.414 -23.403 -16.071  0.00  0.00    -0.153 OA
ENDROOT
BRANCH   1   5
ATOM      4 CL   UNL     1      30.610 -22.860 -16.426  0.00  0.00    -0.083 Cl
ATOM      5  C   UNL     1      34.905 -23.942 -15.630  0.00  0.00    +0.135 C 
ATOM      6  C   UNL     1      33.927 -24.260 -14.700  0.00  0.00    +0.061 C 
ATOM      7  C   UNL     1      34.585 -23.291 -16.813  0.00  0.00    +0.018 C 
ATOM      8  C   UNL     1      33.257 -22.951 -17.070  0.00  0.00    -0.010 C 
ATOM      9  C   UNL     1      32.599 -23.921 -14.957  0.00  0.00    +0.027 C 
ATOM     10  C   UNL     1      32.264 -23.266 -16.142  0.00  0.00    +0.055 C 
ATOM     11  C   UNL     1      32.938 -22.248 -18.350  0.00  0.00    +0.032 C 
BRANCH   6  12
ATOM     12  N   UNL     1      34.242 -24.923 -13.492  0.00  0.00    -0.356 N 
ATOM     13  H   UNL     1      34.403 -24.402 -12.673  0.00  0.00    +0.142 HD
ATOM     14  H   UNL     1      34.300 -25.905 -13.471  0.00  0.00    +0.142 HD
ENDBRANCH   6  12
ENDBRANCH   1   5
BRANCH   1  15
ATOM     15  N   UNL     1      36.713 -24.035 -13.674  0.00  0.00    -0.146 NA
ATOM     16  C   UNL     1      37.649 -24.865 -12.866  0.00  0.00    +0.178 C 
ATOM     17  C   UNL     1      38.362 -23.894 -11.932  0.00  0.00    +0.031 C 
ATOM     18  C   UNL     1      36.868 -22.613 -13.260  0.00  0.00    +0.096 C 
ATOM     19  C   UNL     1      37.418 -22.705 -11.847  0.00  0.00    +0.021 C 
BRANCH  16  21
ATOM     20  O   UNL     1      36.174 -25.581 -11.099  0.00  0.00    -0.249 OA
ATOM     21  C   UNL     1      36.780 -25.829 -12.131  0.00  0.00    +0.330 C 
BRANCH  21  22
ATOM     22  O   UNL     1      36.751 -27.027 -12.763  0.00  0.00    -0.479 OA
ATOM     23  H   UNL     1      37.433 -27.651 -12.614  0.00  0.00    +0.295 HD
ENDBRANCH  21  22
ENDBRANCH  16  21
ENDBRANCH   1  15
TORSDOF 5
ENDMDL
MODEL 9
REMARK VINA RESULT:      -7.5      7.861     10.040
REMARK  Name = 6914644
REMARK  5 active torsions:
REMARK  status: ('A' for Active; 'I' for Inactive)
REMARK    1  A    between atoms: S_1  and  C_5
REMARK    2  A    between atoms: S_1  and  N_15
REMARK    3  A    between atoms: C_6  and  N_12
REMARK    4  A    between atoms: C_16  and  C_21
REMARK    5  A    between atoms: C_21  and  O_22
REMARK                            x       y       z     vdW  Elec       q    Type
REMARK                         _______ _______ _______ _____ _____    ______ ____
ROOT
ATOM      1  S   UNL     1      35.414 -18.770 -22.896  0.00  0.00    +0.065 S 
ATOM      2  O   UNL     1      34.588 -19.609 -23.743  0.00  0.00    -0.153 OA
ATOM      3  O   UNL     1      36.795 -18.500 -23.250  0.00  0.00    -0.153 OA
ENDROOT
BRANCH   1   5
ATOM      4 CL   UNL     1      32.480 -13.274 -22.216  0.00  0.00    -0.083 Cl
ATOM      5  C   UNL     1      34.592 -17.215 -22.722  0.00  0.00    +0.135 C 
ATOM      6  C   UNL     1      34.484 -16.345 -23.796  0.00  0.00    +0.061 C 
ATOM      7  C   UNL     1      34.058 -16.895 -21.482  0.00  0.00    +0.018 C 
ATOM      8  C   UNL     1      33.402 -15.676 -21.314  0.00  0.00    -0.010 C 
ATOM      9  C   UNL     1      33.828 -15.126 -23.627  0.00  0.00    +0.027 C 
ATOM     10  C   UNL     1      33.287 -14.791 -22.387  0.00  0.00    +0.055 C 
ATOM     11  C   UNL     1      32.833 -15.354 -19.969  0.00  0.00    +0.032 C 
BRANCH   6  12
ATOM     12  N   UNL     1      35.024 -16.662 -25.063  0.00  0.00    -0.356 N 
ATOM     13  H   UNL     1      34.806 -17.522 -25.489  0.00  0.00    +0.142 HD
ATOM     14  H   UNL     1      35.617 -16.022 -25.519  0.00  0.00    +0.142 HD
ENDBRANCH   6  12
ENDBRANCH   1   5
BRANCH   1  15
ATOM     15  N   UNL     1      35.343 -19.337 -21.294  0.00  0.00    -0.146 NA
ATOM     16  C   UNL     1      34.655 -20.633 -21.042  0.00  0.00    +0.178 C 
ATOM     17  C   UNL     1      35.537 -21.384 -20.051  0.00  0.00    +0.031 C 
ATOM     18  C   UNL     1      36.604 -19.312 -20.502  0.00  0.00    +0.096 C 
ATOM     19  C   UNL     1      36.340 -20.287 -19.368  0.00  0.00    +0.021 C 
BRANCH  16  21
ATOM     20  O   UNL     1      32.603 -19.377 -20.879  0.00  0.00    -0.249 OA
ATOM     21  C   UNL     1      33.331 -20.266 -20.461  0.00  0.00    +0.330 C 
BRANCH  21  22
ATOM     22  O   UNL     1      33.038 -21.054 -19.398  0.00  0.00    -0.479 OA
ATOM     23  H   UNL     1      33.285 -20.788 -18.535  0.00  0.00    +0.295 HD
ENDBRANCH  21  22
ENDBRANCH  16  21
ENDBRANCH   1  15
TORSDOF 5
ENDMDL
