MODEL 1
REMARK VINA RESULT:      -6.5      0.000      0.000
REMARK  Name = 5289108
REMARK  13 active torsions:
REMARK  status: ('A' for Active; 'I' for Inactive)
REMARK    1  A    between atoms: C_1  and  C_2
REMARK    2  A    between atoms: C_1  and  C_14
REMARK    3  A    between atoms: C_1  and  C_20
REMARK    4  A    between atoms: C_2  and  C_3
REMARK    5  A    between atoms: C_2  and  C_9
REMARK    6  A    between atoms: C_3  and  C_4
REMARK    7  A    between atoms: C_4  and  C_6
REMARK    8  A    between atoms: C_6  and  O_7
REMARK    9  A    between atoms: C_9  and  N_10
REMARK   10  A    between atoms: C_14  and  C_15
REMARK   11  A    between atoms: C_15  and  N_16
REMARK   12  A    between atoms: C_20  and  C_22
REMARK   13  A    between atoms: C_22  and  O_23
REMARK                            x       y       z     vdW  Elec       q    Type
REMARK                         _______ _______ _______ _____ _____    ______ ____
ROOT
ATOM      1  C   UNL     1      35.645 -24.673 -14.021  0.00  0.00    +0.007 C 
ENDROOT
BRANCH   1   2
ATOM      2  C   UNL     1      36.889 -24.772 -14.975  0.00  0.00    -0.021 C 
BRANCH   2   3
ATOM      3  C   UNL     1      37.860 -25.944 -14.662  0.00  0.00    +0.010 C 
BRANCH   3   4
ATOM      4  C   UNL     1      39.157 -25.532 -13.962  0.00  0.00    +0.109 C 
BRANCH   4   6
ATOM      5  O   UNL     1      41.283 -26.711 -14.108  0.00  0.00    -0.250 OA
ATOM      6  C   UNL     1      40.378 -26.096 -14.655  0.00  0.00    +0.314 C 
BRANCH   6   7
ATOM      7  O   UNL     1      40.363 -25.826 -15.985  0.00  0.00    -0.480 OA
ATOM      8  H   UNL     1      40.993 -26.225 -16.553  0.00  0.00    +0.295 HD
ENDBRANCH   6   7
ENDBRANCH   4   6
ENDBRANCH   3   4
ENDBRANCH   2   3
BRANCH   2   9
ATOM      9  C   UNL     1      37.645 -23.424 -15.063  0.00  0.00    -0.086 C 
BRANCH   9  10
ATOM     10  N   UNL     1      37.553 -22.806 -16.384  0.00  0.00    +0.380 N 
ATOM     11  H   UNL     1      37.338 -21.815 -16.283  0.00  0.00    -0.089 HD
ATOM     12  H   UNL     1      36.815 -23.262 -16.922  0.00  0.00    -0.089 HD
ATOM     13  H   UNL     1      38.443 -22.912 -16.872  0.00  0.00    -0.089 HD
ENDBRANCH   9  10
ENDBRANCH   2   9
ENDBRANCH   1   2
BRANCH   1  14
ATOM     14  C   UNL     1      34.319 -24.198 -14.669  0.00  0.00    -0.023 C 
BRANCH  14  15
ATOM     15  C   UNL     1      33.083 -24.305 -13.778  0.00  0.00    -0.086 C 
BRANCH  15  16
ATOM     16  N   UNL     1      32.398 -23.017 -13.716  0.00  0.00    +0.380 N 
ATOM     17  H   UNL     1      31.530 -23.120 -13.187  0.00  0.00    -0.089 HD
ATOM     18  H   UNL     1      32.184 -22.699 -14.661  0.00  0.00    -0.089 HD
ATOM     19  H   UNL     1      32.998 -22.335 -13.254  0.00  0.00    -0.089 HD
ENDBRANCH  15  16
ENDBRANCH  14  15
ENDBRANCH   1  14
BRANCH   1  20
ATOM     20  C   UNL     1      35.949 -23.734 -12.823  0.00  0.00    +0.109 C 
BRANCH  20  22
ATOM     21  O   UNL     1      35.296 -25.097 -10.907  0.00  0.00    -0.250 OA
ATOM     22  C   UNL     1      36.149 -24.473 -11.520  0.00  0.00    +0.314 C 
BRANCH  22  23
ATOM     23  O   UNL     1      37.427 -24.321 -11.086  0.00  0.00    -0.480 OA
ATOM     24  H   UNL     1      37.596 -23.905 -10.264  0.00  0.00    +0.295 HD
ENDBRANCH  22  23
ENDBRANCH  20  22
ENDBRANCH   1  20
TORSDOF 13
ENDMDL
MODEL 2
REMARK VINA RESULT:      -6.5      8.850     10.146
REMARK  Name = 5289108
REMARK  13 active torsions:
REMARK  status: ('A' for Active; 'I' for Inactive)
REMARK    1  A    between atoms: C_1  and  C_2
REMARK    2  A    between atoms: C_1  and  C_14
REMARK    3  A    between atoms: C_1  and  C_20
REMARK    4  A    between atoms: C_2  and  C_3
REMARK    5  A    between atoms: C_2  and  C_9
REMARK    6  A    between atoms: C_3  and  C_4
REMARK    7  A    between atoms: C_4  and  C_6
REMARK    8  A    between atoms: C_6  and  O_7
REMARK    9  A    between atoms: C_9  and  N_10
REMARK   10  A    between atoms: C_14  and  C_15
REMARK   11  A    between atoms: C_15  and  N_16
REMARK   12  A    between atoms: C_20  and  C_22
REMARK   13  A    between atoms: C_22  and  O_23
REMARK                            x       y       z     vdW  Elec       q    Type
REMARK                         _______ _______ _______ _____ _____    ______ ____
ROOT
ATOM      1  C   UNL     1      34.521 -18.471 -21.738  0.00  0.00    +0.007 C 
ENDROOT
BRANCH   1   2
ATOM      2  C   UNL     1      34.343 -19.617 -20.678  0.00  0.00    -0.021 C 
BRANCH   2   3
ATOM      3  C   UNL     1      35.359 -20.785 -20.803  0.00  0.00    +0.010 C 
BRANCH   3   4
ATOM      4  C   UNL     1      36.500 -20.752 -19.783  0.00  0.00    +0.109 C 
BRANCH   4   6
ATOM      5  O   UNL     1      36.903 -21.728 -17.588  0.00  0.00    -0.250 OA
ATOM      6  C   UNL     1      36.244 -21.681 -18.617  0.00  0.00    +0.314 C 
BRANCH   6   7
ATOM      7  O   UNL     1      35.178 -22.490 -18.852  0.00  0.00    -0.480 OA
ATOM      8  H   UNL     1      34.873 -23.071 -18.183  0.00  0.00    +0.295 HD
ENDBRANCH   6   7
ENDBRANCH   4   6
ENDBRANCH   3   4
ENDBRANCH   2   3
BRANCH   2   9
ATOM      9  C   UNL     1      32.886 -20.140 -20.647  0.00  0.00    -0.086 C 
BRANCH   9  10
ATOM     10  N   UNL     1      32.613 -20.992 -19.492  0.00  0.00    +0.380 N 
ATOM     11  H   UNL     1      33.081 -20.612 -18.670  0.00  0.00    -0.089 HD
ATOM     12  H   UNL     1      32.958 -21.934 -19.675  0.00  0.00    -0.089 HD
ATOM     13  H   UNL     1      31.607 -21.026 -19.324  0.00  0.00    -0.089 HD
ENDBRANCH   9  10
ENDBRANCH   2   9
ENDBRANCH   1   2
BRANCH   1  14
ATOM     14  C   UNL     1      35.285 -18.848 -23.034  0.00  0.00    -0.023 C 
BRANCH  14  15
ATOM     15  C   UNL     1      34.631 -18.385 -24.334  0.00  0.00    -0.086 C 
BRANCH  15  16
ATOM     16  N   UNL     1      35.130 -17.063 -24.703  0.00  0.00    +0.380 N 
ATOM     17  H   UNL     1      35.577 -16.631 -23.894  0.00  0.00    -0.089 HD
ATOM     18  H   UNL     1      34.353 -16.480 -25.014  0.00  0.00    -0.089 HD
ATOM     19  H   UNL     1      35.810 -17.155 -25.457  0.00  0.00    -0.089 HD
ENDBRANCH  15  16
ENDBRANCH  14  15
ENDBRANCH   1  14
BRANCH   1  20
ATOM     20  C   UNL     1      35.238 -17.248 -21.105  0.00  0.00    +0.109 C 
BRANCH  20  22
ATOM     21  O   UNL     1      33.719 -15.695 -22.217  0.00  0.00    -0.250 OA
ATOM     22  C   UNL     1      34.492 -15.950 -21.305  0.00  0.00    +0.314 C 
BRANCH  22  23
ATOM     23  O   UNL     1      34.825 -15.063 -20.332  0.00  0.00    -0.480 OA
ATOM     24  H   UNL     1      35.723 -14.946 -20.094  0.00  0.00    +0.295 HD
ENDBRANCH  22  23
ENDBRANCH  20  22
ENDBRANCH   1  20
TORSDOF 13
ENDMDL
MODEL 3
REMARK VINA RESULT:      -6.3      1.631      1.732
REMARK  Name = 5289108
REMARK  13 active torsions:
REMARK  status: ('A' for Active; 'I' for Inactive)
REMARK    1  A    between atoms: C_1  and  C_2
REMARK    2  A    between atoms: C_1  and  C_14
REMARK    3  A    between atoms: C_1  and  C_20
REMARK    4  A    between atoms: C_2  and  C_3
REMARK    5  A    between atoms: C_2  and  C_9
REMARK    6  A    between atoms: C_3  and  C_4
REMARK    7  A    between atoms: C_4  and  C_6
REMARK    8  A    between atoms: C_6  and  O_7
REMARK    9  A    between atoms: C_9  and  N_10
REMARK   10  A    between atoms: C_14  and  C_15
REMARK   11  A    between atoms: C_15  and  N_16
REMARK   12  A    between atoms: C_20  and  C_22
REMARK   13  A    between atoms: C_22  and  O_23
REMARK                            x       y       z     vdW  Elec       q    Type
REMARK                         _______ _______ _______ _____ _____    ______ ____
ROOT
ATOM      1  C   UNL     1      35.218 -24.546 -13.217  0.00  0.00    +0.007 C 
ENDROOT
BRANCH   1   2
ATOM      2  C   UNL     1      36.471 -25.257 -13.843  0.00  0.00    -0.021 C 
BRANCH   2   3
ATOM      3  C   UNL     1      37.775 -24.413 -13.830  0.00  0.00    +0.010 C 
BRANCH   3   4
ATOM      4  C   UNL     1      38.986 -25.114 -13.209  0.00  0.00    +0.109 C 
BRANCH   4   6
ATOM      5  O   UNL     1      40.985 -24.975 -14.594  0.00  0.00    -0.250 OA
ATOM      6  C   UNL     1      39.972 -25.575 -14.260  0.00  0.00    +0.314 C 
BRANCH   6   7
ATOM      7  O   UNL     1      39.591 -26.754 -14.816  0.00  0.00    -0.480 OA
ATOM      8  H   UNL     1      38.767 -26.820 -15.256  0.00  0.00    +0.295 HD
ENDBRANCH   6   7
ENDBRANCH   4   6
ENDBRANCH   3   4
ENDBRANCH   2   3
BRANCH   2   9
ATOM      9  C   UNL     1      36.167 -25.801 -15.260  0.00  0.00    -0.086 C 
BRANCH   9  10
ATOM     10  N   UNL     1      36.472 -27.224 -15.400  0.00  0.00    +0.380 N 
ATOM     11  H   UNL     1      37.480 -27.364 -15.334  0.00  0.00    -0.089 HD
ATOM     12  H   UNL     1      36.141 -27.555 -16.306  0.00  0.00    -0.089 HD
ATOM     13  H   UNL     1      36.007 -27.746 -14.657  0.00  0.00    -0.089 HD
ENDBRANCH   9  10
ENDBRANCH   2   9
ENDBRANCH   1   2
BRANCH   1  14
ATOM     14  C   UNL     1      34.332 -23.732 -14.195  0.00  0.00    -0.023 C 
BRANCH  14  15
ATOM     15  C   UNL     1      32.829 -23.978 -14.072  0.00  0.00    -0.086 C 
BRANCH  15  16
ATOM     16  N   UNL     1      32.132 -22.716 -13.838  0.00  0.00    +0.380 N 
ATOM     17  H   UNL     1      32.478 -22.012 -14.491  0.00  0.00    -0.089 HD
ATOM     18  H   UNL     1      32.303 -22.406 -12.881  0.00  0.00    -0.089 HD
ATOM     19  H   UNL     1      31.132 -22.849 -13.980  0.00  0.00    -0.089 HD
ENDBRANCH  15  16
ENDBRANCH  14  15
ENDBRANCH   1  14
BRANCH   1  20
ATOM     20  C   UNL     1      35.646 -23.598 -12.066  0.00  0.00    +0.109 C 
BRANCH  20  22
ATOM     21  O   UNL     1      35.175 -25.317 -10.399  0.00  0.00    -0.250 OA
ATOM     22  C   UNL     1      35.754 -24.293 -10.728  0.00  0.00    +0.314 C 
BRANCH  22  23
ATOM     23  O   UNL     1      36.575 -23.594  -9.902  0.00  0.00    -0.480 OA
ATOM     24  H   UNL     1      37.458 -23.418 -10.158  0.00  0.00    +0.295 HD
ENDBRANCH  22  23
ENDBRANCH  20  22
ENDBRANCH   1  20
TORSDOF 13
ENDMDL
MODEL 4
REMARK VINA RESULT:      -6.1      3.015      3.549
REMARK  Name = 5289108
REMARK  13 active torsions:
REMARK  status: ('A' for Active; 'I' for Inactive)
REMARK    1  A    between atoms: C_1  and  C_2
REMARK    2  A    between atoms: C_1  and  C_14
REMARK    3  A    between atoms: C_1  and  C_20
REMARK    4  A    between atoms: C_2  and  C_3
REMARK    5  A    between atoms: C_2  and  C_9
REMARK    6  A    between atoms: C_3  and  C_4
REMARK    7  A    between atoms: C_4  and  C_6
REMARK    8  A    between atoms: C_6  and  O_7
REMARK    9  A    between atoms: C_9  and  N_10
REMARK   10  A    between atoms: C_14  and  C_15
REMARK   11  A    between atoms: C_15  and  N_16
REMARK   12  A    between atoms: C_20  and  C_22
REMARK   13  A    between atoms: C_22  and  O_23
REMARK                            x       y       z     vdW  Elec       q    Type
REMARK                         _______ _______ _______ _____ _____    ______ ____
ROOT
ATOM      1  C   UNL     1      37.086 -23.753 -13.913  0.00  0.00    +0.007 C 
ENDROOT
BRANCH   1   2
ATOM      2  C   UNL     1      36.753 -25.288 -13.889  0.00  0.00    -0.021 C 
BRANCH   2   3
ATOM      3  C   UNL     1      37.957 -26.213 -13.564  0.00  0.00    +0.010 C 
BRANCH   3   4
ATOM      4  C   UNL     1      39.311 -25.501 -13.494  0.00  0.00    +0.109 C 
BRANCH   4   6
ATOM      5  O   UNL     1      41.287 -26.719 -14.230  0.00  0.00    -0.250 OA
ATOM      6  C   UNL     1      40.295 -26.056 -14.499  0.00  0.00    +0.314 C 
BRANCH   6   7
ATOM      7  O   UNL     1      39.953 -25.716 -15.769  0.00  0.00    -0.480 OA
ATOM      8  H   UNL     1      39.741 -24.827 -15.976  0.00  0.00    +0.295 HD
ENDBRANCH   6   7
ENDBRANCH   4   6
ENDBRANCH   3   4
ENDBRANCH   2   3
BRANCH   2   9
ATOM      9  C   UNL     1      36.036 -25.733 -15.188  0.00  0.00    -0.086 C 
BRANCH   9  10
ATOM     10  N   UNL     1      36.250 -27.145 -15.499  0.00  0.00    +0.380 N 
ATOM     11  H   UNL     1      35.661 -27.720 -14.898  0.00  0.00    -0.089 HD
ATOM     12  H   UNL     1      37.230 -27.383 -15.344  0.00  0.00    -0.089 HD
ATOM     13  H   UNL     1      36.010 -27.318 -16.476  0.00  0.00    -0.089 HD
ENDBRANCH   9  10
ENDBRANCH   2   9
ENDBRANCH   1   2
BRANCH   1  14
ATOM     14  C   UNL     1      36.730 -22.954 -12.633  0.00  0.00    -0.023 C 
BRANCH  14  15
ATOM     15  C   UNL     1      35.914 -23.718 -11.593  0.00  0.00    -0.086 C 
BRANCH  15  16
ATOM     16  N   UNL     1      36.605 -23.708 -10.307  0.00  0.00    +0.380 N 
ATOM     17  H   UNL     1      36.513 -22.785  -9.880  0.00  0.00    -0.089 HD
ATOM     18  H   UNL     1      37.593 -23.920 -10.449  0.00  0.00    -0.089 HD
ATOM     19  H   UNL     1      36.191 -24.408  -9.693  0.00  0.00    -0.089 HD
ENDBRANCH  15  16
ENDBRANCH  14  15
ENDBRANCH   1  14
BRANCH   1  20
ATOM     20  C   UNL     1      36.385 -23.061 -15.113  0.00  0.00    +0.109 C 
BRANCH  20  22
ATOM     21  O   UNL     1      37.109 -21.737 -17.031  0.00  0.00    -0.250 OA
ATOM     22  C   UNL     1      37.352 -22.560 -16.161  0.00  0.00    +0.314 C 
BRANCH  22  23
ATOM     23  O   UNL     1      38.550 -23.186 -16.031  0.00  0.00    -0.480 OA
ATOM     24  H   UNL     1      39.232 -22.791 -15.525  0.00  0.00    +0.295 HD
ENDBRANCH  22  23
ENDBRANCH  20  22
ENDBRANCH   1  20
TORSDOF 13
ENDMDL
MODEL 5
REMARK VINA RESULT:      -6.0      2.627      4.918
REMARK  Name = 5289108
REMARK  13 active torsions:
REMARK  status: ('A' for Active; 'I' for Inactive)
REMARK    1  A    between atoms: C_1  and  C_2
REMARK    2  A    between atoms: C_1  and  C_14
REMARK    3  A    between atoms: C_1  and  C_20
REMARK    4  A    between atoms: C_2  and  C_3
REMARK    5  A    between atoms: C_2  and  C_9
REMARK    6  A    between atoms: C_3  and  C_4
REMARK    7  A    between atoms: C_4  and  C_6
REMARK    8  A    between atoms: C_6  and  O_7
REMARK    9  A    between atoms: C_9  and  N_10
REMARK   10  A    between atoms: C_14  and  C_15
REMARK   11  A    between atoms: C_15  and  N_16
REMARK   12  A    between atoms: C_20  and  C_22
REMARK   13  A    between atoms: C_22  and  O_23
REMARK                            x       y       z     vdW  Elec       q    Type
REMARK                         _______ _______ _______ _____ _____    ______ ____
ROOT
ATOM      1  C   UNL     1      36.335 -24.283 -15.227  0.00  0.00    +0.007 C 
ENDROOT
BRANCH   1   2
ATOM      2  C   UNL     1      35.241 -23.860 -14.183  0.00  0.00    -0.021 C 
BRANCH   2   3
ATOM      3  C   UNL     1      35.436 -24.447 -12.758  0.00  0.00    +0.010 C 
BRANCH   3   4
ATOM      4  C   UNL     1      35.958 -23.449 -11.721  0.00  0.00    +0.109 C 
BRANCH   4   6
ATOM      5  O   UNL     1      38.173 -22.462 -11.953  0.00  0.00    -0.250 OA
ATOM      6  C   UNL     1      37.470 -23.423 -11.672  0.00  0.00    +0.314 C 
BRANCH   6   7
ATOM      7  O   UNL     1      37.974 -24.622 -11.283  0.00  0.00    -0.480 OA
ATOM      8  H   UNL     1      38.569 -25.084 -11.841  0.00  0.00    +0.295 HD
ENDBRANCH   6   7
ENDBRANCH   4   6
ENDBRANCH   3   4
ENDBRANCH   2   3
BRANCH   2   9
ATOM      9  C   UNL     1      33.813 -24.136 -14.714  0.00  0.00    -0.086 C 
BRANCH   9  10
ATOM     10  N   UNL     1      33.551 -23.490 -16.000  0.00  0.00    +0.380 N 
ATOM     11  H   UNL     1      34.435 -23.250 -16.446  0.00  0.00    -0.089 HD
ATOM     12  H   UNL     1      33.004 -22.643 -15.850  0.00  0.00    -0.089 HD
ATOM     13  H   UNL     1      33.030 -24.129 -16.601  0.00  0.00    -0.089 HD
ENDBRANCH   9  10
ENDBRANCH   2   9
ENDBRANCH   1   2
BRANCH   1  14
ATOM     14  C   UNL     1      37.191 -25.524 -14.860  0.00  0.00    -0.023 C 
BRANCH  14  15
ATOM     15  C   UNL     1      38.691 -25.266 -14.732  0.00  0.00    -0.086 C 
BRANCH  15  16
ATOM     16  N   UNL     1      39.234 -26.013 -13.601  0.00  0.00    +0.380 N 
ATOM     17  H   UNL     1      38.560 -26.722 -13.308  0.00  0.00    -0.089 HD
ATOM     18  H   UNL     1      39.414 -25.374 -12.826  0.00  0.00    -0.089 HD
ATOM     19  H   UNL     1      40.104 -26.465 -13.879  0.00  0.00    -0.089 HD
ENDBRANCH  15  16
ENDBRANCH  14  15
ENDBRANCH   1  14
BRANCH   1  20
ATOM     20  C   UNL     1      37.307 -23.105 -15.508  0.00  0.00    +0.109 C 
BRANCH  20  22
ATOM     21  O   UNL     1      35.981 -22.446 -17.449  0.00  0.00    -0.250 OA
ATOM     22  C   UNL     1      36.826 -22.184 -16.606  0.00  0.00    +0.314 C 
BRANCH  22  23
ATOM     23  O   UNL     1      37.498 -21.005 -16.556  0.00  0.00    -0.480 OA
ATOM     24  H   UNL     1      37.953 -20.759 -15.775  0.00  0.00    +0.295 HD
ENDBRANCH  22  23
ENDBRANCH  20  22
ENDBRANCH   1  20
TORSDOF 13
ENDMDL
MODEL 6
REMARK VINA RESULT:      -6.0     13.506     15.018
REMARK  Name = 5289108
REMARK  13 active torsions:
REMARK  status: ('A' for Active; 'I' for Inactive)
REMARK    1  A    between atoms: C_1  and  C_2
REMARK    2  A    between atoms: C_1  and  C_14
REMARK    3  A    between atoms: C_1  and  C_20
REMARK    4  A    between atoms: C_2  and  C_3
REMARK    5  A    between atoms: C_2  and  C_9
REMARK    6  A    between atoms: C_3  and  C_4
REMARK    7  A    between atoms: C_4  and  C_6
REMARK    8  A    between atoms: C_6  and  O_7
REMARK    9  A    between atoms: C_9  and  N_10
REMARK   10  A    between atoms: C_14  and  C_15
REMARK   11  A    between atoms: C_15  and  N_16
REMARK   12  A    between atoms: C_20  and  C_22
REMARK   13  A    between atoms: C_22  and  O_23
REMARK                            x       y       z     vdW  Elec       q    Type
REMARK                         _______ _______ _______ _____ _____    ______ ____
ROOT
ATOM      1  C   UNL     1      33.937 -13.464 -24.242  0.00  0.00    +0.007 C 
ENDROOT
BRANCH   1   2
ATOM      2  C   UNL     1      34.106 -14.291 -22.916  0.00  0.00    -0.021 C 
BRANCH   2   3
ATOM      3  C   UNL     1      34.863 -15.637 -23.079  0.00  0.00    +0.010 C 
BRANCH   3   4
ATOM      4  C   UNL     1      34.306 -16.790 -22.239  0.00  0.00    +0.109 C 
BRANCH   4   6
ATOM      5  O   UNL     1      35.045 -16.012 -20.052  0.00  0.00    -0.250 OA
ATOM      6  C   UNL     1      34.995 -16.896 -20.897  0.00  0.00    +0.314 C 
BRANCH   6   7
ATOM      7  O   UNL     1      35.581 -18.110 -20.735  0.00  0.00    -0.480 OA
ATOM      8  H   UNL     1      35.617 -18.714 -21.450  0.00  0.00    +0.295 HD
ENDBRANCH   6   7
ENDBRANCH   4   6
ENDBRANCH   3   4
ENDBRANCH   2   3
BRANCH   2   9
ATOM      9  C   UNL     1      32.751 -14.490 -22.195  0.00  0.00    -0.086 C 
BRANCH   9  10
ATOM     10  N   UNL     1      32.742 -13.941 -20.840  0.00  0.00    +0.380 N 
ATOM     11  H   UNL     1      32.414 -14.651 -20.187  0.00  0.00    -0.089 HD
ATOM     12  H   UNL     1      32.121 -13.133 -20.805  0.00  0.00    -0.089 HD
ATOM     13  H   UNL     1      33.687 -13.654 -20.584  0.00  0.00    -0.089 HD
ENDBRANCH   9  10
ENDBRANCH   2   9
ENDBRANCH   1   2
BRANCH   1  14
ATOM     14  C   UNL     1      33.653 -11.949 -24.074  0.00  0.00    -0.023 C 
BRANCH  14  15
ATOM     15  C   UNL     1      34.271 -11.048 -25.141  0.00  0.00    -0.086 C 
BRANCH  15  16
ATOM     16  N   UNL     1      35.376 -10.281 -24.573  0.00  0.00    +0.380 N 
ATOM     17  H   UNL     1      35.041  -9.357 -24.298  0.00  0.00    -0.089 HD
ATOM     18  H   UNL     1      36.115 -10.181 -25.270  0.00  0.00    -0.089 HD
ATOM     19  H   UNL     1      35.742 -10.767 -23.755  0.00  0.00    -0.089 HD
ENDBRANCH  15  16
ENDBRANCH  14  15
ENDBRANCH   1  14
BRANCH   1  20
ATOM     20  C   UNL     1      32.803 -14.063 -25.117  0.00  0.00    +0.109 C 
BRANCH  20  22
ATOM     21  O   UNL     1      33.496 -16.045 -26.361  0.00  0.00    -0.250 OA
ATOM     22  C   UNL     1      33.316 -14.837 -26.310  0.00  0.00    +0.314 C 
BRANCH  22  23
ATOM     23  O   UNL     1      33.592 -13.991 -27.335  0.00  0.00    -0.480 OA
ATOM     24  H   UNL     1      34.439 -13.596 -27.400  0.00  0.00    +0.295 HD
ENDBRANCH  22  23
ENDBRANCH  20  22
ENDBRANCH   1  20
TORSDOF 13
ENDMDL
MODEL 7
REMARK VINA RESULT:      -6.0      8.830     10.249
REMARK  Name = 5289108
REMARK  13 active torsions:
REMARK  status: ('A' for Active; 'I' for Inactive)
REMARK    1  A    between atoms: C_1  and  C_2
REMARK    2  A    between atoms: C_1  and  C_14
REMARK    3  A    between atoms: C_1  and  C_20
REMARK    4  A    between atoms: C_2  and  C_3
REMARK    5  A    between atoms: C_2  and  C_9
REMARK    6  A    between atoms: C_3  and  C_4
REMARK    7  A    between atoms: C_4  and  C_6
REMARK    8  A    between atoms: C_6  and  O_7
REMARK    9  A    between atoms: C_9  and  N_10
REMARK   10  A    between atoms: C_14  and  C_15
REMARK   11  A    between atoms: C_15  and  N_16
REMARK   12  A    between atoms: C_20  and  C_22
REMARK   13  A    between atoms: C_22  and  O_23
REMARK                            x       y       z     vdW  Elec       q    Type
REMARK                         _______ _______ _______ _____ _____    ______ ____
ROOT
ATOM      1  C   UNL     1      34.424 -20.100 -20.460  0.00  0.00    +0.007 C 
ENDROOT
BRANCH   1   2
ATOM      2  C   UNL     1      34.112 -19.081 -21.615  0.00  0.00    -0.021 C 
BRANCH   2   3
ATOM      3  C   UNL     1      35.137 -19.084 -22.782  0.00  0.00    +0.010 C 
BRANCH   3   4
ATOM      4  C   UNL     1      34.534 -18.821 -24.164  0.00  0.00    +0.109 C 
BRANCH   4   6
ATOM      5  O   UNL     1      34.643 -17.031 -25.813  0.00  0.00    -0.250 OA
ATOM      6  C   UNL     1      34.929 -17.465 -24.705  0.00  0.00    +0.314 C 
BRANCH   6   7
ATOM      7  O   UNL     1      35.668 -16.767 -23.804  0.00  0.00    -0.480 OA
ATOM      8  H   UNL     1      35.361 -16.662 -22.926  0.00  0.00    +0.295 HD
ENDBRANCH   6   7
ENDBRANCH   4   6
ENDBRANCH   3   4
ENDBRANCH   2   3
BRANCH   2   9
ATOM      9  C   UNL     1      33.889 -17.651 -21.065  0.00  0.00    -0.086 C 
BRANCH   9  10
ATOM     10  N   UNL     1      35.140 -16.964 -20.746  0.00  0.00    +0.380 N 
ATOM     11  H   UNL     1      35.224 -16.862 -19.735  0.00  0.00    -0.089 HD
ATOM     12  H   UNL     1      35.142 -16.042 -21.182  0.00  0.00    -0.089 HD
ATOM     13  H   UNL     1      35.926 -17.509 -21.099  0.00  0.00    -0.089 HD
ENDBRANCH   9  10
ENDBRANCH   2   9
ENDBRANCH   1   2
BRANCH   1  14
ATOM     14  C   UNL     1      35.719 -20.939 -20.616  0.00  0.00    -0.023 C 
BRANCH  14  15
ATOM     15  C   UNL     1      36.908 -20.462 -19.786  0.00  0.00    -0.086 C 
BRANCH  15  16
ATOM     16  N   UNL     1      36.777 -20.929 -18.408  0.00  0.00    +0.380 N 
ATOM     17  H   UNL     1      35.841 -21.310 -18.267  0.00  0.00    -0.089 HD
ATOM     18  H   UNL     1      36.927 -20.148 -17.769  0.00  0.00    -0.089 HD
ATOM     19  H   UNL     1      37.470 -21.654 -18.228  0.00  0.00    -0.089 HD
ENDBRANCH  15  16
ENDBRANCH  14  15
ENDBRANCH   1  14
BRANCH   1  20
ATOM     20  C   UNL     1      33.241 -21.087 -20.269  0.00  0.00    +0.109 C 
BRANCH  20  22
ATOM     21  O   UNL     1      34.455 -22.731 -18.935  0.00  0.00    -0.250 OA
ATOM     22  C   UNL     1      33.453 -22.060 -19.133  0.00  0.00    +0.314 C 
BRANCH  22  23
ATOM     23  O   UNL     1      32.341 -22.122 -18.355  0.00  0.00    -0.480 OA
ATOM     24  H   UNL     1      32.423 -22.264 -17.432  0.00  0.00    +0.295 HD
ENDBRANCH  22  23
ENDBRANCH  20  22
ENDBRANCH   1  20
TORSDOF 13
ENDMDL
MODEL 8
REMARK VINA RESULT:      -6.0      8.784     10.341
REMARK  Name = 5289108
REMARK  13 active torsions:
REMARK  status: ('A' for Active; 'I' for Inactive)
REMARK    1  A    between atoms: C_1  and  C_2
REMARK    2  A    between atoms: C_1  and  C_14
REMARK    3  A    between atoms: C_1  and  C_20
REMARK    4  A    between atoms: C_2  and  C_3
REMARK    5  A    between atoms: C_2  and  C_9
REMARK    6  A    between atoms: C_3  and  C_4
REMARK    7  A    between atoms: C_4  and  C_6
REMARK    8  A    between atoms: C_6  and  O_7
REMARK    9  A    between atoms: C_9  and  N_10
REMARK   10  A    between atoms: C_14  and  C_15
REMARK   11  A    between atoms: C_15  and  N_16
REMARK   12  A    between atoms: C_20  and  C_22
REMARK   13  A    between atoms: C_22  and  O_23
REMARK                            x       y       z     vdW  Elec       q    Type
REMARK                         _______ _______ _______ _____ _____    ______ ____
ROOT
ATOM      1  C   UNL     1      35.236 -18.030 -21.175  0.00  0.00    +0.007 C 
ENDROOT
BRANCH   1   2
ATOM      2  C   UNL     1      34.763 -19.404 -20.579  0.00  0.00    -0.021 C 
BRANCH   2   3
ATOM      3  C   UNL     1      35.672 -20.615 -20.928  0.00  0.00    +0.010 C 
BRANCH   3   4
ATOM      4  C   UNL     1      36.662 -21.009 -19.829  0.00  0.00    +0.109 C 
BRANCH   4   6
ATOM      5  O   UNL     1      34.979 -22.472 -18.849  0.00  0.00    -0.250 OA
ATOM      6  C   UNL     1      35.997 -21.805 -18.727  0.00  0.00    +0.314 C 
BRANCH   6   7
ATOM      7  O   UNL     1      36.668 -21.682 -17.553  0.00  0.00    -0.480 OA
ATOM      8  H   UNL     1      36.684 -22.395 -16.945  0.00  0.00    +0.295 HD
ENDBRANCH   6   7
ENDBRANCH   4   6
ENDBRANCH   3   4
ENDBRANCH   2   3
BRANCH   2   9
ATOM      9  C   UNL     1      33.282 -19.694 -20.928  0.00  0.00    -0.086 C 
BRANCH   9  10
ATOM     10  N   UNL     1      32.690 -20.726 -20.078  0.00  0.00    +0.380 N 
ATOM     11  H   UNL     1      33.430 -21.288 -19.659  0.00  0.00    -0.089 HD
ATOM     12  H   UNL     1      32.085 -21.324 -20.641  0.00  0.00    -0.089 HD
ATOM     13  H   UNL     1      32.140 -20.284 -19.341  0.00  0.00    -0.089 HD
ENDBRANCH   9  10
ENDBRANCH   2   9
ENDBRANCH   1   2
BRANCH   1  14
ATOM     14  C   UNL     1      34.123 -16.993 -21.475  0.00  0.00    -0.023 C 
BRANCH  14  15
ATOM     15  C   UNL     1      34.488 -15.540 -21.174  0.00  0.00    -0.086 C 
BRANCH  15  16
ATOM     16  N   UNL     1      34.518 -14.764 -22.411  0.00  0.00    +0.380 N 
ATOM     17  H   UNL     1      33.806 -14.034 -22.370  0.00  0.00    -0.089 HD
ATOM     18  H   UNL     1      34.331 -15.379 -23.203  0.00  0.00    -0.089 HD
ATOM     19  H   UNL     1      35.437 -14.336 -22.521  0.00  0.00    -0.089 HD
ENDBRANCH  15  16
ENDBRANCH  14  15
ENDBRANCH   1  14
BRANCH   1  20
ATOM     20  C   UNL     1      36.042 -18.251 -22.483  0.00  0.00    +0.109 C 
BRANCH  20  22
ATOM     21  O   UNL     1      34.427 -19.012 -24.147  0.00  0.00    -0.250 OA
ATOM     22  C   UNL     1      35.195 -18.156 -23.731  0.00  0.00    +0.314 C 
BRANCH  22  23
ATOM     23  O   UNL     1      35.426 -16.980 -24.368  0.00  0.00    -0.480 OA
ATOM     24  H   UNL     1      36.223 -16.855 -24.845  0.00  0.00    +0.295 HD
ENDBRANCH  22  23
ENDBRANCH  20  22
ENDBRANCH   1  20
TORSDOF 13
ENDMDL
MODEL 9
REMARK VINA RESULT:      -5.9     12.660     14.375
REMARK  Name = 5289108
REMARK  13 active torsions:
REMARK  status: ('A' for Active; 'I' for Inactive)
REMARK    1  A    between atoms: C_1  and  C_2
REMARK    2  A    between atoms: C_1  and  C_14
REMARK    3  A    between atoms: C_1  and  C_20
REMARK    4  A    between atoms: C_2  and  C_3
REMARK    5  A    between atoms: C_2  and  C_9
REMARK    6  A    between atoms: C_3  and  C_4
REMARK    7  A    between atoms: C_4  and  C_6
REMARK    8  A    between atoms: C_6  and  O_7
REMARK    9  A    between atoms: C_9  and  N_10
REMARK   10  A    between atoms: C_14  and  C_15
REMARK   11  A    between atoms: C_15  and  N_16
REMARK   12  A    between atoms: C_20  and  C_22
REMARK   13  A    between atoms: C_22  and  O_23
REMARK                            x       y       z     vdW  Elec       q    Type
REMARK                         _______ _______ _______ _____ _____    ______ ____
ROOT
ATOM      1  C   UNL     1      34.233 -16.125 -22.530  0.00  0.00    +0.007 C 
ENDROOT
BRANCH   1   2
ATOM      2  C   UNL     1      33.787 -14.621 -22.449  0.00  0.00    -0.021 C 
BRANCH   2   3
ATOM      3  C   UNL     1      32.414 -14.384 -21.764  0.00  0.00    +0.010 C 
BRANCH   3   4
ATOM      4  C   UNL     1      32.442 -13.392 -20.598  0.00  0.00    +0.109 C 
BRANCH   4   6
ATOM      5  O   UNL     1      31.279 -11.319 -20.064  0.00  0.00    -0.250 OA
ATOM      6  C   UNL     1      31.625 -12.153 -20.890  0.00  0.00    +0.314 C 
BRANCH   6   7
ATOM      7  O   UNL     1      31.296 -12.074 -22.205  0.00  0.00    -0.480 OA
ATOM      8  H   UNL     1      30.412 -12.225 -22.478  0.00  0.00    +0.295 HD
ENDBRANCH   6   7
ENDBRANCH   4   6
ENDBRANCH   3   4
ENDBRANCH   2   3
BRANCH   2   9
ATOM      9  C   UNL     1      33.851 -13.935 -23.836  0.00  0.00    -0.086 C 
BRANCH   9  10
ATOM     10  N   UNL     1      34.030 -12.487 -23.745  0.00  0.00    +0.380 N 
ATOM     11  H   UNL     1      34.473 -12.254 -22.857  0.00  0.00    -0.089 HD
ATOM     12  H   UNL     1      33.121 -12.028 -23.803  0.00  0.00    -0.089 HD
ATOM     13  H   UNL     1      34.621 -12.169 -24.513  0.00  0.00    -0.089 HD
ENDBRANCH   9  10
ENDBRANCH   2   9
ENDBRANCH   1   2
BRANCH   1  14
ATOM     14  C   UNL     1      34.860 -16.726 -21.245  0.00  0.00    -0.023 C 
BRANCH  14  15
ATOM     15  C   UNL     1      34.766 -18.245 -21.123  0.00  0.00    -0.086 C 
BRANCH  15  16
ATOM     16  N   UNL     1      36.050 -18.794 -20.693  0.00  0.00    +0.380 N 
ATOM     17  H   UNL     1      36.419 -19.406 -21.422  0.00  0.00    -0.089 HD
ATOM     18  H   UNL     1      35.921 -19.328 -19.834  0.00  0.00    -0.089 HD
ATOM     19  H   UNL     1      36.706 -18.032 -20.526  0.00  0.00    -0.089 HD
ENDBRANCH  15  16
ENDBRANCH  14  15
ENDBRANCH   1  14
BRANCH   1  20
ATOM     20  C   UNL     1      35.244 -16.333 -23.690  0.00  0.00    +0.109 C 
BRANCH  20  22
ATOM     21  O   UNL     1      34.527 -18.485 -24.591  0.00  0.00    -0.250 OA
ATOM     22  C   UNL     1      34.751 -17.294 -24.747  0.00  0.00    +0.314 C 
BRANCH  22  23
ATOM     23  O   UNL     1      34.616 -16.653 -25.937  0.00  0.00    -0.480 OA
ATOM     24  H   UNL     1      34.518 -17.148 -26.726  0.00  0.00    +0.295 HD
ENDBRANCH  22  23
ENDBRANCH  20  22
ENDBRANCH   1  20
TORSDOF 13
ENDMDL
