MODEL 1
REMARK VINA RESULT:     -10.3      0.000      0.000
REMARK  Name = 47938
REMARK  7 active torsions:
REMARK  status: ('A' for Active; 'I' for Inactive)
REMARK    1  A    between atoms: C_1  and  O_7
REMARK    2  A    between atoms: C_2  and  O_15
REMARK    3  A    between atoms: O_7  and  C_8
REMARK    4  A    between atoms: C_8  and  C_11
REMARK    5  A    between atoms: C_11  and  O_12
REMARK    6  A    between atoms: O_12  and  C_13
REMARK    7  A    between atoms: O_15  and  C_21
REMARK                            x       y       z     vdW  Elec       q    Type
REMARK                         _______ _______ _______ _____ _____    ______ ____
ROOT
ATOM      1  C   UNL     1      35.027 -18.752 -20.995  0.00  0.00    +0.139 C 
ATOM      2  C   UNL     1      34.098 -21.232 -20.152  0.00  0.00    +0.151 C 
ATOM      3  C   UNL     1      35.934 -19.727 -20.601  0.00  0.00    +0.040 C 
ATOM      4  C   UNL     1      33.660 -19.001 -20.972  0.00  0.00    +0.040 C 
ATOM      5  C   UNL     1      35.468 -20.972 -20.179  0.00  0.00    +0.041 C 
ATOM      6  C   UNL     1      33.194 -20.246 -20.549  0.00  0.00    +0.041 C 
ENDROOT
BRANCH   1   7
ATOM      7  O   UNL     1      35.486 -17.528 -21.411  0.00  0.00    -0.468 OA
BRANCH   7   8
ATOM      8  C   UNL     1      34.510 -16.536 -21.689  0.00  0.00    +0.263 C 
ATOM      9  C   UNL     1      34.578 -15.485 -20.596  0.00  0.00    +0.060 C 
BRANCH   8  11
ATOM     10  O   UNL     1      34.586 -14.774 -23.359  0.00  0.00    -0.246 OA
ATOM     11  C   UNL     1      34.801 -15.939 -23.052  0.00  0.00    +0.358 C 
BRANCH  11  12
ATOM     12  O   UNL     1      35.359 -16.888 -23.859  0.00  0.00    -0.446 OA
BRANCH  12  13
ATOM     13  C   UNL     1      34.483 -17.458 -24.838  0.00  0.00    +0.209 C 
ATOM     14  C   UNL     1      34.470 -18.963 -24.673  0.00  0.00    +0.051 C 
ENDBRANCH  12  13
ENDBRANCH  11  12
ENDBRANCH   8  11
ENDBRANCH   7   8
ENDBRANCH   1   7
BRANCH   2  15
ATOM     15  O   UNL     1      33.642 -22.445 -19.738  0.00  0.00    -0.400 OA
BRANCH  15  21
ATOM     16 CL   UNL     1      30.686 -23.760 -13.147  0.00  0.00    -0.082 Cl
ATOM     17  O   UNL     1      32.224 -22.733 -17.970  0.00  0.00    -0.397 OA
ATOM     18  N   UNL     1      34.437 -23.055 -17.597  0.00  0.00    -0.336 NA
ATOM     19  C   UNL     1      32.385 -23.073 -16.658  0.00  0.00    +0.178 C 
ATOM     20  C   UNL     1      33.739 -23.269 -16.433  0.00  0.00    +0.154 C 
ATOM     21  C   UNL     1      33.492 -22.751 -18.431  0.00  0.00    +0.460 C 
ATOM     22  C   UNL     1      31.395 -23.208 -15.692  0.00  0.00    +0.051 C 
ATOM     23  C   UNL     1      34.169 -23.630 -15.147  0.00  0.00    +0.089 C 
ATOM     24  C   UNL     1      31.839 -23.568 -14.416  0.00  0.00    +0.057 C 
ATOM     25  C   UNL     1      33.197 -23.776 -14.145  0.00  0.00    -0.007 C 
ENDBRANCH  15  21
ENDBRANCH   2  15
TORSDOF 7
ENDMDL
MODEL 2
REMARK VINA RESULT:     -10.1      0.881      1.567
REMARK  Name = 47938
REMARK  7 active torsions:
REMARK  status: ('A' for Active; 'I' for Inactive)
REMARK    1  A    between atoms: C_1  and  O_7
REMARK    2  A    between atoms: C_2  and  O_15
REMARK    3  A    between atoms: O_7  and  C_8
REMARK    4  A    between atoms: C_8  and  C_11
REMARK    5  A    between atoms: C_11  and  O_12
REMARK    6  A    between atoms: O_12  and  C_13
REMARK    7  A    between atoms: O_15  and  C_21
REMARK                            x       y       z     vdW  Elec       q    Type
REMARK                         _______ _______ _______ _____ _____    ______ ____
ROOT
ATOM      1  C   UNL     1      35.009 -18.709 -20.981  0.00  0.00    +0.139 C 
ATOM      2  C   UNL     1      34.099 -21.203 -20.157  0.00  0.00    +0.151 C 
ATOM      3  C   UNL     1      35.924 -19.684 -20.601  0.00  0.00    +0.040 C 
ATOM      4  C   UNL     1      33.643 -18.967 -20.952  0.00  0.00    +0.040 C 
ATOM      5  C   UNL     1      35.467 -20.935 -20.189  0.00  0.00    +0.041 C 
ATOM      6  C   UNL     1      33.187 -20.219 -20.539  0.00  0.00    +0.041 C 
ENDROOT
BRANCH   1   7
ATOM      7  O   UNL     1      35.458 -17.479 -21.387  0.00  0.00    -0.468 OA
BRANCH   7   8
ATOM      8  C   UNL     1      34.475 -16.489 -21.646  0.00  0.00    +0.263 C 
ATOM      9  C   UNL     1      34.527 -15.466 -20.525  0.00  0.00    +0.060 C 
BRANCH   8  11
ATOM     10  O   UNL     1      34.971 -16.477 -24.023  0.00  0.00    -0.246 OA
ATOM     11  C   UNL     1      34.769 -15.854 -22.990  0.00  0.00    +0.358 C 
BRANCH  11  12
ATOM     12  O   UNL     1      34.744 -14.493 -22.870  0.00  0.00    -0.446 OA
BRANCH  12  13
ATOM     13  C   UNL     1      33.907 -13.807 -23.806  0.00  0.00    +0.209 C 
ATOM     14  C   UNL     1      32.590 -13.473 -23.139  0.00  0.00    +0.051 C 
ENDBRANCH  12  13
ENDBRANCH  11  12
ENDBRANCH   8  11
ENDBRANCH   7   8
ENDBRANCH   1   7
BRANCH   2  15
ATOM     15  O   UNL     1      33.652 -22.423 -19.752  0.00  0.00    -0.400 OA
BRANCH  15  21
ATOM     16 CL   UNL     1      30.715 -23.737 -13.153  0.00  0.00    -0.082 Cl
ATOM     17  O   UNL     1      32.241 -22.695 -17.975  0.00  0.00    -0.397 OA
ATOM     18  N   UNL     1      34.448 -23.078 -17.624  0.00  0.00    -0.336 NA
ATOM     19  C   UNL     1      32.404 -23.054 -16.669  0.00  0.00    +0.178 C 
ATOM     20  C   UNL     1      33.754 -23.287 -16.457  0.00  0.00    +0.154 C 
ATOM     21  C   UNL     1      33.505 -22.740 -18.447  0.00  0.00    +0.460 C 
ATOM     22  C   UNL     1      31.418 -23.174 -15.696  0.00  0.00    +0.051 C 
ATOM     23  C   UNL     1      34.184 -23.674 -15.179  0.00  0.00    +0.089 C 
ATOM     24  C   UNL     1      31.863 -23.560 -14.428  0.00  0.00    +0.057 C 
ATOM     25  C   UNL     1      33.217 -23.806 -14.171  0.00  0.00    -0.007 C 
ENDBRANCH  15  21
ENDBRANCH   2  15
TORSDOF 7
ENDMDL
MODEL 3
REMARK VINA RESULT:      -9.8      3.718      9.140
REMARK  Name = 47938
REMARK  7 active torsions:
REMARK  status: ('A' for Active; 'I' for Inactive)
REMARK    1  A    between atoms: C_1  and  O_7
REMARK    2  A    between atoms: C_2  and  O_15
REMARK    3  A    between atoms: O_7  and  C_8
REMARK    4  A    between atoms: C_8  and  C_11
REMARK    5  A    between atoms: C_11  and  O_12
REMARK    6  A    between atoms: O_12  and  C_13
REMARK    7  A    between atoms: O_15  and  C_21
REMARK                            x       y       z     vdW  Elec       q    Type
REMARK                         _______ _______ _______ _____ _____    ______ ____
ROOT
ATOM      1  C   UNL     1      34.406 -22.182 -18.930  0.00  0.00    +0.139 C 
ATOM      2  C   UNL     1      35.667 -20.174 -20.380  0.00  0.00    +0.151 C 
ATOM      3  C   UNL     1      33.656 -21.364 -19.766  0.00  0.00    +0.040 C 
ATOM      4  C   UNL     1      35.780 -22.007 -18.810  0.00  0.00    +0.040 C 
ATOM      5  C   UNL     1      34.289 -20.357 -20.494  0.00  0.00    +0.041 C 
ATOM      6  C   UNL     1      36.412 -20.998 -19.538  0.00  0.00    +0.041 C 
ENDROOT
BRANCH   1   7
ATOM      7  O   UNL     1      33.785 -23.173 -18.215  0.00  0.00    -0.468 OA
BRANCH   7   8
ATOM      8  C   UNL     1      33.260 -22.817 -16.945  0.00  0.00    +0.263 C 
ATOM      9  C   UNL     1      31.781 -23.158 -16.932  0.00  0.00    +0.060 C 
BRANCH   8  11
ATOM     10  O   UNL     1      34.975 -24.311 -16.092  0.00  0.00    -0.246 OA
ATOM     11  C   UNL     1      34.015 -23.583 -15.877  0.00  0.00    +0.358 C 
BRANCH  11  12
ATOM     12  O   UNL     1      33.477 -23.312 -14.651  0.00  0.00    -0.446 OA
BRANCH  12  13
ATOM     13  C   UNL     1      33.406 -24.422 -13.750  0.00  0.00    +0.209 C 
ATOM     14  C   UNL     1      32.001 -24.985 -13.768  0.00  0.00    +0.051 C 
ENDBRANCH  12  13
ENDBRANCH  11  12
ENDBRANCH   8  11
ENDBRANCH   7   8
ENDBRANCH   1   7
BRANCH   2  15
ATOM     15  O   UNL     1      36.284 -19.189 -21.088  0.00  0.00    -0.400 OA
BRANCH  15  21
ATOM     16 CL   UNL     1      33.080 -13.734 -24.814  0.00  0.00    -0.082 Cl
ATOM     17  O   UNL     1      35.396 -17.840 -22.705  0.00  0.00    -0.397 OA
ATOM     18  N   UNL     1      35.322 -17.094 -20.565  0.00  0.00    -0.336 NA
ATOM     19  C   UNL     1      34.792 -16.616 -22.706  0.00  0.00    +0.178 C 
ATOM     20  C   UNL     1      34.748 -16.163 -21.397  0.00  0.00    +0.154 C 
ATOM     21  C   UNL     1      35.668 -18.027 -21.396  0.00  0.00    +0.460 C 
ATOM     22  C   UNL     1      34.297 -15.919 -23.802  0.00  0.00    +0.051 C 
ATOM     23  C   UNL     1      34.169 -14.914 -21.130  0.00  0.00    +0.089 C 
ATOM     24  C   UNL     1      33.723 -14.676 -23.520  0.00  0.00    +0.057 C 
ATOM     25  C   UNL     1      33.658 -14.180 -22.212  0.00  0.00    -0.007 C 
ENDBRANCH  15  21
ENDBRANCH   2  15
TORSDOF 7
ENDMDL
MODEL 4
REMARK VINA RESULT:      -9.8      3.857      8.862
REMARK  Name = 47938
REMARK  7 active torsions:
REMARK  status: ('A' for Active; 'I' for Inactive)
REMARK    1  A    between atoms: C_1  and  O_7
REMARK    2  A    between atoms: C_2  and  O_15
REMARK    3  A    between atoms: O_7  and  C_8
REMARK    4  A    between atoms: C_8  and  C_11
REMARK    5  A    between atoms: C_11  and  O_12
REMARK    6  A    between atoms: O_12  and  C_13
REMARK    7  A    between atoms: O_15  and  C_21
REMARK                            x       y       z     vdW  Elec       q    Type
REMARK                         _______ _______ _______ _____ _____    ______ ____
ROOT
ATOM      1  C   UNL     1      34.467 -22.123 -19.015  0.00  0.00    +0.139 C 
ATOM      2  C   UNL     1      35.677 -20.106 -20.495  0.00  0.00    +0.151 C 
ATOM      3  C   UNL     1      35.846 -21.964 -18.960  0.00  0.00    +0.040 C 
ATOM      4  C   UNL     1      33.685 -21.286 -19.802  0.00  0.00    +0.040 C 
ATOM      5  C   UNL     1      36.452 -20.951 -19.702  0.00  0.00    +0.041 C 
ATOM      6  C   UNL     1      34.293 -20.273 -20.545  0.00  0.00    +0.041 C 
ENDROOT
BRANCH   1   7
ATOM      7  O   UNL     1      33.869 -23.118 -18.285  0.00  0.00    -0.468 OA
BRANCH   7   8
ATOM      8  C   UNL     1      33.600 -22.840 -16.919  0.00  0.00    +0.263 C 
ATOM      9  C   UNL     1      32.205 -23.348 -16.600  0.00  0.00    +0.060 C 
BRANCH   8  11
ATOM     10  O   UNL     1      34.853 -24.735 -16.061  0.00  0.00    -0.246 OA
ATOM     11  C   UNL     1      34.648 -23.529 -16.068  0.00  0.00    +0.358 C 
BRANCH  11  12
ATOM     12  O   UNL     1      35.336 -22.598 -15.344  0.00  0.00    -0.446 OA
BRANCH  12  13
ATOM     13  C   UNL     1      36.651 -22.984 -14.933  0.00  0.00    +0.209 C 
ATOM     14  C   UNL     1      37.641 -22.589 -16.009  0.00  0.00    +0.051 C 
ENDBRANCH  12  13
ENDBRANCH  11  12
ENDBRANCH   8  11
ENDBRANCH   7   8
ENDBRANCH   1   7
BRANCH   2  15
ATOM     15  O   UNL     1      36.269 -19.119 -21.221  0.00  0.00    -0.400 OA
BRANCH  15  21
ATOM     16 CL   UNL     1      33.316 -13.301 -24.589  0.00  0.00    -0.082 Cl
ATOM     17  O   UNL     1      35.501 -17.605 -22.751  0.00  0.00    -0.397 OA
ATOM     18  N   UNL     1      35.240 -17.097 -20.556  0.00  0.00    -0.336 NA
ATOM     19  C   UNL     1      34.883 -16.390 -22.670  0.00  0.00    +0.178 C 
ATOM     20  C   UNL     1      34.726 -16.082 -21.328  0.00  0.00    +0.154 C 
ATOM     21  C   UNL     1      35.666 -17.932 -21.452  0.00  0.00    +0.460 C 
ATOM     22  C   UNL     1      34.473 -15.580 -23.721  0.00  0.00    +0.051 C 
ATOM     23  C   UNL     1      34.111 -14.872 -20.976  0.00  0.00    +0.089 C 
ATOM     24  C   UNL     1      33.861 -14.377 -23.355  0.00  0.00    +0.057 C 
ATOM     25  C   UNL     1      33.682 -14.026 -22.011  0.00  0.00    -0.007 C 
ENDBRANCH  15  21
ENDBRANCH   2  15
TORSDOF 7
ENDMDL
MODEL 5
REMARK VINA RESULT:      -9.7      4.398      9.345
REMARK  Name = 47938
REMARK  7 active torsions:
REMARK  status: ('A' for Active; 'I' for Inactive)
REMARK    1  A    between atoms: C_1  and  O_7
REMARK    2  A    between atoms: C_2  and  O_15
REMARK    3  A    between atoms: O_7  and  C_8
REMARK    4  A    between atoms: C_8  and  C_11
REMARK    5  A    between atoms: C_11  and  O_12
REMARK    6  A    between atoms: O_12  and  C_13
REMARK    7  A    between atoms: O_15  and  C_21
REMARK                            x       y       z     vdW  Elec       q    Type
REMARK                         _______ _______ _______ _____ _____    ______ ____
ROOT
ATOM      1  C   UNL     1      35.255 -23.516 -14.030  0.00  0.00    +0.139 C 
ATOM      2  C   UNL     1      34.155 -23.538 -16.582  0.00  0.00    +0.151 C 
ATOM      3  C   UNL     1      33.926 -23.883 -14.202  0.00  0.00    +0.040 C 
ATOM      4  C   UNL     1      36.041 -23.159 -15.120  0.00  0.00    +0.040 C 
ATOM      5  C   UNL     1      33.374 -23.895 -15.483  0.00  0.00    +0.041 C 
ATOM      6  C   UNL     1      35.488 -23.170 -16.401  0.00  0.00    +0.041 C 
ENDROOT
BRANCH   1   7
ATOM      7  O   UNL     1      35.798 -23.505 -12.771  0.00  0.00    -0.468 OA
BRANCH   7   8
ATOM      8  C   UNL     1      37.191 -23.753 -12.670  0.00  0.00    +0.263 C 
ATOM      9  C   UNL     1      37.762 -22.821 -11.615  0.00  0.00    +0.060 C 
BRANCH   8  11
ATOM     10  O   UNL     1      36.594 -25.885 -11.671  0.00  0.00    -0.246 OA
ATOM     11  C   UNL     1      37.399 -25.207 -12.295  0.00  0.00    +0.358 C 
BRANCH  11  12
ATOM     12  O   UNL     1      38.599 -25.640 -12.783  0.00  0.00    -0.446 OA
BRANCH  12  13
ATOM     13  C   UNL     1      38.739 -25.593 -14.206  0.00  0.00    +0.209 C 
ATOM     14  C   UNL     1      40.209 -25.670 -14.561  0.00  0.00    +0.051 C 
ENDBRANCH  12  13
ENDBRANCH  11  12
ENDBRANCH   8  11
ENDBRANCH   7   8
ENDBRANCH   1   7
BRANCH   2  15
ATOM     15  O   UNL     1      33.616 -23.547 -17.832  0.00  0.00    -0.400 OA
BRANCH  15  21
ATOM     16 CL   UNL     1      36.293 -18.341 -22.265  0.00  0.00    -0.082 Cl
ATOM     17  O   UNL     1      34.958 -22.188 -19.087  0.00  0.00    -0.397 OA
ATOM     18  N   UNL     1      32.733 -21.750 -19.089  0.00  0.00    -0.336 NA
ATOM     19  C   UNL     1      34.743 -21.106 -19.891  0.00  0.00    +0.178 C 
ATOM     20  C   UNL     1      33.382 -20.841 -19.891  0.00  0.00    +0.154 C 
ATOM     21  C   UNL     1      33.711 -22.488 -18.666  0.00  0.00    +0.460 C 
ATOM     22  C   UNL     1      35.691 -20.377 -20.598  0.00  0.00    +0.051 C 
ATOM     23  C   UNL     1      32.900 -19.765 -20.650  0.00  0.00    +0.089 C 
ATOM     24  C   UNL     1      35.194 -19.308 -21.351  0.00  0.00    +0.057 C 
ATOM     25  C   UNL     1      33.827 -19.005 -21.379  0.00  0.00    -0.007 C 
ENDBRANCH  15  21
ENDBRANCH   2  15
TORSDOF 7
ENDMDL
MODEL 6
REMARK VINA RESULT:      -9.7      3.606      8.567
REMARK  Name = 47938
REMARK  7 active torsions:
REMARK  status: ('A' for Active; 'I' for Inactive)
REMARK    1  A    between atoms: C_1  and  O_7
REMARK    2  A    between atoms: C_2  and  O_15
REMARK    3  A    between atoms: O_7  and  C_8
REMARK    4  A    between atoms: C_8  and  C_11
REMARK    5  A    between atoms: C_11  and  O_12
REMARK    6  A    between atoms: O_12  and  C_13
REMARK    7  A    between atoms: O_15  and  C_21
REMARK                            x       y       z     vdW  Elec       q    Type
REMARK                         _______ _______ _______ _____ _____    ______ ____
ROOT
ATOM      1  C   UNL     1      34.530 -22.020 -19.154  0.00  0.00    +0.139 C 
ATOM      2  C   UNL     1      35.556 -19.909 -20.641  0.00  0.00    +0.151 C 
ATOM      3  C   UNL     1      35.899 -21.782 -19.154  0.00  0.00    +0.040 C 
ATOM      4  C   UNL     1      33.668 -21.216 -19.889  0.00  0.00    +0.040 C 
ATOM      5  C   UNL     1      36.413 -20.722 -19.900  0.00  0.00    +0.041 C 
ATOM      6  C   UNL     1      34.183 -20.156 -20.636  0.00  0.00    +0.041 C 
ENDROOT
BRANCH   1   7
ATOM      7  O   UNL     1      34.024 -23.062 -18.420  0.00  0.00    -0.468 OA
BRANCH   7   8
ATOM      8  C   UNL     1      33.659 -22.785 -17.077  0.00  0.00    +0.263 C 
ATOM      9  C   UNL     1      32.253 -23.310 -16.850  0.00  0.00    +0.060 C 
BRANCH   8  11
ATOM     10  O   UNL     1      34.768 -24.669 -16.019  0.00  0.00    -0.246 OA
ATOM     11  C   UNL     1      34.657 -23.458 -16.155  0.00  0.00    +0.358 C 
BRANCH  11  12
ATOM     12  O   UNL     1      35.418 -22.510 -15.532  0.00  0.00    -0.446 OA
BRANCH  12  13
ATOM     13  C   UNL     1      36.791 -22.859 -15.328  0.00  0.00    +0.209 C 
ATOM     14  C   UNL     1      37.663 -21.935 -16.151  0.00  0.00    +0.051 C 
ENDBRANCH  12  13
ENDBRANCH  11  12
ENDBRANCH   8  11
ENDBRANCH   7   8
ENDBRANCH   1   7
BRANCH   2  15
ATOM     15  O   UNL     1      36.058 -18.876 -21.371  0.00  0.00    -0.400 OA
BRANCH  15  21
ATOM     16 CL   UNL     1      32.134 -12.715 -20.621  0.00  0.00    -0.082 Cl
ATOM     17  O   UNL     1      34.925 -17.061 -20.568  0.00  0.00    -0.397 OA
ATOM     18  N   UNL     1      35.009 -17.328 -22.818  0.00  0.00    -0.336 NA
ATOM     19  C   UNL     1      34.240 -16.028 -21.141  0.00  0.00    +0.178 C 
ATOM     20  C   UNL     1      34.294 -16.195 -22.516  0.00  0.00    +0.154 C 
ATOM     21  C   UNL     1      35.336 -17.766 -21.643  0.00  0.00    +0.460 C 
ATOM     22  C   UNL     1      33.594 -14.982 -20.494  0.00  0.00    +0.051 C 
ATOM     23  C   UNL     1      33.658 -15.253 -23.339  0.00  0.00    +0.089 C 
ATOM     24  C   UNL     1      32.965 -14.052 -21.328  0.00  0.00    +0.057 C 
ATOM     25  C   UNL     1      32.994 -14.182 -22.722  0.00  0.00    -0.007 C 
ENDBRANCH  15  21
ENDBRANCH   2  15
TORSDOF 7
ENDMDL
MODEL 7
REMARK VINA RESULT:      -9.5      6.263     10.605
REMARK  Name = 47938
REMARK  7 active torsions:
REMARK  status: ('A' for Active; 'I' for Inactive)
REMARK    1  A    between atoms: C_1  and  O_7
REMARK    2  A    between atoms: C_2  and  O_15
REMARK    3  A    between atoms: O_7  and  C_8
REMARK    4  A    between atoms: C_8  and  C_11
REMARK    5  A    between atoms: C_11  and  O_12
REMARK    6  A    between atoms: O_12  and  C_13
REMARK    7  A    between atoms: O_15  and  C_21
REMARK                            x       y       z     vdW  Elec       q    Type
REMARK                         _______ _______ _______ _____ _____    ______ ____
ROOT
ATOM      1  C   UNL     1      34.621 -16.389 -21.367  0.00  0.00    +0.139 C 
ATOM      2  C   UNL     1      33.167 -14.461 -22.742  0.00  0.00    +0.151 C 
ATOM      3  C   UNL     1      33.485 -15.840 -20.784  0.00  0.00    +0.040 C 
ATOM      4  C   UNL     1      35.039 -15.984 -22.629  0.00  0.00    +0.040 C 
ATOM      5  C   UNL     1      32.755 -14.873 -21.475  0.00  0.00    +0.041 C 
ATOM      6  C   UNL     1      34.309 -15.016 -23.319  0.00  0.00    +0.041 C 
ENDROOT
BRANCH   1   7
ATOM      7  O   UNL     1      35.338 -17.341 -20.688  0.00  0.00    -0.468 OA
BRANCH   7   8
ATOM      8  C   UNL     1      35.678 -18.519 -21.402  0.00  0.00    +0.263 C 
ATOM      9  C   UNL     1      36.835 -19.190 -20.683  0.00  0.00    +0.060 C 
BRANCH   8  11
ATOM     10  O   UNL     1      33.983 -19.998 -20.487  0.00  0.00    -0.246 OA
ATOM     11  C   UNL     1      34.461 -19.422 -21.454  0.00  0.00    +0.358 C 
BRANCH  11  12
ATOM     12  O   UNL     1      33.976 -19.464 -22.730  0.00  0.00    -0.446 OA
BRANCH  12  13
ATOM     13  C   UNL     1      34.956 -19.347 -23.767  0.00  0.00    +0.209 C 
ATOM     14  C   UNL     1      34.325 -18.679 -24.970  0.00  0.00    +0.051 C 
ENDBRANCH  12  13
ENDBRANCH  11  12
ENDBRANCH   8  11
ENDBRANCH   7   8
ENDBRANCH   1   7
BRANCH   2  15
ATOM     15  O   UNL     1      32.456 -13.515 -23.415  0.00  0.00    -0.400 OA
BRANCH  15  21
ATOM     16 CL   UNL     1      32.502  -6.319 -21.960  0.00  0.00    -0.082 Cl
ATOM     17  O   UNL     1      31.999 -11.414 -22.644  0.00  0.00    -0.397 OA
ATOM     18  N   UNL     1      33.791 -11.657 -24.012  0.00  0.00    -0.336 NA
ATOM     19  C   UNL     1      32.572 -10.186 -22.811  0.00  0.00    +0.178 C 
ATOM     20  C   UNL     1      33.666 -10.338 -23.647  0.00  0.00    +0.154 C 
ATOM     21  C   UNL     1      32.794 -12.207 -23.392  0.00  0.00    +0.460 C 
ATOM     22  C   UNL     1      32.159  -8.979 -22.259  0.00  0.00    +0.051 C 
ATOM     23  C   UNL     1      34.432  -9.210 -23.977  0.00  0.00    +0.089 C 
ATOM     24  C   UNL     1      32.933  -7.864 -22.596  0.00  0.00    +0.057 C 
ATOM     25  C   UNL     1      34.046  -7.973 -23.438  0.00  0.00    -0.007 C 
ENDBRANCH  15  21
ENDBRANCH   2  15
TORSDOF 7
ENDMDL
MODEL 8
REMARK VINA RESULT:      -9.5      6.864     11.256
REMARK  Name = 47938
REMARK  7 active torsions:
REMARK  status: ('A' for Active; 'I' for Inactive)
REMARK    1  A    between atoms: C_1  and  O_7
REMARK    2  A    between atoms: C_2  and  O_15
REMARK    3  A    between atoms: O_7  and  C_8
REMARK    4  A    between atoms: C_8  and  C_11
REMARK    5  A    between atoms: C_11  and  O_12
REMARK    6  A    between atoms: O_12  and  C_13
REMARK    7  A    between atoms: O_15  and  C_21
REMARK                            x       y       z     vdW  Elec       q    Type
REMARK                         _______ _______ _______ _____ _____    ______ ____
ROOT
ATOM      1  C   UNL     1      34.279 -15.033 -22.338  0.00  0.00    +0.139 C 
ATOM      2  C   UNL     1      32.297 -13.187 -21.716  0.00  0.00    +0.151 C 
ATOM      3  C   UNL     1      33.740 -15.009 -21.058  0.00  0.00    +0.040 C 
ATOM      4  C   UNL     1      33.839 -14.144 -23.312  0.00  0.00    +0.040 C 
ATOM      5  C   UNL     1      32.745 -14.083 -20.746  0.00  0.00    +0.041 C 
ATOM      6  C   UNL     1      32.844 -13.217 -22.999  0.00  0.00    +0.041 C 
ENDROOT
BRANCH   1   7
ATOM      7  O   UNL     1      35.257 -15.944 -22.645  0.00  0.00    -0.468 OA
BRANCH   7   8
ATOM      8  C   UNL     1      34.857 -17.300 -22.763  0.00  0.00    +0.263 C 
ATOM      9  C   UNL     1      34.967 -17.700 -24.224  0.00  0.00    +0.060 C 
BRANCH   8  11
ATOM     10  O   UNL     1      36.922 -18.423 -22.150  0.00  0.00    -0.246 OA
ATOM     11  C   UNL     1      35.758 -18.149 -21.888  0.00  0.00    +0.358 C 
BRANCH  11  12
ATOM     12  O   UNL     1      35.081 -18.529 -20.765  0.00  0.00    -0.446 OA
BRANCH  12  13
ATOM     13  C   UNL     1      34.585 -19.871 -20.767  0.00  0.00    +0.209 C 
ATOM     14  C   UNL     1      33.075 -19.840 -20.668  0.00  0.00    +0.051 C 
ENDBRANCH  12  13
ENDBRANCH  11  12
ENDBRANCH   8  11
ENDBRANCH   7   8
ENDBRANCH   1   7
BRANCH   2  15
ATOM     15  O   UNL     1      31.328 -12.281 -21.412  0.00  0.00    -0.400 OA
BRANCH  15  21
ATOM     16 CL   UNL     1      31.788  -5.338 -23.755  0.00  0.00    -0.082 Cl
ATOM     17  O   UNL     1      31.270 -10.354 -22.639  0.00  0.00    -0.397 OA
ATOM     18  N   UNL     1      31.984 -10.205 -20.492  0.00  0.00    -0.336 NA
ATOM     19  C   UNL     1      31.579  -9.049 -22.388  0.00  0.00    +0.178 C 
ATOM     20  C   UNL     1      32.015  -8.961 -21.075  0.00  0.00    +0.154 C 
ATOM     21  C   UNL     1      31.545 -10.948 -21.459  0.00  0.00    +0.460 C 
ATOM     22  C   UNL     1      31.485  -7.974 -23.264  0.00  0.00    +0.051 C 
ATOM     23  C   UNL     1      32.396  -7.709 -20.568  0.00  0.00    +0.089 C 
ATOM     24  C   UNL     1      31.868  -6.734 -22.744  0.00  0.00    +0.057 C 
ATOM     25  C   UNL     1      32.315  -6.600 -21.424  0.00  0.00    -0.007 C 
ENDBRANCH  15  21
ENDBRANCH   2  15
TORSDOF 7
ENDMDL
MODEL 9
REMARK VINA RESULT:      -9.5      5.829     10.591
REMARK  Name = 47938
REMARK  7 active torsions:
REMARK  status: ('A' for Active; 'I' for Inactive)
REMARK    1  A    between atoms: C_1  and  O_7
REMARK    2  A    between atoms: C_2  and  O_15
REMARK    3  A    between atoms: O_7  and  C_8
REMARK    4  A    between atoms: C_8  and  C_11
REMARK    5  A    between atoms: C_11  and  O_12
REMARK    6  A    between atoms: O_12  and  C_13
REMARK    7  A    between atoms: O_15  and  C_21
REMARK                            x       y       z     vdW  Elec       q    Type
REMARK                         _______ _______ _______ _____ _____    ______ ____
ROOT
ATOM      1  C   UNL     1      35.014 -17.011 -21.472  0.00  0.00    +0.139 C 
ATOM      2  C   UNL     1      33.821 -15.188 -23.198  0.00  0.00    +0.151 C 
ATOM      3  C   UNL     1      35.265 -17.091 -22.836  0.00  0.00    +0.040 C 
ATOM      4  C   UNL     1      34.173 -16.029 -20.960  0.00  0.00    +0.040 C 
ATOM      5  C   UNL     1      34.666 -16.176 -23.702  0.00  0.00    +0.041 C 
ATOM      6  C   UNL     1      33.575 -15.115 -21.827  0.00  0.00    +0.041 C 
ENDROOT
BRANCH   1   7
ATOM      7  O   UNL     1      35.603 -17.910 -20.620  0.00  0.00    -0.468 OA
BRANCH   7   8
ATOM      8  C   UNL     1      35.702 -19.252 -21.071  0.00  0.00    +0.263 C 
ATOM      9  C   UNL     1      36.887 -19.898 -20.376  0.00  0.00    +0.060 C 
BRANCH   8  11
ATOM     10  O   UNL     1      33.341 -19.774 -21.307  0.00  0.00    -0.246 OA
ATOM     11  C   UNL     1      34.408 -19.970 -20.740  0.00  0.00    +0.358 C 
BRANCH  11  12
ATOM     12  O   UNL     1      34.628 -20.877 -19.744  0.00  0.00    -0.446 OA
BRANCH  12  13
ATOM     13  C   UNL     1      33.489 -21.650 -19.350  0.00  0.00    +0.209 C 
ATOM     14  C   UNL     1      33.921 -22.682 -18.331  0.00  0.00    +0.051 C 
ENDBRANCH  12  13
ENDBRANCH  11  12
ENDBRANCH   8  11
ENDBRANCH   7   8
ENDBRANCH   1   7
BRANCH   2  15
ATOM     15  O   UNL     1      33.235 -14.297 -24.042  0.00  0.00    -0.400 OA
BRANCH  15  21
ATOM     16 CL   UNL     1      34.771  -7.117 -23.978  0.00  0.00    -0.082 Cl
ATOM     17  O   UNL     1      34.142 -12.227 -24.385  0.00  0.00    -0.397 OA
ATOM     18  N   UNL     1      32.344 -12.365 -23.011  0.00  0.00    -0.336 NA
ATOM     19  C   UNL     1      33.854 -10.969 -23.940  0.00  0.00    +0.178 C 
ATOM     20  C   UNL     1      32.755 -11.057 -23.100  0.00  0.00    +0.154 C 
ATOM     21  C   UNL     1      33.194 -12.972 -23.778  0.00  0.00    +0.460 C 
ATOM     22  C   UNL     1      34.520  -9.790 -24.251  0.00  0.00    +0.051 C 
ATOM     23  C   UNL     1      32.258  -9.887 -22.508  0.00  0.00    +0.089 C 
ATOM     24  C   UNL     1      34.012  -8.632 -23.654  0.00  0.00    +0.057 C 
ATOM     25  C   UNL     1      32.904  -8.676 -22.799  0.00  0.00    -0.007 C 
ENDBRANCH  15  21
ENDBRANCH   2  15
TORSDOF 7
ENDMDL
