MODEL 1
REMARK VINA RESULT:     -10.9      0.000      0.000
REMARK  Name = 71727581
REMARK  6 active torsions:
REMARK  status: ('A' for Active; 'I' for Inactive)
REMARK    1  A    between atoms: N_2  and  C_22
REMARK    2  A    between atoms: C_5  and  C_11
REMARK    3  A    between atoms: N_9  and  C_18
REMARK    4  A    between atoms: C_22  and  C_25
REMARK    5  A    between atoms: C_22  and  C_31
REMARK    6  A    between atoms: C_31  and  O_32
REMARK                            x       y       z     vdW  Elec       q    Type
REMARK                         _______ _______ _______ _____ _____    ______ ____
ROOT
ATOM      1  O   UNL     1      34.893  -8.803 -23.750  0.00  0.00    -0.270 OA
ATOM      2  N   UNL     1      32.996  -9.571 -22.621  0.00  0.00    -0.249 N 
ATOM      3  C   UNL     1      34.053  -9.674 -23.532  0.00  0.00    +0.253 C 
ATOM      4  C   UNL     1      32.092 -10.600 -22.436  0.00  0.00    +0.068 C 
ATOM      5  C   UNL     1      33.244 -11.946 -24.084  0.00  0.00    +0.036 C 
ATOM      6  C   UNL     1      34.142 -10.963 -24.285  0.00  0.00    +0.061 C 
ATOM      7  C   UNL     1      32.182 -11.747 -23.117  0.00  0.00    +0.019 C 
ENDROOT
BRANCH   5  11
ATOM      8  N   UNL     1      33.767 -14.288 -24.152  0.00  0.00    -0.337 NA
ATOM      9  N   UNL     1      34.284 -16.576 -24.176  0.00  0.00    -0.234 N 
ATOM     10  N   UNL     1      33.683 -15.554 -26.201  0.00  0.00    -0.170 NA
ATOM     11  C   UNL     1      33.390 -13.197 -24.854  0.00  0.00    +0.146 C 
ATOM     12  C   UNL     1      33.146 -13.208 -26.212  0.00  0.00    +0.055 C 
ATOM     13  C   UNL     1      33.892 -15.415 -24.877  0.00  0.00    +0.149 C 
ATOM     14  C   UNL     1      33.309 -14.425 -26.840  0.00  0.00    +0.114 C 
ATOM     15  H   UNL     1      34.363 -17.374 -24.746  0.00  0.00    +0.166 HD
BRANCH   9  18
ATOM     16  N   UNL     1      34.856 -18.065 -22.353  0.00  0.00    -0.196 N 
ATOM     17  N   UNL     1      35.123 -18.106 -21.036  0.00  0.00    -0.175 NA
ATOM     18  C   UNL     1      34.586 -16.814 -22.822  0.00  0.00    +0.130 C 
ATOM     19  C   UNL     1      34.681 -15.978 -21.737  0.00  0.00    +0.054 C 
ATOM     20  C   UNL     1      34.882 -19.297 -23.111  0.00  0.00    +0.141 C 
ATOM     21  C   UNL     1      35.015 -16.828 -20.665  0.00  0.00    +0.121 C 
ENDBRANCH   9  18
ENDBRANCH   5  11
BRANCH   2  22
ATOM     22  C   UNL     1      32.815  -8.359 -21.833  0.00  0.00    +0.132 C 
BRANCH  22  25
ATOM     23 CL   UNL     1      30.472  -3.951 -25.207  0.00  0.00    -0.080 Cl
ATOM     24  F   UNL     1      31.794  -3.644 -22.572  0.00  0.00    -0.203 F 
ATOM     25  C   UNL     1      32.227  -7.250 -22.680  0.00  0.00    +0.001 C 
ATOM     26  C   UNL     1      32.278  -5.929 -22.234  0.00  0.00    +0.028 C 
ATOM     27  C   UNL     1      31.635  -7.549 -23.907  0.00  0.00    -0.002 C 
ATOM     28  C   UNL     1      31.737  -4.909 -23.014  0.00  0.00    +0.150 C 
ATOM     29  C   UNL     1      31.093  -6.528 -24.687  0.00  0.00    +0.013 C 
ATOM     30  C   UNL     1      31.144  -5.208 -24.240  0.00  0.00    +0.085 C 
ENDBRANCH  22  25
BRANCH  22  31
ATOM     31  C   UNL     1      31.977  -8.648 -20.583  0.00  0.00    +0.162 C 
BRANCH  31  32
ATOM     32  O   UNL     1      32.833  -8.694 -19.446  0.00  0.00    -0.380 OA
ATOM     33  H   UNL     1      32.427  -9.244 -18.759  0.00  0.00    +0.211 HD
ENDBRANCH  31  32
ENDBRANCH  22  31
ENDBRANCH   2  22
TORSDOF 6
ENDMDL
MODEL 2
REMARK VINA RESULT:     -10.2      6.970     11.111
REMARK  Name = 71727581
REMARK  6 active torsions:
REMARK  status: ('A' for Active; 'I' for Inactive)
REMARK    1  A    between atoms: N_2  and  C_22
REMARK    2  A    between atoms: C_5  and  C_11
REMARK    3  A    between atoms: N_9  and  C_18
REMARK    4  A    between atoms: C_22  and  C_25
REMARK    5  A    between atoms: C_22  and  C_31
REMARK    6  A    between atoms: C_31  and  O_32
REMARK                            x       y       z     vdW  Elec       q    Type
REMARK                         _______ _______ _______ _____ _____    ______ ____
ROOT
ATOM      1  O   UNL     1      32.440 -20.401 -21.070  0.00  0.00    -0.270 OA
ATOM      2  N   UNL     1      34.665 -19.787 -21.437  0.00  0.00    -0.249 N 
ATOM      3  C   UNL     1      33.625 -20.412 -20.742  0.00  0.00    +0.253 C 
ATOM      4  C   UNL     1      35.975 -19.847 -20.998  0.00  0.00    +0.068 C 
ATOM      5  C   UNL     1      35.304 -21.186 -19.097  0.00  0.00    +0.036 C 
ATOM      6  C   UNL     1      34.020 -21.148 -19.501  0.00  0.00    +0.061 C 
ATOM      7  C   UNL     1      36.313 -20.507 -19.886  0.00  0.00    +0.019 C 
ENDROOT
BRANCH   5  11
ATOM      8  N   UNL     1      34.585 -22.459 -17.194  0.00  0.00    -0.337 NA
ATOM      9  N   UNL     1      33.841 -23.699 -15.346  0.00  0.00    -0.234 N 
ATOM     10  N   UNL     1      36.147 -23.336 -15.582  0.00  0.00    -0.170 NA
ATOM     11  C   UNL     1      35.630 -21.935 -17.868  0.00  0.00    +0.146 C 
ATOM     12  C   UNL     1      36.944 -22.068 -17.467  0.00  0.00    +0.055 C 
ATOM     13  C   UNL     1      34.911 -23.137 -16.077  0.00  0.00    +0.149 C 
ATOM     14  C   UNL     1      37.146 -22.786 -16.306  0.00  0.00    +0.114 C 
ATOM     15  H   UNL     1      34.127 -24.184 -14.539  0.00  0.00    +0.166 HD
BRANCH   9  18
ATOM     16  N   UNL     1      31.597 -24.317 -14.677  0.00  0.00    -0.196 N 
ATOM     17  N   UNL     1      30.301 -24.218 -15.024  0.00  0.00    -0.175 NA
ATOM     18  C   UNL     1      32.448 -23.701 -15.546  0.00  0.00    +0.130 C 
ATOM     19  C   UNL     1      31.656 -23.161 -16.529  0.00  0.00    +0.054 C 
ATOM     20  C   UNL     1      31.945 -25.036 -13.472  0.00  0.00    +0.141 C 
ATOM     21  C   UNL     1      30.344 -23.510 -16.155  0.00  0.00    +0.121 C 
ENDBRANCH   9  18
ENDBRANCH   5  11
BRANCH   2  22
ATOM     22  C   UNL     1      34.394 -19.042 -22.661  0.00  0.00    +0.132 C 
BRANCH  22  25
ATOM     23 CL   UNL     1      33.556 -13.196 -21.469  0.00  0.00    -0.080 Cl
ATOM     24  F   UNL     1      32.468 -15.485 -19.931  0.00  0.00    -0.203 F 
ATOM     25  C   UNL     1      34.183 -17.574 -22.360  0.00  0.00    +0.001 C 
ATOM     26  C   UNL     1      33.409 -17.190 -21.264  0.00  0.00    +0.028 C 
ATOM     27  C   UNL     1      34.763 -16.604 -23.177  0.00  0.00    -0.002 C 
ATOM     28  C   UNL     1      33.214 -15.838 -20.987  0.00  0.00    +0.150 C 
ATOM     29  C   UNL     1      34.568 -15.251 -22.900  0.00  0.00    +0.013 C 
ATOM     30  C   UNL     1      33.794 -14.868 -21.805  0.00  0.00    +0.085 C 
ENDBRANCH  22  25
BRANCH  22  31
ATOM     31  C   UNL     1      35.503 -19.275 -23.692  0.00  0.00    +0.162 C 
BRANCH  31  32
ATOM     32  O   UNL     1      34.944 -19.883 -24.851  0.00  0.00    -0.380 OA
ATOM     33  H   UNL     1      34.857 -20.837 -24.706  0.00  0.00    +0.211 HD
ENDBRANCH  31  32
ENDBRANCH  22  31
ENDBRANCH   2  22
TORSDOF 6
ENDMDL
MODEL 3
REMARK VINA RESULT:     -10.2      7.546     11.818
REMARK  Name = 71727581
REMARK  6 active torsions:
REMARK  status: ('A' for Active; 'I' for Inactive)
REMARK    1  A    between atoms: N_2  and  C_22
REMARK    2  A    between atoms: C_5  and  C_11
REMARK    3  A    between atoms: N_9  and  C_18
REMARK    4  A    between atoms: C_22  and  C_25
REMARK    5  A    between atoms: C_22  and  C_31
REMARK    6  A    between atoms: C_31  and  O_32
REMARK                            x       y       z     vdW  Elec       q    Type
REMARK                         _______ _______ _______ _____ _____    ______ ____
ROOT
ATOM      1  O   UNL     1      33.362 -20.139 -21.349  0.00  0.00    -0.270 OA
ATOM      2  N   UNL     1      35.516 -20.421 -20.486  0.00  0.00    -0.249 N 
ATOM      3  C   UNL     1      34.128 -20.598 -20.504  0.00  0.00    +0.253 C 
ATOM      4  C   UNL     1      36.307 -20.972 -19.495  0.00  0.00    +0.068 C 
ATOM      5  C   UNL     1      34.357 -21.940 -18.438  0.00  0.00    +0.036 C 
ATOM      6  C   UNL     1      33.561 -21.419 -19.389  0.00  0.00    +0.061 C 
ATOM      7  C   UNL     1      35.786 -21.702 -18.504  0.00  0.00    +0.019 C 
ENDROOT
BRANCH   5  11
ATOM      8  N   UNL     1      34.586 -23.380 -16.531  0.00  0.00    -0.337 NA
ATOM      9  N   UNL     1      34.854 -24.784 -14.671  0.00  0.00    -0.234 N 
ATOM     10  N   UNL     1      32.673 -24.261 -15.361  0.00  0.00    -0.170 NA
ATOM     11  C   UNL     1      33.737 -22.747 -17.369  0.00  0.00    +0.146 C 
ATOM     12  C   UNL     1      32.363 -22.823 -17.267  0.00  0.00    +0.055 C 
ATOM     13  C   UNL     1      33.995 -24.108 -15.566  0.00  0.00    +0.149 C 
ATOM     14  C   UNL     1      31.882 -23.602 -16.234  0.00  0.00    +0.114 C 
ATOM     15  H   UNL     1      34.378 -25.303 -13.983  0.00  0.00    +0.166 HD
BRANCH   9  18
ATOM     16  N   UNL     1      36.953 -24.133 -13.653  0.00  0.00    -0.196 N 
ATOM     17  N   UNL     1      38.282 -24.332 -13.699  0.00  0.00    -0.175 NA
ATOM     18  C   UNL     1      36.255 -24.861 -14.571  0.00  0.00    +0.130 C 
ATOM     19  C   UNL     1      37.192 -25.586 -15.267  0.00  0.00    +0.054 C 
ATOM     20  C   UNL     1      36.417 -23.210 -12.678  0.00  0.00    +0.141 C 
ATOM     21  C   UNL     1      38.422 -25.220 -14.687  0.00  0.00    +0.121 C 
ENDBRANCH   9  18
ENDBRANCH   5  11
BRANCH   2  22
ATOM     22  C   UNL     1      36.175 -19.639 -21.524  0.00  0.00    +0.132 C 
BRANCH  22  25
ATOM     23 CL   UNL     1      33.168 -14.527 -22.582  0.00  0.00    -0.080 Cl
ATOM     24  F   UNL     1      34.366 -15.369 -20.005  0.00  0.00    -0.203 F 
ATOM     25  C   UNL     1      35.420 -18.354 -21.788  0.00  0.00    +0.001 C 
ATOM     26  C   UNL     1      35.233 -17.430 -20.759  0.00  0.00    +0.028 C 
ATOM     27  C   UNL     1      34.912 -18.093 -23.060  0.00  0.00    -0.002 C 
ATOM     28  C   UNL     1      34.538 -16.247 -21.003  0.00  0.00    +0.150 C 
ATOM     29  C   UNL     1      34.216 -16.909 -23.304  0.00  0.00    +0.013 C 
ATOM     30  C   UNL     1      34.029 -15.986 -22.275  0.00  0.00    +0.085 C 
ENDBRANCH  22  25
BRANCH  22  31
ATOM     31  C   UNL     1      37.643 -19.393 -21.164  0.00  0.00    +0.162 C 
BRANCH  31  32
ATOM     32  O   UNL     1      38.249 -18.601 -22.180  0.00  0.00    -0.380 OA
ATOM     33  H   UNL     1      38.543 -17.759 -21.802  0.00  0.00    +0.211 HD
ENDBRANCH  31  32
ENDBRANCH  22  31
ENDBRANCH   2  22
TORSDOF 6
ENDMDL
MODEL 4
REMARK VINA RESULT:     -10.1      5.916     10.526
REMARK  Name = 71727581
REMARK  6 active torsions:
REMARK  status: ('A' for Active; 'I' for Inactive)
REMARK    1  A    between atoms: N_2  and  C_22
REMARK    2  A    between atoms: C_5  and  C_11
REMARK    3  A    between atoms: N_9  and  C_18
REMARK    4  A    between atoms: C_22  and  C_25
REMARK    5  A    between atoms: C_22  and  C_31
REMARK    6  A    between atoms: C_31  and  O_32
REMARK                            x       y       z     vdW  Elec       q    Type
REMARK                         _______ _______ _______ _____ _____    ______ ____
ROOT
ATOM      1  O   UNL     1      35.341 -16.860 -20.152  0.00  0.00    -0.270 OA
ATOM      2  N   UNL     1      34.634 -17.043 -22.373  0.00  0.00    -0.249 N 
ATOM      3  C   UNL     1      34.746 -16.410 -21.130  0.00  0.00    +0.253 C 
ATOM      4  C   UNL     1      33.944 -16.467 -23.423  0.00  0.00    +0.068 C 
ATOM      5  C   UNL     1      33.411 -14.544 -22.055  0.00  0.00    +0.036 C 
ATOM      6  C   UNL     1      34.077 -15.077 -21.014  0.00  0.00    +0.061 C 
ATOM      7  C   UNL     1      33.350 -15.276 -23.305  0.00  0.00    +0.019 C 
ENDROOT
BRANCH   5  11
ATOM      8  N   UNL     1      33.213 -12.240 -22.697  0.00  0.00    -0.337 NA
ATOM      9  N   UNL     1      33.050  -9.994 -23.355  0.00  0.00    -0.234 N 
ATOM     10  N   UNL     1      31.658 -10.745 -21.622  0.00  0.00    -0.170 NA
ATOM     11  C   UNL     1      32.778 -13.222 -21.880  0.00  0.00    +0.146 C 
ATOM     12  C   UNL     1      31.800 -13.044 -20.922  0.00  0.00    +0.055 C 
ATOM     13  C   UNL     1      32.619 -11.046 -22.517  0.00  0.00    +0.149 C 
ATOM     14  C   UNL     1      31.270 -11.773 -20.837  0.00  0.00    +0.114 C 
ATOM     15  H   UNL     1      32.589  -9.141 -23.187  0.00  0.00    +0.166 HD
BRANCH   9  18
ATOM     16  N   UNL     1      34.689  -8.778 -24.661  0.00  0.00    -0.196 N 
ATOM     17  N   UNL     1      35.567  -8.898 -25.672  0.00  0.00    -0.175 NA
ATOM     18  C   UNL     1      34.010  -9.928 -24.382  0.00  0.00    +0.130 C 
ATOM     19  C   UNL     1      34.474 -10.864 -25.273  0.00  0.00    +0.054 C 
ATOM     20  C   UNL     1      34.556  -7.501 -23.996  0.00  0.00    +0.141 C 
ATOM     21  C   UNL     1      35.431 -10.174 -26.042  0.00  0.00    +0.121 C 
ENDBRANCH   9  18
ENDBRANCH   5  11
BRANCH   2  22
ATOM     22  C   UNL     1      35.248 -18.345 -22.597  0.00  0.00    +0.132 C 
BRANCH  22  25
ATOM     23 CL   UNL     1      33.314 -22.348 -18.531  0.00  0.00    -0.080 Cl
ATOM     24  F   UNL     1      36.136 -21.720 -19.186  0.00  0.00    -0.203 F 
ATOM     25  C   UNL     1      34.764 -19.351 -21.574  0.00  0.00    +0.001 C 
ATOM     26  C   UNL     1      35.685 -20.091 -20.833  0.00  0.00    +0.028 C 
ATOM     27  C   UNL     1      33.396 -19.538 -21.374  0.00  0.00    -0.002 C 
ATOM     28  C   UNL     1      35.238 -21.017 -19.891  0.00  0.00    +0.150 C 
ATOM     29  C   UNL     1      32.950 -20.464 -20.432  0.00  0.00    +0.013 C 
ATOM     30  C   UNL     1      33.871 -21.204 -19.690  0.00  0.00    +0.085 C 
ENDBRANCH  22  25
BRANCH  22  31
ATOM     31  C   UNL     1      35.012 -18.813 -24.036  0.00  0.00    +0.162 C 
BRANCH  31  32
ATOM     32  O   UNL     1      35.340 -20.194 -24.140  0.00  0.00    -0.380 OA
ATOM     33  H   UNL     1      35.110 -20.516 -25.025  0.00  0.00    +0.211 HD
ENDBRANCH  31  32
ENDBRANCH  22  31
ENDBRANCH   2  22
TORSDOF 6
ENDMDL
MODEL 5
REMARK VINA RESULT:     -10.1      4.352      9.726
REMARK  Name = 71727581
REMARK  6 active torsions:
REMARK  status: ('A' for Active; 'I' for Inactive)
REMARK    1  A    between atoms: N_2  and  C_22
REMARK    2  A    between atoms: C_5  and  C_11
REMARK    3  A    between atoms: N_9  and  C_18
REMARK    4  A    between atoms: C_22  and  C_25
REMARK    5  A    between atoms: C_22  and  C_31
REMARK    6  A    between atoms: C_31  and  O_32
REMARK                            x       y       z     vdW  Elec       q    Type
REMARK                         _______ _______ _______ _____ _____    ______ ____
ROOT
ATOM      1  O   UNL     1      34.933 -11.131 -25.585  0.00  0.00    -0.270 OA
ATOM      2  N   UNL     1      33.509 -12.417 -24.249  0.00  0.00    -0.249 N 
ATOM      3  C   UNL     1      34.119 -11.230 -24.668  0.00  0.00    +0.253 C 
ATOM      4  C   UNL     1      32.602 -12.441 -23.205  0.00  0.00    +0.068 C 
ATOM      5  C   UNL     1      32.844 -10.051 -22.905  0.00  0.00    +0.036 C 
ATOM      6  C   UNL     1      33.727  -9.995 -23.919  0.00  0.00    +0.061 C 
ATOM      7  C   UNL     1      32.263 -11.330 -22.544  0.00  0.00    +0.019 C 
ENDROOT
BRANCH   5  11
ATOM      8  N   UNL     1      32.463  -7.683 -22.971  0.00  0.00    -0.337 NA
ATOM      9  N   UNL     1      32.099  -5.367 -23.078  0.00  0.00    -0.234 N 
ATOM     10  N   UNL     1      31.852  -6.434 -21.003  0.00  0.00    -0.170 NA
ATOM     11  C   UNL     1      32.493  -8.797 -22.210  0.00  0.00    +0.146 C 
ATOM     12  C   UNL     1      32.217  -8.809 -20.858  0.00  0.00    +0.055 C 
ATOM     13  C   UNL     1      32.140  -6.554 -22.313  0.00  0.00    +0.149 C 
ATOM     14  C   UNL     1      31.900  -7.587 -20.302  0.00  0.00    +0.114 C 
ATOM     15  H   UNL     1      31.860  -4.568 -22.556  0.00  0.00    +0.166 HD
BRANCH   9  18
ATOM     16  N   UNL     1      31.757  -4.049 -25.081  0.00  0.00    -0.196 N 
ATOM     17  N   UNL     1      32.095  -3.949 -26.378  0.00  0.00    -0.175 NA
ATOM     18  C   UNL     1      32.335  -5.104 -24.440  0.00  0.00    +0.130 C 
ATOM     19  C   UNL     1      33.104  -5.741 -25.383  0.00  0.00    +0.054 C 
ATOM     20  C   UNL     1      30.855  -3.070 -24.516  0.00  0.00    +0.141 C 
ATOM     21  C   UNL     1      32.918  -4.986 -26.557  0.00  0.00    +0.121 C 
ENDBRANCH   9  18
ENDBRANCH   5  11
BRANCH   2  22
ATOM     22  C   UNL     1      33.817 -13.679 -24.909  0.00  0.00    +0.132 C 
BRANCH  22  25
ATOM     23 CL   UNL     1      35.270 -17.908 -20.871  0.00  0.00    -0.080 Cl
ATOM     24  F   UNL     1      34.859 -15.022 -20.334  0.00  0.00    -0.203 F 
ATOM     25  C   UNL     1      34.181 -14.741 -23.893  0.00  0.00    +0.001 C 
ATOM     26  C   UNL     1      34.357 -14.393 -22.553  0.00  0.00    +0.028 C 
ATOM     27  C   UNL     1      34.341 -16.066 -24.296  0.00  0.00    -0.002 C 
ATOM     28  C   UNL     1      34.693 -15.371 -21.618  0.00  0.00    +0.150 C 
ATOM     29  C   UNL     1      34.677 -17.044 -23.361  0.00  0.00    +0.013 C 
ATOM     30  C   UNL     1      34.853 -16.697 -22.021  0.00  0.00    +0.085 C 
ENDBRANCH  22  25
BRANCH  22  31
ATOM     31  C   UNL     1      32.661 -14.110 -25.817  0.00  0.00    +0.162 C 
BRANCH  31  32
ATOM     32  O   UNL     1      32.839 -13.535 -27.107  0.00  0.00    -0.380 OA
ATOM     33  H   UNL     1      33.777 -13.331 -27.243  0.00  0.00    +0.211 HD
ENDBRANCH  31  32
ENDBRANCH  22  31
ENDBRANCH   2  22
TORSDOF 6
ENDMDL
MODEL 6
REMARK VINA RESULT:     -10.1      6.092     10.360
REMARK  Name = 71727581
REMARK  6 active torsions:
REMARK  status: ('A' for Active; 'I' for Inactive)
REMARK    1  A    between atoms: N_2  and  C_22
REMARK    2  A    between atoms: C_5  and  C_11
REMARK    3  A    between atoms: N_9  and  C_18
REMARK    4  A    between atoms: C_22  and  C_25
REMARK    5  A    between atoms: C_22  and  C_31
REMARK    6  A    between atoms: C_31  and  O_32
REMARK                            x       y       z     vdW  Elec       q    Type
REMARK                         _______ _______ _______ _____ _____    ______ ____
ROOT
ATOM      1  O   UNL     1      35.414 -16.781 -19.925  0.00  0.00    -0.270 OA
ATOM      2  N   UNL     1      35.001 -17.155 -22.195  0.00  0.00    -0.249 N 
ATOM      3  C   UNL     1      34.932 -16.430 -21.001  0.00  0.00    +0.253 C 
ATOM      4  C   UNL     1      34.429 -16.689 -23.364  0.00  0.00    +0.068 C 
ATOM      5  C   UNL     1      33.658 -14.698 -22.224  0.00  0.00    +0.036 C 
ATOM      6  C   UNL     1      34.206 -15.124 -21.072  0.00  0.00    +0.061 C 
ATOM      7  C   UNL     1      33.782 -15.520 -23.413  0.00  0.00    +0.019 C 
ENDROOT
BRANCH   5  11
ATOM      8  N   UNL     1      33.419 -12.480 -23.109  0.00  0.00    -0.337 NA
ATOM      9  N   UNL     1      33.219 -10.319 -24.001  0.00  0.00    -0.234 N 
ATOM     10  N   UNL     1      31.726 -10.963 -22.309  0.00  0.00    -0.170 NA
ATOM     11  C   UNL     1      32.961 -13.397 -22.231  0.00  0.00    +0.146 C 
ATOM     12  C   UNL     1      31.904 -13.173 -21.372  0.00  0.00    +0.055 C 
ATOM     13  C   UNL     1      32.766 -11.303 -23.095  0.00  0.00    +0.149 C 
ATOM     14  C   UNL     1      31.319 -11.926 -21.455  0.00  0.00    +0.114 C 
ATOM     15  H   UNL     1      32.713  -9.476 -23.954  0.00  0.00    +0.166 HD
BRANCH   9  18
ATOM     16  N   UNL     1      34.296 -11.205 -25.981  0.00  0.00    -0.196 N 
ATOM     17  N   UNL     1      35.353 -11.047 -26.797  0.00  0.00    -0.175 NA
ATOM     18  C   UNL     1      34.253 -10.308 -24.955  0.00  0.00    +0.130 C 
ATOM     19  C   UNL     1      35.359  -9.507 -25.110  0.00  0.00    +0.054 C 
ATOM     20  C   UNL     1      33.350 -12.263 -26.258  0.00  0.00    +0.141 C 
ATOM     21  C   UNL     1      35.998 -10.009 -26.260  0.00  0.00    +0.121 C 
ENDBRANCH   9  18
ENDBRANCH   5  11
BRANCH   2  22
ATOM     22  C   UNL     1      35.685 -18.441 -22.241  0.00  0.00    +0.132 C 
BRANCH  22  25
ATOM     23 CL   UNL     1      33.071 -22.383 -18.509  0.00  0.00    -0.080 Cl
ATOM     24  F   UNL     1      35.977 -22.085 -19.008  0.00  0.00    -0.203 F 
ATOM     25  C   UNL     1      35.029 -19.432 -21.302  0.00  0.00    +0.001 C 
ATOM     26  C   UNL     1      35.814 -20.323 -20.570  0.00  0.00    +0.028 C 
ATOM     27  C   UNL     1      33.641 -19.454 -21.170  0.00  0.00    -0.002 C 
ATOM     28  C   UNL     1      35.210 -21.235 -19.706  0.00  0.00    +0.150 C 
ATOM     29  C   UNL     1      33.037 -20.366 -20.306  0.00  0.00    +0.013 C 
ATOM     30  C   UNL     1      33.822 -21.257 -19.573  0.00  0.00    +0.085 C 
ENDBRANCH  22  25
BRANCH  22  31
ATOM     31  C   UNL     1      35.762 -18.961 -23.680  0.00  0.00    +0.162 C 
BRANCH  31  32
ATOM     32  O   UNL     1      34.641 -19.800 -23.936  0.00  0.00    -0.380 OA
ATOM     33  H   UNL     1      34.658 -20.088 -24.862  0.00  0.00    +0.211 HD
ENDBRANCH  31  32
ENDBRANCH  22  31
ENDBRANCH   2  22
TORSDOF 6
ENDMDL
MODEL 7
REMARK VINA RESULT:     -10.1      4.749      9.857
REMARK  Name = 71727581
REMARK  6 active torsions:
REMARK  status: ('A' for Active; 'I' for Inactive)
REMARK    1  A    between atoms: N_2  and  C_22
REMARK    2  A    between atoms: C_5  and  C_11
REMARK    3  A    between atoms: N_9  and  C_18
REMARK    4  A    between atoms: C_22  and  C_25
REMARK    5  A    between atoms: C_22  and  C_31
REMARK    6  A    between atoms: C_31  and  O_32
REMARK                            x       y       z     vdW  Elec       q    Type
REMARK                         _______ _______ _______ _____ _____    ______ ____
ROOT
ATOM      1  O   UNL     1      34.556 -11.496 -25.722  0.00  0.00    -0.270 OA
ATOM      2  N   UNL     1      33.406 -13.093 -24.460  0.00  0.00    -0.249 N 
ATOM      3  C   UNL     1      33.861 -11.804 -24.755  0.00  0.00    +0.253 C 
ATOM      4  C   UNL     1      32.627 -13.354 -23.348  0.00  0.00    +0.068 C 
ATOM      5  C   UNL     1      32.693 -11.017 -22.720  0.00  0.00    +0.036 C 
ATOM      6  C   UNL     1      33.450 -10.732 -23.796  0.00  0.00    +0.061 C 
ATOM      7  C   UNL     1      32.269 -12.386 -22.499  0.00  0.00    +0.019 C 
ENDROOT
BRANCH   5  11
ATOM      8  N   UNL     1      32.301  -8.678 -22.356  0.00  0.00    -0.337 NA
ATOM      9  N   UNL     1      31.926  -6.383 -22.042  0.00  0.00    -0.234 N 
ATOM     10  N   UNL     1      31.625  -7.817 -20.209  0.00  0.00    -0.170 NA
ATOM     11  C   UNL     1      32.315  -9.915 -21.815  0.00  0.00    +0.146 C 
ATOM     12  C   UNL     1      32.001 -10.177 -20.497  0.00  0.00    +0.055 C 
ATOM     13  C   UNL     1      31.952  -7.691 -21.510  0.00  0.00    +0.149 C 
ATOM     14  C   UNL     1      31.660  -9.080 -19.733  0.00  0.00    +0.114 C 
ATOM     15  H   UNL     1      31.667  -5.695 -21.388  0.00  0.00    +0.166 HD
BRANCH   9  18
ATOM     16  N   UNL     1      31.746  -4.649 -23.724  0.00  0.00    -0.196 N 
ATOM     17  N   UNL     1      32.102  -4.321 -24.979  0.00  0.00    -0.175 NA
ATOM     18  C   UNL     1      32.200  -5.872 -23.324  0.00  0.00    +0.130 C 
ATOM     19  C   UNL     1      32.900  -6.380 -24.391  0.00  0.00    +0.054 C 
ATOM     20  C   UNL     1      30.954  -3.716 -22.955  0.00  0.00    +0.141 C 
ATOM     21  C   UNL     1      32.807  -5.383 -25.380  0.00  0.00    +0.121 C 
ENDBRANCH   9  18
ENDBRANCH   5  11
BRANCH   2  22
ATOM     22  C   UNL     1      33.746 -14.213 -25.328  0.00  0.00    +0.132 C 
BRANCH  22  25
ATOM     23 CL   UNL     1      35.375 -19.013 -22.070  0.00  0.00    -0.080 Cl
ATOM     24  F   UNL     1      34.475 -19.019 -24.894  0.00  0.00    -0.203 F 
ATOM     25  C   UNL     1      34.156 -15.420 -24.510  0.00  0.00    +0.001 C 
ATOM     26  C   UNL     1      34.129 -16.692 -25.083  0.00  0.00    +0.028 C 
ATOM     27  C   UNL     1      34.560 -15.261 -23.185  0.00  0.00    -0.002 C 
ATOM     28  C   UNL     1      34.506 -17.804 -24.330  0.00  0.00    +0.150 C 
ATOM     29  C   UNL     1      34.937 -16.372 -22.432  0.00  0.00    +0.013 C 
ATOM     30  C   UNL     1      34.910 -17.644 -23.005  0.00  0.00    +0.085 C 
ENDBRANCH  22  25
BRANCH  22  31
ATOM     31  C   UNL     1      32.594 -14.521 -26.289  0.00  0.00    +0.162 C 
BRANCH  31  32
ATOM     32  O   UNL     1      32.595 -13.564 -27.343  0.00  0.00    -0.380 OA
ATOM     33  H   UNL     1      33.090 -13.915 -28.098  0.00  0.00    +0.211 HD
ENDBRANCH  31  32
ENDBRANCH  22  31
ENDBRANCH   2  22
TORSDOF 6
ENDMDL
MODEL 8
REMARK VINA RESULT:      -9.5      5.793     10.449
REMARK  Name = 71727581
REMARK  6 active torsions:
REMARK  status: ('A' for Active; 'I' for Inactive)
REMARK    1  A    between atoms: N_2  and  C_22
REMARK    2  A    between atoms: C_5  and  C_11
REMARK    3  A    between atoms: N_9  and  C_18
REMARK    4  A    between atoms: C_22  and  C_25
REMARK    5  A    between atoms: C_22  and  C_31
REMARK    6  A    between atoms: C_31  and  O_32
REMARK                            x       y       z     vdW  Elec       q    Type
REMARK                         _______ _______ _______ _____ _____    ______ ____
ROOT
ATOM      1  O   UNL     1      35.033 -17.014 -24.370  0.00  0.00    -0.270 OA
ATOM      2  N   UNL     1      35.204 -17.219 -22.047  0.00  0.00    -0.249 N 
ATOM      3  C   UNL     1      34.806 -16.597 -23.235  0.00  0.00    +0.253 C 
ATOM      4  C   UNL     1      34.907 -16.681 -20.809  0.00  0.00    +0.068 C 
ATOM      5  C   UNL     1      33.769 -14.822 -21.859  0.00  0.00    +0.036 C 
ATOM      6  C   UNL     1      34.040 -15.321 -23.079  0.00  0.00    +0.061 C 
ATOM      7  C   UNL     1      34.224 -15.539 -20.684  0.00  0.00    +0.019 C 
ENDROOT
BRANCH   5  11
ATOM      8  N   UNL     1      33.349 -12.593 -22.643  0.00  0.00    -0.337 NA
ATOM      9  N   UNL     1      32.970 -10.418 -23.439  0.00  0.00    -0.234 N 
ATOM     10  N   UNL     1      31.635 -11.202 -21.676  0.00  0.00    -0.170 NA
ATOM     11  C   UNL     1      33.003 -13.563 -21.771  0.00  0.00    +0.146 C 
ATOM     12  C   UNL     1      31.998 -13.428 -20.835  0.00  0.00    +0.055 C 
ATOM     13  C   UNL     1      32.635 -11.456 -22.542  0.00  0.00    +0.149 C 
ATOM     14  C   UNL     1      31.341 -12.214 -20.832  0.00  0.00    +0.114 C 
ATOM     15  H   UNL     1      32.423  -9.608 -23.328  0.00  0.00    +0.166 HD
BRANCH   9  18
ATOM     16  N   UNL     1      34.752  -9.233 -24.573  0.00  0.00    -0.196 N 
ATOM     17  N   UNL     1      35.611  -9.306 -25.605  0.00  0.00    -0.175 NA
ATOM     18  C   UNL     1      33.933 -10.317 -24.461  0.00  0.00    +0.130 C 
ATOM     19  C   UNL     1      34.278 -11.157 -25.491  0.00  0.00    +0.054 C 
ATOM     20  C   UNL     1      34.780  -8.066 -23.720  0.00  0.00    +0.141 C 
ATOM     21  C   UNL     1      35.316 -10.483 -26.161  0.00  0.00    +0.121 C 
ENDBRANCH   9  18
ENDBRANCH   5  11
BRANCH   2  22
ATOM     22  C   UNL     1      35.955 -18.467 -22.082  0.00  0.00    +0.132 C 
BRANCH  22  25
ATOM     23 CL   UNL     1      33.528 -22.530 -18.354  0.00  0.00    -0.080 Cl
ATOM     24  F   UNL     1      32.083 -20.406 -19.833  0.00  0.00    -0.203 F 
ATOM     25  C   UNL     1      35.344 -19.488 -21.146  0.00  0.00    +0.001 C 
ATOM     26  C   UNL     1      33.969 -19.483 -20.911  0.00  0.00    +0.028 C 
ATOM     27  C   UNL     1      36.155 -20.433 -20.519  0.00  0.00    -0.002 C 
ATOM     28  C   UNL     1      33.406 -20.423 -20.049  0.00  0.00    +0.150 C 
ATOM     29  C   UNL     1      35.593 -21.373 -19.656  0.00  0.00    +0.013 C 
ATOM     30  C   UNL     1      34.217 -21.368 -19.421  0.00  0.00    +0.085 C 
ENDBRANCH  22  25
BRANCH  22  31
ATOM     31  C   UNL     1      36.073 -18.986 -23.519  0.00  0.00    +0.162 C 
BRANCH  31  32
ATOM     32  O   UNL     1      34.918 -19.755 -23.835  0.00  0.00    -0.380 OA
ATOM     33  H   UNL     1      34.232 -19.598 -23.168  0.00  0.00    +0.211 HD
ENDBRANCH  31  32
ENDBRANCH  22  31
ENDBRANCH   2  22
TORSDOF 6
ENDMDL
MODEL 9
REMARK VINA RESULT:      -9.4      2.825      4.341
REMARK  Name = 71727581
REMARK  6 active torsions:
REMARK  status: ('A' for Active; 'I' for Inactive)
REMARK    1  A    between atoms: N_2  and  C_22
REMARK    2  A    between atoms: C_5  and  C_11
REMARK    3  A    between atoms: N_9  and  C_18
REMARK    4  A    between atoms: C_22  and  C_25
REMARK    5  A    between atoms: C_22  and  C_31
REMARK    6  A    between atoms: C_31  and  O_32
REMARK                            x       y       z     vdW  Elec       q    Type
REMARK                         _______ _______ _______ _____ _____    ______ ____
ROOT
ATOM      1  O   UNL     1      30.517  -7.656 -24.388  0.00  0.00    -0.270 OA
ATOM      2  N   UNL     1      31.883  -7.131 -22.565  0.00  0.00    -0.249 N 
ATOM      3  C   UNL     1      31.195  -7.998 -23.420  0.00  0.00    +0.253 C 
ATOM      4  C   UNL     1      32.624  -7.599 -21.496  0.00  0.00    +0.068 C 
ATOM      5  C   UNL     1      32.042  -9.880 -22.056  0.00  0.00    +0.036 C 
ATOM      6  C   UNL     1      31.315  -9.456 -23.106  0.00  0.00    +0.061 C 
ATOM      7  C   UNL     1      32.721  -8.904 -21.226  0.00  0.00    +0.019 C 
ENDROOT
BRANCH   5  11
ATOM      8  N   UNL     1      32.437 -12.105 -22.864  0.00  0.00    -0.337 NA
ATOM      9  N   UNL     1      32.831 -14.264 -23.694  0.00  0.00    -0.234 N 
ATOM     10  N   UNL     1      32.305 -14.029 -21.419  0.00  0.00    -0.170 NA
ATOM     11  C   UNL     1      32.127 -11.332 -21.802  0.00  0.00    +0.146 C 
ATOM     12  C   UNL     1      31.895 -11.828 -20.535  0.00  0.00    +0.055 C 
ATOM     13  C   UNL     1      32.509 -13.424 -22.605  0.00  0.00    +0.149 C 
ATOM     14  C   UNL     1      31.999 -13.197 -20.401  0.00  0.00    +0.114 C 
ATOM     15  H   UNL     1      32.872 -15.219 -23.458  0.00  0.00    +0.166 HD
BRANCH   9  18
ATOM     16  N   UNL     1      33.496 -14.987 -25.908  0.00  0.00    -0.196 N 
ATOM     17  N   UNL     1      33.713 -14.558 -27.164  0.00  0.00    -0.175 NA
ATOM     18  C   UNL     1      33.105 -14.003 -25.049  0.00  0.00    +0.130 C 
ATOM     19  C   UNL     1      33.064 -12.849 -25.794  0.00  0.00    +0.054 C 
ATOM     20  C   UNL     1      33.688 -16.388 -25.604  0.00  0.00    +0.141 C 
ATOM     21  C   UNL     1      33.448 -13.252 -27.087  0.00  0.00    +0.121 C 
ENDBRANCH   9  18
ENDBRANCH   5  11
BRANCH   2  22
ATOM     22  C   UNL     1      31.836  -5.690 -22.779  0.00  0.00    +0.132 C 
BRANCH  22  25
ATOM     23 CL   UNL     1      33.638  -4.293 -28.356  0.00  0.00    -0.080 Cl
ATOM     24  F   UNL     1      34.950  -6.198 -26.502  0.00  0.00    -0.203 F 
ATOM     25  C   UNL     1      32.290  -5.340 -24.180  0.00  0.00    +0.001 C 
ATOM     26  C   UNL     1      33.432  -5.938 -24.713  0.00  0.00    +0.028 C 
ATOM     27  C   UNL     1      31.566  -4.421 -24.939  0.00  0.00    -0.002 C 
ATOM     28  C   UNL     1      33.850  -5.615 -26.004  0.00  0.00    +0.150 C 
ATOM     29  C   UNL     1      31.983  -4.099 -26.229  0.00  0.00    +0.013 C 
ATOM     30  C   UNL     1      33.126  -4.696 -26.762  0.00  0.00    +0.085 C 
ENDBRANCH  22  25
BRANCH  22  31
ATOM     31  C   UNL     1      30.441  -5.142 -22.461  0.00  0.00    +0.162 C 
BRANCH  31  32
ATOM     32  O   UNL     1      30.349  -4.877 -21.066  0.00  0.00    -0.380 OA
ATOM     33  H   UNL     1      29.642  -4.234 -20.905  0.00  0.00    +0.211 HD
ENDBRANCH  31  32
ENDBRANCH  22  31
ENDBRANCH   2  22
TORSDOF 6
ENDMDL
