MODEL 1
REMARK VINA RESULT:      -8.7      0.000      0.000
REMARK  Name = 9862937
REMARK  6 active torsions:
REMARK  status: ('A' for Active; 'I' for Inactive)
REMARK    1  A    between atoms: C_3  and  S_12
REMARK    2  A    between atoms: C_8  and  O_22
REMARK    3  A    between atoms: S_12  and  C_13
REMARK    4  A    between atoms: C_13  and  C_14
REMARK    5  A    between atoms: C_14  and  N_16
REMARK    6  A    between atoms: O_22  and  C_23
REMARK                            x       y       z     vdW  Elec       q    Type
REMARK                         _______ _______ _______ _____ _____    ______ ____
ROOT
ATOM      1  N   UNL     1      33.880 -18.501 -21.707  0.00  0.00    -0.309 N 
ATOM      2  N   UNL     1      36.080 -18.762 -21.532  0.00  0.00    -0.309 N 
ATOM      3  C   UNL     1      35.113 -18.074 -22.034  0.00  0.00    +0.195 C 
ATOM      4  C   UNL     1      34.055 -19.596 -20.900  0.00  0.00    +0.063 C 
ATOM      5  C   UNL     1      35.436 -19.738 -20.805  0.00  0.00    +0.060 C 
ATOM      6  C   UNL     1      33.151 -20.446 -20.263  0.00  0.00    +0.052 C 
ATOM      7  C   UNL     1      35.966 -20.787 -20.035  0.00  0.00    +0.019 C 
ATOM      8  C   UNL     1      33.694 -21.485 -19.501  0.00  0.00    +0.140 C 
ATOM      9  C   UNL     1      35.077 -21.654 -19.386  0.00  0.00    +0.038 C 
ATOM     10  H   UNL     1      33.023 -18.107 -21.993  0.00  0.00    +0.149 HD
ATOM     11  H   UNL     1      37.048 -18.624 -21.643  0.00  0.00    +0.149 HD
ENDROOT
BRANCH   3  12
ATOM     12  S   UNL     1      35.283 -16.661 -23.080  0.00  0.00    -0.104 S 
BRANCH  12  13
ATOM     13  C   UNL     1      34.404 -15.427 -22.078  0.00  0.00    +0.038 C 
BRANCH  13  14
ATOM     14  C   UNL     1      33.221 -14.860 -22.853  0.00  0.00    -0.065 C 
BRANCH  14  16
ATOM     15  O   UNL     1      33.344 -12.076 -25.991  0.00  0.00    -0.358 OA
ATOM     16  N   UNL     1      33.702 -14.042 -23.965  0.00  0.00    +0.391 N 
ATOM     17  C   UNL     1      33.608 -12.613 -23.640  0.00  0.00    -0.045 C 
ATOM     18  C   UNL     1      32.944 -14.331 -25.191  0.00  0.00    -0.045 C 
ATOM     19  C   UNL     1      34.104 -11.780 -24.819  0.00  0.00    +0.119 C 
ATOM     20  C   UNL     1      33.456 -13.458 -26.333  0.00  0.00    +0.119 C 
ATOM     21  H   UNL     1      34.681 -14.277 -24.126  0.00  0.00    -0.079 HD
ENDBRANCH  14  16
ENDBRANCH  13  14
ENDBRANCH  12  13
ENDBRANCH   3  12
BRANCH   8  22
ATOM     22  O   UNL     1      32.858 -22.347 -18.854  0.00  0.00    -0.475 OA
BRANCH  22  23
ATOM     23  C   UNL     1      33.398 -23.061 -17.745  0.00  0.00    +0.206 C 
ATOM     24  C   UNL     1      32.332 -23.194 -16.678  0.00  0.00    +0.051 C 
ENDBRANCH  22  23
ENDBRANCH   8  22
TORSDOF 6
ENDMDL
MODEL 2
REMARK VINA RESULT:      -8.6      4.819     10.772
REMARK  Name = 9862937
REMARK  6 active torsions:
REMARK  status: ('A' for Active; 'I' for Inactive)
REMARK    1  A    between atoms: C_3  and  S_12
REMARK    2  A    between atoms: C_8  and  O_22
REMARK    3  A    between atoms: S_12  and  C_13
REMARK    4  A    between atoms: C_13  and  C_14
REMARK    5  A    between atoms: C_14  and  N_16
REMARK    6  A    between atoms: O_22  and  C_23
REMARK                            x       y       z     vdW  Elec       q    Type
REMARK                         _______ _______ _______ _____ _____    ______ ____
ROOT
ATOM      1  N   UNL     1      33.032 -21.689 -19.048  0.00  0.00    -0.309 N 
ATOM      2  N   UNL     1      35.140 -22.178 -18.542  0.00  0.00    -0.309 N 
ATOM      3  C   UNL     1      33.894 -22.406 -18.305  0.00  0.00    +0.195 C 
ATOM      4  C   UNL     1      33.797 -20.898 -19.866  0.00  0.00    +0.063 C 
ATOM      5  C   UNL     1      35.109 -21.223 -19.532  0.00  0.00    +0.060 C 
ATOM      6  C   UNL     1      33.465 -19.958 -20.841  0.00  0.00    +0.052 C 
ATOM      7  C   UNL     1      36.165 -20.578 -20.199  0.00  0.00    +0.019 C 
ATOM      8  C   UNL     1      34.527 -19.326 -21.495  0.00  0.00    +0.140 C 
ATOM      9  C   UNL     1      35.855 -19.630 -21.182  0.00  0.00    +0.038 C 
ATOM     10  H   UNL     1      32.048 -21.724 -19.010  0.00  0.00    +0.149 HD
ATOM     11  H   UNL     1      35.927 -22.589 -18.116  0.00  0.00    +0.149 HD
ENDROOT
BRANCH   3  12
ATOM     12  S   UNL     1      33.259 -23.550 -17.119  0.00  0.00    -0.104 S 
BRANCH  12  13
ATOM     13  C   UNL     1      34.445 -23.288 -15.769  0.00  0.00    +0.038 C 
BRANCH  13  14
ATOM     14  C   UNL     1      35.122 -24.602 -15.396  0.00  0.00    -0.065 C 
BRANCH  14  16
ATOM     15  O   UNL     1      36.281 -25.344 -11.432  0.00  0.00    -0.358 OA
ATOM     16  N   UNL     1      35.771 -24.474 -14.093  0.00  0.00    +0.391 N 
ATOM     17  C   UNL     1      36.619 -25.640 -13.816  0.00  0.00    -0.045 C 
ATOM     18  C   UNL     1      34.772 -24.313 -13.026  0.00  0.00    -0.045 C 
ATOM     19  C   UNL     1      37.276 -25.490 -12.446  0.00  0.00    +0.119 C 
ATOM     20  C   UNL     1      35.472 -24.193 -11.676  0.00  0.00    +0.119 C 
ATOM     21  H   UNL     1      36.358 -23.640 -14.116  0.00  0.00    -0.079 HD
ENDBRANCH  14  16
ENDBRANCH  13  14
ENDBRANCH  12  13
ENDBRANCH   3  12
BRANCH   8  22
ATOM     22  O   UNL     1      34.262 -18.398 -22.459  0.00  0.00    -0.475 OA
BRANCH  22  23
ATOM     23  C   UNL     1      35.156 -18.343 -23.567  0.00  0.00    +0.206 C 
ATOM     24  C   UNL     1      34.524 -19.050 -24.747  0.00  0.00    +0.051 C 
ENDBRANCH  22  23
ENDBRANCH   8  22
TORSDOF 6
ENDMDL
MODEL 3
REMARK VINA RESULT:      -8.6      4.830     10.818
REMARK  Name = 9862937
REMARK  6 active torsions:
REMARK  status: ('A' for Active; 'I' for Inactive)
REMARK    1  A    between atoms: C_3  and  S_12
REMARK    2  A    between atoms: C_8  and  O_22
REMARK    3  A    between atoms: S_12  and  C_13
REMARK    4  A    between atoms: C_13  and  C_14
REMARK    5  A    between atoms: C_14  and  N_16
REMARK    6  A    between atoms: O_22  and  C_23
REMARK                            x       y       z     vdW  Elec       q    Type
REMARK                         _______ _______ _______ _____ _____    ______ ____
ROOT
ATOM      1  N   UNL     1      34.962 -22.198 -18.524  0.00  0.00    -0.309 N 
ATOM      2  N   UNL     1      32.760 -21.999 -18.754  0.00  0.00    -0.309 N 
ATOM      3  C   UNL     1      33.731 -22.575 -18.133  0.00  0.00    +0.195 C 
ATOM      4  C   UNL     1      34.780 -21.269 -19.517  0.00  0.00    +0.063 C 
ATOM      5  C   UNL     1      33.398 -21.162 -19.641  0.00  0.00    +0.060 C 
ATOM      6  C   UNL     1      35.679 -20.535 -20.291  0.00  0.00    +0.052 C 
ATOM      7  C   UNL     1      32.862 -20.276 -20.591  0.00  0.00    +0.019 C 
ATOM      8  C   UNL     1      35.129 -19.658 -21.232  0.00  0.00    +0.140 C 
ATOM      9  C   UNL     1      33.746 -19.528 -21.380  0.00  0.00    +0.038 C 
ATOM     10  H   UNL     1      35.821 -22.525 -18.170  0.00  0.00    +0.149 HD
ATOM     11  H   UNL     1      31.793 -22.127 -18.625  0.00  0.00    +0.149 HD
ENDROOT
BRANCH   3  12
ATOM     12  S   UNL     1      33.570 -23.779 -16.851  0.00  0.00    -0.104 S 
BRANCH  12  13
ATOM     13  C   UNL     1      34.715 -23.081 -15.625  0.00  0.00    +0.038 C 
BRANCH  13  14
ATOM     14  C   UNL     1      35.957 -23.954 -15.503  0.00  0.00    -0.065 C 
BRANCH  14  16
ATOM     15  O   UNL     1      36.271 -25.588 -11.650  0.00  0.00    -0.358 OA
ATOM     16  N   UNL     1      36.304 -24.130 -14.093  0.00  0.00    +0.391 N 
ATOM     17  C   UNL     1      37.127 -25.331 -13.905  0.00  0.00    -0.045 C 
ATOM     18  C   UNL     1      35.092 -24.214 -13.265  0.00  0.00    -0.045 C 
ATOM     19  C   UNL     1      37.466 -25.500 -12.426  0.00  0.00    +0.119 C 
ATOM     20  C   UNL     1      35.479 -24.409 -11.802  0.00  0.00    +0.119 C 
ATOM     21  H   UNL     1      36.842 -23.315 -13.799  0.00  0.00    -0.079 HD
ENDBRANCH  14  16
ENDBRANCH  13  14
ENDBRANCH  12  13
ENDBRANCH   3  12
BRANCH   8  22
ATOM     22  O   UNL     1      35.960 -18.914 -22.016  0.00  0.00    -0.475 OA
BRANCH  22  23
ATOM     23  C   UNL     1      35.392 -18.325 -23.184  0.00  0.00    +0.206 C 
ATOM     24  C   UNL     1      35.295 -16.828 -22.985  0.00  0.00    +0.051 C 
ENDBRANCH  22  23
ENDBRANCH   8  22
TORSDOF 6
ENDMDL
MODEL 4
REMARK VINA RESULT:      -8.5      1.147      1.556
REMARK  Name = 9862937
REMARK  6 active torsions:
REMARK  status: ('A' for Active; 'I' for Inactive)
REMARK    1  A    between atoms: C_3  and  S_12
REMARK    2  A    between atoms: C_8  and  O_22
REMARK    3  A    between atoms: S_12  and  C_13
REMARK    4  A    between atoms: C_13  and  C_14
REMARK    5  A    between atoms: C_14  and  N_16
REMARK    6  A    between atoms: O_22  and  C_23
REMARK                            x       y       z     vdW  Elec       q    Type
REMARK                         _______ _______ _______ _____ _____    ______ ____
ROOT
ATOM      1  N   UNL     1      33.788 -18.630 -21.750  0.00  0.00    -0.309 N 
ATOM      2  N   UNL     1      35.994 -18.762 -21.515  0.00  0.00    -0.309 N 
ATOM      3  C   UNL     1      35.003 -18.142 -22.058  0.00  0.00    +0.195 C 
ATOM      4  C   UNL     1      34.004 -19.692 -20.910  0.00  0.00    +0.063 C 
ATOM      5  C   UNL     1      35.389 -19.753 -20.779  0.00  0.00    +0.060 C 
ATOM      6  C   UNL     1      33.134 -20.576 -20.272  0.00  0.00    +0.052 C 
ATOM      7  C   UNL     1      35.957 -20.751 -19.968  0.00  0.00    +0.019 C 
ATOM      8  C   UNL     1      33.715 -21.563 -19.469  0.00  0.00    +0.140 C 
ATOM      9  C   UNL     1      35.102 -21.651 -19.318  0.00  0.00    +0.038 C 
ATOM     10  H   UNL     1      32.918 -18.293 -22.065  0.00  0.00    +0.149 HD
ATOM     11  H   UNL     1      36.956 -18.571 -21.607  0.00  0.00    +0.149 HD
ENDROOT
BRANCH   3  12
ATOM     12  S   UNL     1      35.119 -16.748 -23.137  0.00  0.00    -0.104 S 
BRANCH  12  13
ATOM     13  C   UNL     1      34.543 -15.440 -22.016  0.00  0.00    +0.038 C 
BRANCH  13  14
ATOM     14  C   UNL     1      33.031 -15.282 -22.119  0.00  0.00    -0.065 C 
BRANCH  14  16
ATOM     15  O   UNL     1      33.012 -11.175 -22.980  0.00  0.00    -0.358 OA
ATOM     16  N   UNL     1      32.707 -13.993 -22.727  0.00  0.00    +0.391 N 
ATOM     17  C   UNL     1      33.893 -13.403 -23.362  0.00  0.00    -0.045 C 
ATOM     18  C   UNL     1      32.159 -13.068 -21.725  0.00  0.00    -0.045 C 
ATOM     19  C   UNL     1      33.532 -12.053 -23.978  0.00  0.00    +0.119 C 
ATOM     20  C   UNL     1      31.839 -11.727 -22.380  0.00  0.00    +0.119 C 
ATOM     21  H   UNL     1      31.999 -14.154 -23.443  0.00  0.00    -0.079 HD
ENDBRANCH  14  16
ENDBRANCH  13  14
ENDBRANCH  12  13
ENDBRANCH   3  12
BRANCH   8  22
ATOM     22  O   UNL     1      32.913 -22.455 -18.820  0.00  0.00    -0.475 OA
BRANCH  22  23
ATOM     23  C   UNL     1      33.416 -23.016 -17.610  0.00  0.00    +0.206 C 
ATOM     24  C   UNL     1      32.265 -23.243 -16.655  0.00  0.00    +0.051 C 
ENDBRANCH  22  23
ENDBRANCH   8  22
TORSDOF 6
ENDMDL
MODEL 5
REMARK VINA RESULT:      -8.5      3.425      4.897
REMARK  Name = 9862937
REMARK  6 active torsions:
REMARK  status: ('A' for Active; 'I' for Inactive)
REMARK    1  A    between atoms: C_3  and  S_12
REMARK    2  A    between atoms: C_8  and  O_22
REMARK    3  A    between atoms: S_12  and  C_13
REMARK    4  A    between atoms: C_13  and  C_14
REMARK    5  A    between atoms: C_14  and  N_16
REMARK    6  A    between atoms: O_22  and  C_23
REMARK                            x       y       z     vdW  Elec       q    Type
REMARK                         _______ _______ _______ _____ _____    ______ ____
ROOT
ATOM      1  N   UNL     1      34.232 -14.843 -22.025  0.00  0.00    -0.309 N 
ATOM      2  N   UNL     1      34.312 -15.407 -24.173  0.00  0.00    -0.309 N 
ATOM      3  C   UNL     1      34.050 -14.488 -23.309  0.00  0.00    +0.195 C 
ATOM      4  C   UNL     1      34.663 -16.145 -22.045  0.00  0.00    +0.063 C 
ATOM      5  C   UNL     1      34.705 -16.474 -23.397  0.00  0.00    +0.060 C 
ATOM      6  C   UNL     1      35.010 -17.034 -21.028  0.00  0.00    +0.052 C 
ATOM      7  C   UNL     1      35.114 -17.764 -23.776  0.00  0.00    +0.019 C 
ATOM      8  C   UNL     1      35.414 -18.314 -21.422  0.00  0.00    +0.140 C 
ATOM      9  C   UNL     1      35.466 -18.675 -22.771  0.00  0.00    +0.038 C 
ATOM     10  H   UNL     1      34.085 -14.281 -21.229  0.00  0.00    +0.149 HD
ATOM     11  H   UNL     1      34.247 -15.358 -25.154  0.00  0.00    +0.149 HD
ENDROOT
BRANCH   3  12
ATOM     12  S   UNL     1      33.489 -12.853 -23.676  0.00  0.00    -0.104 S 
BRANCH  12  13
ATOM     13  C   UNL     1      32.235 -12.658 -22.377  0.00  0.00    +0.038 C 
BRANCH  13  14
ATOM     14  C   UNL     1      31.443 -11.374 -22.594  0.00  0.00    -0.065 C 
BRANCH  14  16
ATOM     15  O   UNL     1      32.353  -9.647 -18.878  0.00  0.00    -0.358 OA
ATOM     16  N   UNL     1      31.313 -10.651 -21.330  0.00  0.00    +0.391 N 
ATOM     17  C   UNL     1      32.216  -9.494 -21.295  0.00  0.00    -0.045 C 
ATOM     18  C   UNL     1      31.588 -11.539 -20.191  0.00  0.00    -0.045 C 
ATOM     19  C   UNL     1      32.071  -8.763 -19.963  0.00  0.00    +0.119 C 
ATOM     20  C   UNL     1      31.458 -10.760 -18.885  0.00  0.00    +0.119 C 
ATOM     21  H   UNL     1      30.352 -10.318 -21.257  0.00  0.00    -0.079 HD
ENDBRANCH  14  16
ENDBRANCH  13  14
ENDBRANCH  12  13
ENDBRANCH   3  12
BRANCH   8  22
ATOM     22  O   UNL     1      35.766 -19.226 -20.471  0.00  0.00    -0.475 OA
BRANCH  22  23
ATOM     23  C   UNL     1      35.092 -20.481 -20.498  0.00  0.00    +0.206 C 
ATOM     24  C   UNL     1      33.602 -20.244 -20.374  0.00  0.00    +0.051 C 
ENDBRANCH  22  23
ENDBRANCH   8  22
TORSDOF 6
ENDMDL
MODEL 6
REMARK VINA RESULT:      -8.3      4.746      9.940
REMARK  Name = 9862937
REMARK  6 active torsions:
REMARK  status: ('A' for Active; 'I' for Inactive)
REMARK    1  A    between atoms: C_3  and  S_12
REMARK    2  A    between atoms: C_8  and  O_22
REMARK    3  A    between atoms: S_12  and  C_13
REMARK    4  A    between atoms: C_13  and  C_14
REMARK    5  A    between atoms: C_14  and  N_16
REMARK    6  A    between atoms: O_22  and  C_23
REMARK                            x       y       z     vdW  Elec       q    Type
REMARK                         _______ _______ _______ _____ _____    ______ ____
ROOT
ATOM      1  N   UNL     1      34.883 -22.273 -18.679  0.00  0.00    -0.309 N 
ATOM      2  N   UNL     1      32.688 -21.954 -18.817  0.00  0.00    -0.309 N 
ATOM      3  C   UNL     1      33.647 -22.627 -18.283  0.00  0.00    +0.195 C 
ATOM      4  C   UNL     1      34.718 -21.250 -19.578  0.00  0.00    +0.063 C 
ATOM      5  C   UNL     1      33.339 -21.069 -19.646  0.00  0.00    +0.060 C 
ATOM      6  C   UNL     1      35.628 -20.490 -20.312  0.00  0.00    +0.052 C 
ATOM      7  C   UNL     1      32.819 -20.076 -20.494  0.00  0.00    +0.019 C 
ATOM      8  C   UNL     1      35.094 -19.506 -21.151  0.00  0.00    +0.140 C 
ATOM      9  C   UNL     1      33.715 -19.301 -21.242  0.00  0.00    +0.038 C 
ATOM     10  H   UNL     1      35.735 -22.669 -18.385  0.00  0.00    +0.149 HD
ATOM     11  H   UNL     1      31.720 -22.049 -18.668  0.00  0.00    +0.149 HD
ENDROOT
BRANCH   3  12
ATOM     12  S   UNL     1      33.466 -23.935 -17.110  0.00  0.00    -0.104 S 
BRANCH  12  13
ATOM     13  C   UNL     1      33.920 -23.052 -15.589  0.00  0.00    +0.038 C 
BRANCH  13  14
ATOM     14  C   UNL     1      32.905 -23.335 -14.489  0.00  0.00    -0.065 C 
BRANCH  14  16
ATOM     15  O   UNL     1      28.901 -24.505 -14.960  0.00  0.00    -0.358 OA
ATOM     16  N   UNL     1      31.670 -23.854 -15.075  0.00  0.00    +0.391 N 
ATOM     17  C   UNL     1      30.634 -22.813 -15.112  0.00  0.00    -0.045 C 
ATOM     18  C   UNL     1      31.185 -25.020 -14.323  0.00  0.00    -0.045 C 
ATOM     19  C   UNL     1      29.351 -23.381 -15.716  0.00  0.00    +0.119 C 
ATOM     20  C   UNL     1      29.890 -25.535 -14.945  0.00  0.00    +0.119 C 
ATOM     21  H   UNL     1      31.874 -24.145 -16.030  0.00  0.00    -0.079 HD
ENDBRANCH  14  16
ENDBRANCH  13  14
ENDBRANCH  12  13
ENDBRANCH   3  12
BRANCH   8  22
ATOM     22  O   UNL     1      35.937 -18.731 -21.893  0.00  0.00    -0.475 OA
BRANCH  22  23
ATOM     23  C   UNL     1      35.345 -17.695 -22.672  0.00  0.00    +0.206 C 
ATOM     24  C   UNL     1      35.190 -18.178 -24.099  0.00  0.00    +0.051 C 
ENDBRANCH  22  23
ENDBRANCH   8  22
TORSDOF 6
ENDMDL
MODEL 7
REMARK VINA RESULT:      -8.3      2.949      4.541
REMARK  Name = 9862937
REMARK  6 active torsions:
REMARK  status: ('A' for Active; 'I' for Inactive)
REMARK    1  A    between atoms: C_3  and  S_12
REMARK    2  A    between atoms: C_8  and  O_22
REMARK    3  A    between atoms: S_12  and  C_13
REMARK    4  A    between atoms: C_13  and  C_14
REMARK    5  A    between atoms: C_14  and  N_16
REMARK    6  A    between atoms: O_22  and  C_23
REMARK                            x       y       z     vdW  Elec       q    Type
REMARK                         _______ _______ _______ _____ _____    ______ ____
ROOT
ATOM      1  N   UNL     1      34.003 -15.171 -23.166  0.00  0.00    -0.309 N 
ATOM      2  N   UNL     1      34.063 -16.268 -25.098  0.00  0.00    -0.309 N 
ATOM      3  C   UNL     1      33.784 -15.165 -24.494  0.00  0.00    +0.195 C 
ATOM      4  C   UNL     1      34.479 -16.421 -22.863  0.00  0.00    +0.063 C 
ATOM      5  C   UNL     1      34.508 -17.086 -24.085  0.00  0.00    +0.060 C 
ATOM      6  C   UNL     1      34.876 -17.007 -21.661  0.00  0.00    +0.052 C 
ATOM      7  C   UNL     1      34.955 -18.418 -24.130  0.00  0.00    +0.019 C 
ATOM      8  C   UNL     1      35.318 -18.333 -21.723  0.00  0.00    +0.140 C 
ATOM      9  C   UNL     1      35.358 -19.028 -22.935  0.00  0.00    +0.038 C 
ATOM     10  H   UNL     1      33.850 -14.428 -22.539  0.00  0.00    +0.149 HD
ATOM     11  H   UNL     1      33.978 -16.477 -26.057  0.00  0.00    +0.149 HD
ENDROOT
BRANCH   3  12
ATOM     12  S   UNL     1      33.159 -13.698 -25.253  0.00  0.00    -0.104 S 
BRANCH  12  13
ATOM     13  C   UNL     1      33.672 -12.468 -24.019  0.00  0.00    +0.038 C 
BRANCH  13  14
ATOM     14  C   UNL     1      34.160 -11.200 -24.708  0.00  0.00    -0.065 C 
BRANCH  14  16
ATOM     15  O   UNL     1      33.368  -7.427 -23.048  0.00  0.00    -0.358 OA
ATOM     16  N   UNL     1      34.111 -10.077 -23.773  0.00  0.00    +0.391 N 
ATOM     17  C   UNL     1      32.722  -9.732 -23.445  0.00  0.00    -0.045 C 
ATOM     18  C   UNL     1      34.804  -8.905 -24.328  0.00  0.00    -0.045 C 
ATOM     19  C   UNL     1      32.696  -8.551 -22.478  0.00  0.00    +0.119 C 
ATOM     20  C   UNL     1      34.729  -7.744 -23.341  0.00  0.00    +0.119 C 
ATOM     21  H   UNL     1      34.588 -10.361 -22.917  0.00  0.00    -0.079 HD
ENDBRANCH  14  16
ENDBRANCH  13  14
ENDBRANCH  12  13
ENDBRANCH   3  12
BRANCH   8  22
ATOM     22  O   UNL     1      35.720 -18.957 -20.579  0.00  0.00    -0.475 OA
BRANCH  22  23
ATOM     23  C   UNL     1      35.302 -20.308 -20.398  0.00  0.00    +0.206 C 
ATOM     24  C   UNL     1      36.432 -21.095 -19.770  0.00  0.00    +0.051 C 
ENDBRANCH  22  23
ENDBRANCH   8  22
TORSDOF 6
ENDMDL
MODEL 8
REMARK VINA RESULT:      -8.3      3.410      4.906
REMARK  Name = 9862937
REMARK  6 active torsions:
REMARK  status: ('A' for Active; 'I' for Inactive)
REMARK    1  A    between atoms: C_3  and  S_12
REMARK    2  A    between atoms: C_8  and  O_22
REMARK    3  A    between atoms: S_12  and  C_13
REMARK    4  A    between atoms: C_13  and  C_14
REMARK    5  A    between atoms: C_14  and  N_16
REMARK    6  A    between atoms: O_22  and  C_23
REMARK                            x       y       z     vdW  Elec       q    Type
REMARK                         _______ _______ _______ _____ _____    ______ ____
ROOT
ATOM      1  N   UNL     1      34.032 -14.652 -21.867  0.00  0.00    -0.309 N 
ATOM      2  N   UNL     1      34.132 -15.114 -24.039  0.00  0.00    -0.309 N 
ATOM      3  C   UNL     1      33.819 -14.252 -23.133  0.00  0.00    +0.195 C 
ATOM      4  C   UNL     1      34.542 -15.923 -21.948  0.00  0.00    +0.063 C 
ATOM      5  C   UNL     1      34.596 -16.187 -23.313  0.00  0.00    +0.060 C 
ATOM      6  C   UNL     1      34.951 -16.834 -20.974  0.00  0.00    +0.052 C 
ATOM      7  C   UNL     1      35.081 -17.431 -23.752  0.00  0.00    +0.019 C 
ATOM      8  C   UNL     1      35.431 -18.067 -21.427  0.00  0.00    +0.140 C 
ATOM      9  C   UNL     1      35.497 -18.362 -22.791  0.00  0.00    +0.038 C 
ATOM     10  H   UNL     1      33.855 -14.137 -21.046  0.00  0.00    +0.149 HD
ATOM     11  H   UNL     1      34.057 -15.025 -25.016  0.00  0.00    +0.149 HD
ENDROOT
BRANCH   3  12
ATOM     12  S   UNL     1      33.155 -12.641 -23.423  0.00  0.00    -0.104 S 
BRANCH  12  13
ATOM     13  C   UNL     1      32.133 -12.454 -21.933  0.00  0.00    +0.038 C 
BRANCH  13  14
ATOM     14  C   UNL     1      31.192 -11.266 -22.082  0.00  0.00    -0.065 C 
BRANCH  14  16
ATOM     15  O   UNL     1      32.095  -7.248 -21.270  0.00  0.00    -0.358 OA
ATOM     16  N   UNL     1      31.933 -10.019 -21.900  0.00  0.00    +0.391 N 
ATOM     17  C   UNL     1      31.812  -9.537 -20.518  0.00  0.00    -0.045 C 
ATOM     18  C   UNL     1      31.460  -8.989 -22.836  0.00  0.00    -0.045 C 
ATOM     19  C   UNL     1      32.583  -8.230 -20.355  0.00  0.00    +0.119 C 
ATOM     20  C   UNL     1      32.239  -7.696 -22.619  0.00  0.00    +0.119 C 
ATOM     21  H   UNL     1      32.916 -10.208 -22.095  0.00  0.00    -0.079 HD
ENDBRANCH  14  16
ENDBRANCH  13  14
ENDBRANCH  12  13
ENDBRANCH   3  12
BRANCH   8  22
ATOM     22  O   UNL     1      35.846 -18.996 -20.519  0.00  0.00    -0.475 OA
BRANCH  22  23
ATOM     23  C   UNL     1      35.362 -20.326 -20.689  0.00  0.00    +0.206 C 
ATOM     24  C   UNL     1      33.904 -20.376 -20.285  0.00  0.00    +0.051 C 
ENDBRANCH  22  23
ENDBRANCH   8  22
TORSDOF 6
ENDMDL
MODEL 9
REMARK VINA RESULT:      -8.1      3.960     10.426
REMARK  Name = 9862937
REMARK  6 active torsions:
REMARK  status: ('A' for Active; 'I' for Inactive)
REMARK    1  A    between atoms: C_3  and  S_12
REMARK    2  A    between atoms: C_8  and  O_22
REMARK    3  A    between atoms: S_12  and  C_13
REMARK    4  A    between atoms: C_13  and  C_14
REMARK    5  A    between atoms: C_14  and  N_16
REMARK    6  A    between atoms: O_22  and  C_23
REMARK                            x       y       z     vdW  Elec       q    Type
REMARK                         _______ _______ _______ _____ _____    ______ ____
ROOT
ATOM      1  N   UNL     1      32.628 -11.177 -23.273  0.00  0.00    -0.309 N 
ATOM      2  N   UNL     1      34.513 -11.015 -24.440  0.00  0.00    -0.309 N 
ATOM      3  C   UNL     1      33.563 -11.781 -24.028  0.00  0.00    +0.195 C 
ATOM      4  C   UNL     1      33.007  -9.862 -23.175  0.00  0.00    +0.063 C 
ATOM      5  C   UNL     1      34.185  -9.787 -23.913  0.00  0.00    +0.060 C 
ATOM      6  C   UNL     1      32.437  -8.767 -22.527  0.00  0.00    +0.052 C 
ATOM      7  C   UNL     1      34.849  -8.552 -24.019  0.00  0.00    +0.019 C 
ATOM      8  C   UNL     1      33.110  -7.546 -22.642  0.00  0.00    +0.140 C 
ATOM      9  C   UNL     1      34.295  -7.438 -23.375  0.00  0.00    +0.038 C 
ATOM     10  H   UNL     1      31.833 -11.595 -22.869  0.00  0.00    +0.149 HD
ATOM     11  H   UNL     1      35.288 -11.251 -24.998  0.00  0.00    +0.149 HD
ENDROOT
BRANCH   3  12
ATOM     12  S   UNL     1      33.403 -13.507 -24.371  0.00  0.00    -0.104 S 
BRANCH  12  13
ATOM     13  C   UNL     1      33.174 -14.139 -22.684  0.00  0.00    +0.038 C 
BRANCH  13  14
ATOM     14  C   UNL     1      34.469 -14.752 -22.167  0.00  0.00    -0.065 C 
BRANCH  14  16
ATOM     15  O   UNL     1      35.595 -18.793 -22.283  0.00  0.00    -0.358 OA
ATOM     16  N   UNL     1      34.404 -16.208 -22.267  0.00  0.00    +0.391 N 
ATOM     17  C   UNL     1      34.890 -16.838 -21.032  0.00  0.00    -0.045 C 
ATOM     18  C   UNL     1      35.182 -16.689 -23.417  0.00  0.00    -0.045 C 
ATOM     19  C   UNL     1      34.823 -18.357 -21.164  0.00  0.00    +0.119 C 
ATOM     20  C   UNL     1      35.108 -18.211 -23.493  0.00  0.00    +0.119 C 
ATOM     21  H   UNL     1      33.427 -16.469 -22.404  0.00  0.00    -0.079 HD
ENDBRANCH  14  16
ENDBRANCH  13  14
ENDBRANCH  12  13
ENDBRANCH   3  12
BRANCH   8  22
ATOM     22  O   UNL     1      32.598  -6.440 -22.030  0.00  0.00    -0.475 OA
BRANCH  22  23
ATOM     23  C   UNL     1      31.605  -5.708 -22.744  0.00  0.00    +0.206 C 
ATOM     24  C   UNL     1      30.503  -5.308 -21.786  0.00  0.00    +0.051 C 
ENDBRANCH  22  23
ENDBRANCH   8  22
TORSDOF 6
ENDMDL
