MODEL 1
REMARK VINA RESULT:      -7.8      0.000      0.000
REMARK  Name = 208903
REMARK  9 active torsions:
REMARK  status: ('A' for Active; 'I' for Inactive)
REMARK    1  A    between atoms: N_1  and  C_18
REMARK    2  A    between atoms: C_2  and  C_8
REMARK    3  A    between atoms: C_2  and  C_15
REMARK    4  A    between atoms: C_15  and  C_16
REMARK    5  A    between atoms: C_18  and  C_19
REMARK    6  A    between atoms: C_19  and  O_20
REMARK    7  A    between atoms: O_20  and  C_21
REMARK    8  A    between atoms: C_21  and  C_22
REMARK    9  A    between atoms: C_22  and  O_23
REMARK                            x       y       z     vdW  Elec       q    Type
REMARK                         _______ _______ _______ _____ _____    ______ ____
ROOT
ATOM      1  N   UNL     1      35.266 -20.403 -19.919  0.00  0.00    +0.389 N 
ATOM      2  C   UNL     1      34.707 -18.070 -21.690  0.00  0.00    +0.066 C 
ATOM      3  C   UNL     1      33.634 -19.089 -21.228  0.00  0.00    -0.012 C 
ATOM      4  C   UNL     1      35.887 -18.128 -20.685  0.00  0.00    -0.012 C 
ATOM      5  C   UNL     1      34.205 -20.480 -20.928  0.00  0.00    -0.076 C 
ATOM      6  C   UNL     1      36.366 -19.554 -20.386  0.00  0.00    -0.076 C 
ATOM      7  H   UNL     1      34.875 -19.983 -19.077  0.00  0.00    -0.080 HD
ENDROOT
BRANCH   2   8
ATOM      8  C   UNL     1      34.187 -16.628 -21.823  0.00  0.00    -0.016 C 
ATOM      9  C   UNL     1      33.086 -16.218 -21.077  0.00  0.00    -0.004 C 
ATOM     10  C   UNL     1      34.821 -15.741 -22.688  0.00  0.00    -0.004 C 
ATOM     11  C   UNL     1      32.614 -14.910 -21.196  0.00  0.00    -0.000 C 
ATOM     12  C   UNL     1      34.350 -14.433 -22.808  0.00  0.00    -0.000 C 
ATOM     13  C   UNL     1      33.246 -14.018 -22.061  0.00  0.00    -0.000 C 
ENDBRANCH   2   8
BRANCH   2  15
ATOM     14  O   UNL     1      36.391 -18.560 -23.320  0.00  0.00    -0.296 OA
ATOM     15  C   UNL     1      35.190 -18.502 -23.059  0.00  0.00    +0.153 C 
BRANCH  15  16
ATOM     16  C   UNL     1      34.111 -18.852 -24.068  0.00  0.00    +0.065 C 
ATOM     17  C   UNL     1      34.190 -18.008 -25.326  0.00  0.00    +0.008 C 
ENDBRANCH  15  16
ENDBRANCH   2  15
BRANCH   1  18
ATOM     18  C   UNL     1      35.757 -21.741 -19.587  0.00  0.00    -0.045 C 
BRANCH  18  19
ATOM     19  C   UNL     1      36.371 -21.757 -18.197  0.00  0.00    +0.120 C 
BRANCH  19  20
ATOM     20  O   UNL     1      35.602 -22.618 -17.368  0.00  0.00    -0.353 OA
BRANCH  20  21
ATOM     21  C   UNL     1      36.196 -22.775 -16.087  0.00  0.00    +0.174 C 
BRANCH  21  22
ATOM     22  C   UNL     1      37.637 -22.306 -16.149  0.00  0.00    +0.169 C 
BRANCH  22  23
ATOM     23  O   UNL     1      38.495 -23.406 -15.868  0.00  0.00    -0.379 OA
ATOM     24  H   UNL     1      38.358 -23.697 -14.953  0.00  0.00    +0.211 HD
ENDBRANCH  22  23
ENDBRANCH  21  22
ENDBRANCH  20  21
ENDBRANCH  19  20
ENDBRANCH  18  19
ENDBRANCH   1  18
TORSDOF 9
ENDMDL
MODEL 2
REMARK VINA RESULT:      -7.6      3.765      7.814
REMARK  Name = 208903
REMARK  9 active torsions:
REMARK  status: ('A' for Active; 'I' for Inactive)
REMARK    1  A    between atoms: N_1  and  C_18
REMARK    2  A    between atoms: C_2  and  C_8
REMARK    3  A    between atoms: C_2  and  C_15
REMARK    4  A    between atoms: C_15  and  C_16
REMARK    5  A    between atoms: C_18  and  C_19
REMARK    6  A    between atoms: C_19  and  O_20
REMARK    7  A    between atoms: O_20  and  C_21
REMARK    8  A    between atoms: C_21  and  C_22
REMARK    9  A    between atoms: C_22  and  O_23
REMARK                            x       y       z     vdW  Elec       q    Type
REMARK                         _______ _______ _______ _____ _____    ______ ____
ROOT
ATOM      1  N   UNL     1      32.963 -14.530 -20.720  0.00  0.00    +0.389 N 
ATOM      2  C   UNL     1      34.390 -17.054 -21.414  0.00  0.00    +0.066 C 
ATOM      3  C   UNL     1      35.001 -15.916 -20.558  0.00  0.00    -0.012 C 
ATOM      4  C   UNL     1      32.846 -16.925 -21.351  0.00  0.00    -0.012 C 
ATOM      5  C   UNL     1      34.420 -14.534 -20.878  0.00  0.00    -0.076 C 
ATOM      6  C   UNL     1      32.340 -15.503 -21.623  0.00  0.00    -0.076 C 
ATOM      7  H   UNL     1      32.746 -14.800 -19.762  0.00  0.00    -0.080 HD
ENDROOT
BRANCH   2   8
ATOM      8  C   UNL     1      34.828 -18.466 -20.986  0.00  0.00    -0.016 C 
ATOM      9  C   UNL     1      36.183 -18.765 -20.872  0.00  0.00    -0.004 C 
ATOM     10  C   UNL     1      33.867 -19.435 -20.713  0.00  0.00    -0.004 C 
ATOM     11  C   UNL     1      36.580 -20.045 -20.483  0.00  0.00    -0.000 C 
ATOM     12  C   UNL     1      34.264 -20.715 -20.324  0.00  0.00    -0.000 C 
ATOM     13  C   UNL     1      35.621 -21.020 -20.208  0.00  0.00    -0.000 C 
ENDBRANCH   2   8
BRANCH   2  15
ATOM     14  O   UNL     1      35.435 -15.823 -23.182  0.00  0.00    -0.296 OA
ATOM     15  C   UNL     1      34.855 -16.853 -22.842  0.00  0.00    +0.153 C 
BRANCH  15  16
ATOM     16  C   UNL     1      34.561 -17.988 -23.807  0.00  0.00    +0.065 C 
ATOM     17  C   UNL     1      34.506 -17.528 -25.252  0.00  0.00    +0.008 C 
ENDBRANCH  15  16
ENDBRANCH   2  15
BRANCH   1  18
ATOM     18  C   UNL     1      32.424 -13.191 -20.960  0.00  0.00    -0.045 C 
BRANCH  18  19
ATOM     19  C   UNL     1      32.129 -12.987 -22.437  0.00  0.00    +0.120 C 
BRANCH  19  20
ATOM     20  O   UNL     1      32.690 -11.747 -22.848  0.00  0.00    -0.353 OA
BRANCH  20  21
ATOM     21  C   UNL     1      33.673 -11.929 -23.857  0.00  0.00    +0.174 C 
BRANCH  21  22
ATOM     22  C   UNL     1      34.023 -10.580 -24.455  0.00  0.00    +0.169 C 
BRANCH  22  23
ATOM     23  O   UNL     1      35.356 -10.241 -24.088  0.00  0.00    -0.379 OA
ATOM     24  H   UNL     1      35.350  -9.412 -23.584  0.00  0.00    +0.211 HD
ENDBRANCH  22  23
ENDBRANCH  21  22
ENDBRANCH  20  21
ENDBRANCH  19  20
ENDBRANCH  18  19
ENDBRANCH   1  18
TORSDOF 9
ENDMDL
MODEL 3
REMARK VINA RESULT:      -7.6      1.342      2.811
REMARK  Name = 208903
REMARK  9 active torsions:
REMARK  status: ('A' for Active; 'I' for Inactive)
REMARK    1  A    between atoms: N_1  and  C_18
REMARK    2  A    between atoms: C_2  and  C_8
REMARK    3  A    between atoms: C_2  and  C_15
REMARK    4  A    between atoms: C_15  and  C_16
REMARK    5  A    between atoms: C_18  and  C_19
REMARK    6  A    between atoms: C_19  and  O_20
REMARK    7  A    between atoms: O_20  and  C_21
REMARK    8  A    between atoms: C_21  and  C_22
REMARK    9  A    between atoms: C_22  and  O_23
REMARK                            x       y       z     vdW  Elec       q    Type
REMARK                         _______ _______ _______ _____ _____    ______ ____
ROOT
ATOM      1  N   UNL     1      35.959 -20.310 -20.899  0.00  0.00    +0.389 N 
ATOM      2  C   UNL     1      34.849 -17.841 -22.150  0.00  0.00    +0.066 C 
ATOM      3  C   UNL     1      36.362 -18.162 -22.049  0.00  0.00    -0.012 C 
ATOM      4  C   UNL     1      34.068 -19.176 -22.034  0.00  0.00    -0.012 C 
ATOM      5  C   UNL     1      36.717 -19.056 -20.856  0.00  0.00    -0.076 C 
ATOM      6  C   UNL     1      34.517 -20.047 -20.853  0.00  0.00    -0.076 C 
ATOM      7  H   UNL     1      36.169 -20.780 -21.778  0.00  0.00    -0.080 HD
ENDROOT
BRANCH   2   8
ATOM      8  C   UNL     1      34.449 -17.097 -23.435  0.00  0.00    -0.016 C 
ATOM      9  C   UNL     1      34.195 -15.729 -23.392  0.00  0.00    -0.004 C 
ATOM     10  C   UNL     1      34.346 -17.795 -24.635  0.00  0.00    -0.004 C 
ATOM     11  C   UNL     1      33.832 -15.053 -24.558  0.00  0.00    -0.000 C 
ATOM     12  C   UNL     1      33.984 -17.120 -25.802  0.00  0.00    -0.000 C 
ATOM     13  C   UNL     1      33.728 -15.749 -25.763  0.00  0.00    -0.000 C 
ENDBRANCH   2   8
BRANCH   2  15
ATOM     14  O   UNL     1      35.362 -16.489 -20.242  0.00  0.00    -0.296 OA
ATOM     15  C   UNL     1      34.492 -16.946 -20.981  0.00  0.00    +0.153 C 
BRANCH  15  16
ATOM     16  C   UNL     1      33.014 -16.656 -20.789  0.00  0.00    +0.065 C 
ATOM     17  C   UNL     1      32.752 -15.236 -20.324  0.00  0.00    +0.008 C 
ENDBRANCH  15  16
ENDBRANCH   2  15
BRANCH   1  18
ATOM     18  C   UNL     1      36.354 -21.187 -19.796  0.00  0.00    -0.045 C 
BRANCH  18  19
ATOM     19  C   UNL     1      35.132 -21.817 -19.147  0.00  0.00    +0.120 C 
BRANCH  19  20
ATOM     20  O   UNL     1      35.526 -22.423 -17.923  0.00  0.00    -0.353 OA
BRANCH  20  21
ATOM     21  C   UNL     1      36.775 -21.917 -17.470  0.00  0.00    +0.174 C 
BRANCH  21  22
ATOM     22  C   UNL     1      37.023 -22.405 -16.056  0.00  0.00    +0.169 C 
BRANCH  22  23
ATOM     23  O   UNL     1      38.274 -23.083 -16.012  0.00  0.00    -0.379 OA
ATOM     24  H   UNL     1      38.677 -22.959 -15.138  0.00  0.00    +0.211 HD
ENDBRANCH  22  23
ENDBRANCH  21  22
ENDBRANCH  20  21
ENDBRANCH  19  20
ENDBRANCH  18  19
ENDBRANCH   1  18
TORSDOF 9
ENDMDL
MODEL 4
REMARK VINA RESULT:      -7.4      6.981     10.366
REMARK  Name = 208903
REMARK  9 active torsions:
REMARK  status: ('A' for Active; 'I' for Inactive)
REMARK    1  A    between atoms: N_1  and  C_18
REMARK    2  A    between atoms: C_2  and  C_8
REMARK    3  A    between atoms: C_2  and  C_15
REMARK    4  A    between atoms: C_15  and  C_16
REMARK    5  A    between atoms: C_18  and  C_19
REMARK    6  A    between atoms: C_19  and  O_20
REMARK    7  A    between atoms: O_20  and  C_21
REMARK    8  A    between atoms: C_21  and  C_22
REMARK    9  A    between atoms: C_22  and  O_23
REMARK                            x       y       z     vdW  Elec       q    Type
REMARK                         _______ _______ _______ _____ _____    ______ ____
ROOT
ATOM      1  N   UNL     1      31.382 -10.182 -20.776  0.00  0.00    +0.389 N 
ATOM      2  C   UNL     1      32.228  -7.914 -22.518  0.00  0.00    +0.066 C 
ATOM      3  C   UNL     1      31.276  -9.051 -22.970  0.00  0.00    -0.012 C 
ATOM      4  C   UNL     1      32.191  -7.846 -20.970  0.00  0.00    -0.012 C 
ATOM      5  C   UNL     1      31.507 -10.371 -22.225  0.00  0.00    -0.076 C 
ATOM      6  C   UNL     1      32.368  -9.211 -20.293  0.00  0.00    -0.076 C 
ATOM      7  H   UNL     1      30.452  -9.815 -20.582  0.00  0.00    -0.080 HD
ENDROOT
BRANCH   2   8
ATOM      8  C   UNL     1      31.895  -6.540 -23.124  0.00  0.00    -0.016 C 
ATOM      9  C   UNL     1      31.508  -5.493 -22.292  0.00  0.00    -0.004 C 
ATOM     10  C   UNL     1      31.984  -6.350 -24.500  0.00  0.00    -0.004 C 
ATOM     11  C   UNL     1      31.205  -4.246 -22.840  0.00  0.00    -0.000 C 
ATOM     12  C   UNL     1      31.682  -5.103 -25.049  0.00  0.00    -0.000 C 
ATOM     13  C   UNL     1      31.293  -4.051 -24.219  0.00  0.00    -0.000 C 
ENDBRANCH   2   8
BRANCH   2  15
ATOM     14  O   UNL     1      34.611  -7.682 -22.543  0.00  0.00    -0.296 OA
ATOM     15  C   UNL     1      33.626  -8.280 -22.973  0.00  0.00    +0.153 C 
BRANCH  15  16
ATOM     16  C   UNL     1      33.726  -9.414 -23.978  0.00  0.00    +0.065 C 
ATOM     17  C   UNL     1      35.127  -9.575 -24.540  0.00  0.00    +0.008 C 
ENDBRANCH  15  16
ENDBRANCH   2  15
BRANCH   1  18
ATOM     18  C   UNL     1      31.535 -11.458 -20.077  0.00  0.00    -0.045 C 
BRANCH  18  19
ATOM     19  C   UNL     1      31.930 -12.559 -21.048  0.00  0.00    +0.120 C 
BRANCH  19  20
ATOM     20  O   UNL     1      32.432 -13.663 -20.306  0.00  0.00    -0.353 OA
BRANCH  20  21
ATOM     21  C   UNL     1      32.736 -14.763 -21.152  0.00  0.00    +0.174 C 
BRANCH  21  22
ATOM     22  C   UNL     1      34.240 -14.850 -21.331  0.00  0.00    +0.169 C 
BRANCH  22  23
ATOM     23  O   UNL     1      34.818 -15.383 -20.145  0.00  0.00    -0.379 OA
ATOM     24  H   UNL     1      35.733 -15.069 -20.063  0.00  0.00    +0.211 HD
ENDBRANCH  22  23
ENDBRANCH  21  22
ENDBRANCH  20  21
ENDBRANCH  19  20
ENDBRANCH  18  19
ENDBRANCH   1  18
TORSDOF 9
ENDMDL
MODEL 5
REMARK VINA RESULT:      -7.4      1.755      3.400
REMARK  Name = 208903
REMARK  9 active torsions:
REMARK  status: ('A' for Active; 'I' for Inactive)
REMARK    1  A    between atoms: N_1  and  C_18
REMARK    2  A    between atoms: C_2  and  C_8
REMARK    3  A    between atoms: C_2  and  C_15
REMARK    4  A    between atoms: C_15  and  C_16
REMARK    5  A    between atoms: C_18  and  C_19
REMARK    6  A    between atoms: C_19  and  O_20
REMARK    7  A    between atoms: O_20  and  C_21
REMARK    8  A    between atoms: C_21  and  C_22
REMARK    9  A    between atoms: C_22  and  O_23
REMARK                            x       y       z     vdW  Elec       q    Type
REMARK                         _______ _______ _______ _____ _____    ______ ____
ROOT
ATOM      1  N   UNL     1      35.886 -20.418 -20.599  0.00  0.00    +0.389 N 
ATOM      2  C   UNL     1      34.872 -17.994 -22.007  0.00  0.00    +0.066 C 
ATOM      3  C   UNL     1      36.373 -18.350 -21.859  0.00  0.00    -0.012 C 
ATOM      4  C   UNL     1      34.050 -19.297 -21.832  0.00  0.00    -0.012 C 
ATOM      5  C   UNL     1      36.680 -19.186 -20.611  0.00  0.00    -0.076 C 
ATOM      6  C   UNL     1      34.453 -20.112 -20.596  0.00  0.00    -0.076 C 
ATOM      7  H   UNL     1      36.099 -20.943 -21.446  0.00  0.00    -0.080 HD
ENDROOT
BRANCH   2   8
ATOM      8  C   UNL     1      34.517 -17.312 -23.340  0.00  0.00    -0.016 C 
ATOM      9  C   UNL     1      34.364 -18.080 -24.491  0.00  0.00    -0.004 C 
ATOM     10  C   UNL     1      34.350 -15.931 -23.388  0.00  0.00    -0.004 C 
ATOM     11  C   UNL     1      34.043 -17.462 -25.700  0.00  0.00    -0.000 C 
ATOM     12  C   UNL     1      34.028 -15.312 -24.596  0.00  0.00    -0.000 C 
ATOM     13  C   UNL     1      33.874 -16.078 -25.752  0.00  0.00    -0.000 C 
ENDBRANCH   2   8
BRANCH   2  15
ATOM     14  O   UNL     1      35.392 -16.533 -20.183  0.00  0.00    -0.296 OA
ATOM     15  C   UNL     1      34.520 -17.024 -20.897  0.00  0.00    +0.153 C 
BRANCH  15  16
ATOM     16  C   UNL     1      33.045 -16.706 -20.730  0.00  0.00    +0.065 C 
ATOM     17  C   UNL     1      32.797 -15.258 -20.350  0.00  0.00    +0.008 C 
ENDBRANCH  15  16
ENDBRANCH   2  15
BRANCH   1  18
ATOM     18  C   UNL     1      36.235 -21.243 -19.442  0.00  0.00    -0.045 C 
BRANCH  18  19
ATOM     19  C   UNL     1      35.045 -22.079 -18.999  0.00  0.00    +0.120 C 
BRANCH  19  20
ATOM     20  O   UNL     1      35.309 -22.599 -17.703  0.00  0.00    -0.353 OA
BRANCH  20  21
ATOM     21  C   UNL     1      34.122 -23.063 -17.076  0.00  0.00    +0.174 C 
BRANCH  21  22
ATOM     22  C   UNL     1      32.945 -22.817 -18.001  0.00  0.00    +0.169 C 
BRANCH  22  23
ATOM     23  O   UNL     1      31.770 -22.637 -17.219  0.00  0.00    -0.379 OA
ATOM     24  H   UNL     1      31.771 -23.270 -16.485  0.00  0.00    +0.211 HD
ENDBRANCH  22  23
ENDBRANCH  21  22
ENDBRANCH  20  21
ENDBRANCH  19  20
ENDBRANCH  18  19
ENDBRANCH   1  18
TORSDOF 9
ENDMDL
MODEL 6
REMARK VINA RESULT:      -7.3     10.163     13.721
REMARK  Name = 208903
REMARK  9 active torsions:
REMARK  status: ('A' for Active; 'I' for Inactive)
REMARK    1  A    between atoms: N_1  and  C_18
REMARK    2  A    between atoms: C_2  and  C_8
REMARK    3  A    between atoms: C_2  and  C_15
REMARK    4  A    between atoms: C_15  and  C_16
REMARK    5  A    between atoms: C_18  and  C_19
REMARK    6  A    between atoms: C_19  and  O_20
REMARK    7  A    between atoms: O_20  and  C_21
REMARK    8  A    between atoms: C_21  and  C_22
REMARK    9  A    between atoms: C_22  and  O_23
REMARK                            x       y       z     vdW  Elec       q    Type
REMARK                         _______ _______ _______ _____ _____    ______ ____
ROOT
ATOM      1  N   UNL     1      30.863  -5.858 -23.838  0.00  0.00    +0.389 N 
ATOM      2  C   UNL     1      32.044  -8.178 -22.382  0.00  0.00    +0.066 C 
ATOM      3  C   UNL     1      31.926  -6.749 -21.793  0.00  0.00    -0.012 C 
ATOM      4  C   UNL     1      31.001  -8.314 -23.522  0.00  0.00    -0.012 C 
ATOM      5  C   UNL     1      31.935  -5.648 -22.860  0.00  0.00    -0.076 C 
ATOM      6  C   UNL     1      31.027  -7.147 -24.517  0.00  0.00    -0.076 C 
ATOM      7  H   UNL     1      29.975  -5.871 -23.340  0.00  0.00    -0.080 HD
ENDROOT
BRANCH   2   8
ATOM      8  C   UNL     1      31.857  -9.300 -21.347  0.00  0.00    -0.016 C 
ATOM      9  C   UNL     1      31.318 -10.522 -21.741  0.00  0.00    -0.004 C 
ATOM     10  C   UNL     1      32.229  -9.089 -20.023  0.00  0.00    -0.004 C 
ATOM     11  C   UNL     1      31.148 -11.541 -20.803  0.00  0.00    -0.000 C 
ATOM     12  C   UNL     1      32.060 -10.108 -19.084  0.00  0.00    -0.000 C 
ATOM     13  C   UNL     1      31.520 -11.334 -19.475  0.00  0.00    -0.000 C 
ENDBRANCH   2   8
BRANCH   2  15
ATOM     14  O   UNL     1      34.299  -7.465 -22.758  0.00  0.00    -0.296 OA
ATOM     15  C   UNL     1      33.439  -8.322 -22.956  0.00  0.00    +0.153 C 
BRANCH  15  16
ATOM     16  C   UNL     1      33.697  -9.572 -23.778  0.00  0.00    +0.065 C 
ATOM     17  C   UNL     1      35.034  -9.536 -24.494  0.00  0.00    +0.008 C 
ENDBRANCH  15  16
ENDBRANCH   2  15
BRANCH   1  18
ATOM     18  C   UNL     1      30.835  -4.767 -24.812  0.00  0.00    -0.045 C 
BRANCH  18  19
ATOM     19  C   UNL     1      31.818  -3.675 -24.423  0.00  0.00    +0.120 C 
BRANCH  19  20
ATOM     20  O   UNL     1      32.670  -3.412 -25.531  0.00  0.00    -0.353 OA
BRANCH  20  21
ATOM     21  C   UNL     1      32.618  -4.462 -26.487  0.00  0.00    +0.174 C 
BRANCH  21  22
ATOM     22  C   UNL     1      33.998  -5.076 -26.623  0.00  0.00    +0.169 C 
BRANCH  22  23
ATOM     23  O   UNL     1      34.209  -5.986 -25.549  0.00  0.00    -0.379 OA
ATOM     24  H   UNL     1      34.781  -5.572 -24.883  0.00  0.00    +0.211 HD
ENDBRANCH  22  23
ENDBRANCH  21  22
ENDBRANCH  20  21
ENDBRANCH  19  20
ENDBRANCH  18  19
ENDBRANCH   1  18
TORSDOF 9
ENDMDL
MODEL 7
REMARK VINA RESULT:      -7.2      6.720      8.667
REMARK  Name = 208903
REMARK  9 active torsions:
REMARK  status: ('A' for Active; 'I' for Inactive)
REMARK    1  A    between atoms: N_1  and  C_18
REMARK    2  A    between atoms: C_2  and  C_8
REMARK    3  A    between atoms: C_2  and  C_15
REMARK    4  A    between atoms: C_15  and  C_16
REMARK    5  A    between atoms: C_18  and  C_19
REMARK    6  A    between atoms: C_19  and  O_20
REMARK    7  A    between atoms: O_20  and  C_21
REMARK    8  A    between atoms: C_21  and  C_22
REMARK    9  A    between atoms: C_22  and  O_23
REMARK                            x       y       z     vdW  Elec       q    Type
REMARK                         _______ _______ _______ _____ _____    ______ ____
ROOT
ATOM      1  N   UNL     1      36.235 -25.682 -13.362  0.00  0.00    +0.389 N 
ATOM      2  C   UNL     1      34.416 -23.806 -14.799  0.00  0.00    +0.066 C 
ATOM      3  C   UNL     1      34.912 -25.155 -15.381  0.00  0.00    -0.012 C 
ATOM      4  C   UNL     1      34.539 -23.877 -13.255  0.00  0.00    -0.012 C 
ATOM      5  C   UNL     1      36.271 -25.595 -14.825  0.00  0.00    -0.076 C 
ATOM      6  C   UNL     1      35.904 -24.382 -12.772  0.00  0.00    -0.076 C 
ATOM      7  H   UNL     1      35.506 -26.345 -13.101  0.00  0.00    -0.080 HD
ENDROOT
BRANCH   2   8
ATOM      8  C   UNL     1      32.979 -23.438 -15.206  0.00  0.00    -0.016 C 
ATOM      9  C   UNL     1      32.648 -23.327 -16.553  0.00  0.00    -0.004 C 
ATOM     10  C   UNL     1      32.016 -23.219 -14.224  0.00  0.00    -0.004 C 
ATOM     11  C   UNL     1      31.345 -22.993 -16.924  0.00  0.00    -0.000 C 
ATOM     12  C   UNL     1      30.713 -22.885 -14.594  0.00  0.00    -0.000 C 
ATOM     13  C   UNL     1      30.377 -22.773 -15.943  0.00  0.00    -0.000 C 
ENDBRANCH   2   8
BRANCH   2  15
ATOM     14  O   UNL     1      35.831 -21.888 -14.571  0.00  0.00    -0.296 OA
ATOM     15  C   UNL     1      35.327 -22.717 -15.327  0.00  0.00    +0.153 C 
BRANCH  15  16
ATOM     16  C   UNL     1      35.570 -22.719 -16.826  0.00  0.00    +0.065 C 
ATOM     17  C   UNL     1      36.807 -21.932 -17.219  0.00  0.00    +0.008 C 
ENDBRANCH  15  16
ENDBRANCH   2  15
BRANCH   1  18
ATOM     18  C   UNL     1      37.514 -26.169 -12.845  0.00  0.00    -0.045 C 
BRANCH  18  19
ATOM     19  C   UNL     1      38.265 -25.055 -12.135  0.00  0.00    +0.120 C 
BRANCH  19  20
ATOM     20  O   UNL     1      39.302 -24.588 -12.987  0.00  0.00    -0.353 OA
BRANCH  20  21
ATOM     21  C   UNL     1      39.765 -25.614 -13.854  0.00  0.00    +0.174 C 
BRANCH  21  22
ATOM     22  C   UNL     1      40.106 -25.008 -15.202  0.00  0.00    +0.169 C 
BRANCH  22  23
ATOM     23  O   UNL     1      40.587 -26.033 -16.064  0.00  0.00    -0.379 OA
ATOM     24  H   UNL     1      39.847 -26.595 -16.340  0.00  0.00    +0.211 HD
ENDBRANCH  22  23
ENDBRANCH  21  22
ENDBRANCH  20  21
ENDBRANCH  19  20
ENDBRANCH  18  19
ENDBRANCH   1  18
TORSDOF 9
ENDMDL
MODEL 8
REMARK VINA RESULT:      -7.2     10.121     14.265
REMARK  Name = 208903
REMARK  9 active torsions:
REMARK  status: ('A' for Active; 'I' for Inactive)
REMARK    1  A    between atoms: N_1  and  C_18
REMARK    2  A    between atoms: C_2  and  C_8
REMARK    3  A    between atoms: C_2  and  C_15
REMARK    4  A    between atoms: C_15  and  C_16
REMARK    5  A    between atoms: C_18  and  C_19
REMARK    6  A    between atoms: C_19  and  O_20
REMARK    7  A    between atoms: O_20  and  C_21
REMARK    8  A    between atoms: C_21  and  C_22
REMARK    9  A    between atoms: C_22  and  O_23
REMARK                            x       y       z     vdW  Elec       q    Type
REMARK                         _______ _______ _______ _____ _____    ______ ____
ROOT
ATOM      1  N   UNL     1      30.875  -5.860 -23.772  0.00  0.00    +0.389 N 
ATOM      2  C   UNL     1      32.051  -8.189 -22.328  0.00  0.00    +0.066 C 
ATOM      3  C   UNL     1      31.952  -6.759 -21.739  0.00  0.00    -0.012 C 
ATOM      4  C   UNL     1      30.993  -8.316 -23.455  0.00  0.00    -0.012 C 
ATOM      5  C   UNL     1      31.960  -5.658 -22.806  0.00  0.00    -0.076 C 
ATOM      6  C   UNL     1      31.018  -7.150 -24.451  0.00  0.00    -0.076 C 
ATOM      7  H   UNL     1      29.992  -5.863 -23.263  0.00  0.00    -0.080 HD
ENDROOT
BRANCH   2   8
ATOM      8  C   UNL     1      31.865  -9.309 -21.290  0.00  0.00    -0.016 C 
ATOM      9  C   UNL     1      32.212  -9.085 -19.961  0.00  0.00    -0.004 C 
ATOM     10  C   UNL     1      31.350 -10.540 -21.685  0.00  0.00    -0.004 C 
ATOM     11  C   UNL     1      32.044 -10.101 -19.018  0.00  0.00    -0.000 C 
ATOM     12  C   UNL     1      31.181 -11.556 -20.744  0.00  0.00    -0.000 C 
ATOM     13  C   UNL     1      31.528 -11.336 -19.410  0.00  0.00    -0.000 C 
ENDBRANCH   2   8
BRANCH   2  15
ATOM     14  O   UNL     1      34.345  -7.573 -22.621  0.00  0.00    -0.296 OA
ATOM     15  C   UNL     1      33.437  -8.347 -22.918  0.00  0.00    +0.153 C 
BRANCH  15  16
ATOM     16  C   UNL     1      33.624  -9.503 -23.883  0.00  0.00    +0.065 C 
ATOM     17  C   UNL     1      35.038  -9.588 -24.428  0.00  0.00    +0.008 C 
ENDBRANCH  15  16
ENDBRANCH   2  15
BRANCH   1  18
ATOM     18  C   UNL     1      30.845  -4.769 -24.746  0.00  0.00    -0.045 C 
BRANCH  18  19
ATOM     19  C   UNL     1      31.945  -3.760 -24.456  0.00  0.00    +0.120 C 
BRANCH  19  20
ATOM     20  O   UNL     1      31.609  -2.527 -25.078  0.00  0.00    -0.353 OA
BRANCH  20  21
ATOM     21  C   UNL     1      30.679  -1.787 -24.299  0.00  0.00    +0.174 C 
BRANCH  21  22
ATOM     22  C   UNL     1      31.054  -1.909 -22.834  0.00  0.00    +0.169 C 
BRANCH  22  23
ATOM     23  O   UNL     1      29.890  -2.233 -22.082  0.00  0.00    -0.379 OA
ATOM     24  H   UNL     1      30.151  -2.649 -21.246  0.00  0.00    +0.211 HD
ENDBRANCH  22  23
ENDBRANCH  21  22
ENDBRANCH  20  21
ENDBRANCH  19  20
ENDBRANCH  18  19
ENDBRANCH   1  18
TORSDOF 9
ENDMDL
MODEL 9
REMARK VINA RESULT:      -7.0      3.101      7.617
REMARK  Name = 208903
REMARK  9 active torsions:
REMARK  status: ('A' for Active; 'I' for Inactive)
REMARK    1  A    between atoms: N_1  and  C_18
REMARK    2  A    between atoms: C_2  and  C_8
REMARK    3  A    between atoms: C_2  and  C_15
REMARK    4  A    between atoms: C_15  and  C_16
REMARK    5  A    between atoms: C_18  and  C_19
REMARK    6  A    between atoms: C_19  and  O_20
REMARK    7  A    between atoms: O_20  and  C_21
REMARK    8  A    between atoms: C_21  and  C_22
REMARK    9  A    between atoms: C_22  and  O_23
REMARK                            x       y       z     vdW  Elec       q    Type
REMARK                         _______ _______ _______ _____ _____    ______ ____
ROOT
ATOM      1  N   UNL     1      35.284 -17.785 -24.357  0.00  0.00    +0.389 N 
ATOM      2  C   UNL     1      34.800 -18.960 -21.660  0.00  0.00    +0.066 C 
ATOM      3  C   UNL     1      34.256 -19.560 -22.981  0.00  0.00    -0.012 C 
ATOM      4  C   UNL     1      36.019 -18.066 -22.006  0.00  0.00    -0.012 C 
ATOM      5  C   UNL     1      34.043 -18.515 -24.082  0.00  0.00    -0.076 C 
ATOM      6  C   UNL     1      35.753 -17.088 -23.156  0.00  0.00    -0.076 C 
ATOM      7  H   UNL     1      35.996 -18.460 -24.633  0.00  0.00    -0.080 HD
ENDROOT
BRANCH   2   8
ATOM      8  C   UNL     1      35.189 -20.011 -20.606  0.00  0.00    -0.016 C 
ATOM      9  C   UNL     1      36.513 -20.119 -20.192  0.00  0.00    -0.004 C 
ATOM     10  C   UNL     1      34.213 -20.849 -20.072  0.00  0.00    -0.004 C 
ATOM     11  C   UNL     1      36.866 -21.073 -19.236  0.00  0.00    -0.000 C 
ATOM     12  C   UNL     1      34.566 -21.803 -19.116  0.00  0.00    -0.000 C 
ATOM     13  C   UNL     1      35.892 -21.914 -18.698  0.00  0.00    -0.000 C 
ENDBRANCH   2   8
BRANCH   2  15
ATOM     14  O   UNL     1      32.575 -18.557 -20.874  0.00  0.00    -0.296 OA
ATOM     15  C   UNL     1      33.703 -18.104 -21.059  0.00  0.00    +0.153 C 
BRANCH  15  16
ATOM     16  C   UNL     1      34.085 -16.677 -20.709  0.00  0.00    +0.065 C 
ATOM     17  C   UNL     1      32.980 -15.684 -21.016  0.00  0.00    +0.008 C 
ENDBRANCH  15  16
ENDBRANCH   2  15
BRANCH   1  18
ATOM     18  C   UNL     1      35.091 -16.839 -25.456  0.00  0.00    -0.045 C 
BRANCH  18  19
ATOM     19  C   UNL     1      33.789 -16.073 -25.283  0.00  0.00    +0.120 C 
BRANCH  19  20
ATOM     20  O   UNL     1      33.451 -15.461 -26.520  0.00  0.00    -0.353 OA
BRANCH  20  21
ATOM     21  C   UNL     1      33.052 -14.109 -26.341  0.00  0.00    +0.174 C 
BRANCH  21  22
ATOM     22  C   UNL     1      33.032 -13.792 -24.858  0.00  0.00    +0.169 C 
BRANCH  22  23
ATOM     23  O   UNL     1      33.752 -12.585 -24.631  0.00  0.00    -0.379 OA
ATOM     24  H   UNL     1      34.122 -12.594 -23.734  0.00  0.00    +0.211 HD
ENDBRANCH  22  23
ENDBRANCH  21  22
ENDBRANCH  20  21
ENDBRANCH  19  20
ENDBRANCH  18  19
ENDBRANCH   1  18
TORSDOF 9
ENDMDL
