MODEL 1
REMARK VINA RESULT:      -5.8      0.000      0.000
REMARK  Name = 668
REMARK  7 active torsions:
REMARK  status: ('A' for Active; 'I' for Inactive)
REMARK    1  A    between atoms: O_1  and  P_2
REMARK    2  A    between atoms: O_1  and  C_8
REMARK    3  A    between atoms: P_2  and  O_4
REMARK    4  A    between atoms: P_2  and  O_6
REMARK    5  A    between atoms: C_8  and  C_10
REMARK    6  A    between atoms: C_10  and  C_11
REMARK    7  A    between atoms: C_11  and  O_12
REMARK                            x       y       z     vdW  Elec       q    Type
REMARK                         _______ _______ _______ _____ _____    ______ ____
ROOT
ATOM      1  O   UNL     1      38.912 -26.390 -14.050  0.00  0.00    -0.265 OA
ENDROOT
BRANCH   1   2
ATOM      2  P   UNL     1      40.376 -25.838 -14.477  0.00  0.00    +0.473 P 
ATOM      3  O   UNL     1      40.733 -24.494 -13.911  0.00  0.00    -0.227 OA
BRANCH   2   4
ATOM      4  O   UNL     1      40.363 -25.927 -16.092  0.00  0.00    -0.303 OA
ATOM      5  H   UNL     1      39.685 -25.327 -16.443  0.00  0.00    +0.222 HD
ENDBRANCH   2   4
BRANCH   2   6
ATOM      6  O   UNL     1      41.362 -27.045 -14.046  0.00  0.00    -0.303 OA
ATOM      7  H   UNL     1      41.669 -26.902 -13.137  0.00  0.00    +0.222 HD
ENDBRANCH   2   6
ENDBRANCH   1   2
BRANCH   1   8
ATOM      8  C   UNL     1      37.853 -25.466 -13.914  0.00  0.00    +0.220 C 
BRANCH   8  10
ATOM      9  O   UNL     1      37.101 -26.280 -11.779  0.00  0.00    -0.291 OA
ATOM     10  C   UNL     1      37.452 -25.318 -12.461  0.00  0.00    +0.210 C 
BRANCH  10  11
ATOM     11  C   UNL     1      37.510 -23.912 -11.900  0.00  0.00    +0.205 C 
BRANCH  11  12
ATOM     12  O   UNL     1      38.848 -23.490 -11.743  0.00  0.00    -0.375 OA
ATOM     13  H   UNL     1      38.863 -22.594 -11.374  0.00  0.00    +0.211 HD
ENDBRANCH  11  12
ENDBRANCH  10  11
ENDBRANCH   8  10
ENDBRANCH   1   8
TORSDOF 7
ENDMDL
MODEL 2
REMARK VINA RESULT:      -5.8      1.826      2.378
REMARK  Name = 668
REMARK  7 active torsions:
REMARK  status: ('A' for Active; 'I' for Inactive)
REMARK    1  A    between atoms: O_1  and  P_2
REMARK    2  A    between atoms: O_1  and  C_8
REMARK    3  A    between atoms: P_2  and  O_4
REMARK    4  A    between atoms: P_2  and  O_6
REMARK    5  A    between atoms: C_8  and  C_10
REMARK    6  A    between atoms: C_10  and  C_11
REMARK    7  A    between atoms: C_11  and  O_12
REMARK                            x       y       z     vdW  Elec       q    Type
REMARK                         _______ _______ _______ _____ _____    ______ ____
ROOT
ATOM      1  O   UNL     1      38.833 -26.931 -14.433  0.00  0.00    -0.265 OA
ENDROOT
BRANCH   1   2
ATOM      2  P   UNL     1      40.092 -25.911 -14.515  0.00  0.00    +0.473 P 
ATOM      3  O   UNL     1      39.929 -24.644 -13.726  0.00  0.00    -0.227 OA
BRANCH   2   4
ATOM      4  O   UNL     1      40.321 -25.713 -16.103  0.00  0.00    -0.303 OA
ATOM      5  H   UNL     1      41.257 -25.522 -16.274  0.00  0.00    +0.222 HD
ENDBRANCH   2   4
BRANCH   2   6
ATOM      6  O   UNL     1      41.341 -26.836 -14.072  0.00  0.00    -0.303 OA
ATOM      7  H   UNL     1      41.575 -26.644 -13.150  0.00  0.00    +0.222 HD
ENDBRANCH   2   6
ENDBRANCH   1   2
BRANCH   1   8
ATOM      8  C   UNL     1      37.602 -26.449 -13.937  0.00  0.00    +0.220 C 
BRANCH   8  10
ATOM      9  O   UNL     1      36.199 -26.675 -15.877  0.00  0.00    -0.291 OA
ATOM     10  C   UNL     1      36.737 -25.925 -15.064  0.00  0.00    +0.210 C 
BRANCH  10  11
ATOM     11  C   UNL     1      36.576 -24.420 -15.129  0.00  0.00    +0.205 C 
BRANCH  11  12
ATOM     12  O   UNL     1      37.710 -23.820 -15.717  0.00  0.00    -0.375 OA
ATOM     13  H   UNL     1      38.244 -24.501 -16.156  0.00  0.00    +0.211 HD
ENDBRANCH  11  12
ENDBRANCH  10  11
ENDBRANCH   8  10
ENDBRANCH   1   8
TORSDOF 7
ENDMDL
MODEL 3
REMARK VINA RESULT:      -5.7      2.776      4.902
REMARK  Name = 668
REMARK  7 active torsions:
REMARK  status: ('A' for Active; 'I' for Inactive)
REMARK    1  A    between atoms: O_1  and  P_2
REMARK    2  A    between atoms: O_1  and  C_8
REMARK    3  A    between atoms: P_2  and  O_4
REMARK    4  A    between atoms: P_2  and  O_6
REMARK    5  A    between atoms: C_8  and  C_10
REMARK    6  A    between atoms: C_10  and  C_11
REMARK    7  A    between atoms: C_11  and  O_12
REMARK                            x       y       z     vdW  Elec       q    Type
REMARK                         _______ _______ _______ _____ _____    ______ ____
ROOT
ATOM      1  O   UNL     1      36.442 -25.570 -11.867  0.00  0.00    -0.265 OA
ENDROOT
BRANCH   1   2
ATOM      2  P   UNL     1      36.064 -24.153 -11.173  0.00  0.00    +0.473 P 
ATOM      3  O   UNL     1      37.208 -23.191 -11.040  0.00  0.00    -0.227 OA
BRANCH   2   4
ATOM      4  O   UNL     1      35.358 -24.585  -9.784  0.00  0.00    -0.303 OA
ATOM      5  H   UNL     1      36.027 -24.937  -9.176  0.00  0.00    +0.222 HD
ENDBRANCH   2   4
BRANCH   2   6
ATOM      6  O   UNL     1      34.828 -23.625 -12.071  0.00  0.00    -0.303 OA
ATOM      7  H   UNL     1      34.241 -24.368 -12.284  0.00  0.00    +0.222 HD
ENDBRANCH   2   6
ENDBRANCH   1   2
BRANCH   1   8
ATOM      8  C   UNL     1      37.691 -25.695 -12.514  0.00  0.00    +0.220 C 
BRANCH   8  10
ATOM      9  O   UNL     1      38.065 -27.115 -14.419  0.00  0.00    -0.291 OA
ATOM     10  C   UNL     1      37.509 -26.120 -13.957  0.00  0.00    +0.210 C 
BRANCH  10  11
ATOM     11  C   UNL     1      36.601 -25.243 -14.794  0.00  0.00    +0.205 C 
BRANCH  11  12
ATOM     12  O   UNL     1      35.245 -25.504 -14.502  0.00  0.00    -0.375 OA
ATOM     13  H   UNL     1      34.823 -24.694 -14.177  0.00  0.00    +0.211 HD
ENDBRANCH  11  12
ENDBRANCH  10  11
ENDBRANCH   8  10
ENDBRANCH   1   8
TORSDOF 7
ENDMDL
MODEL 4
REMARK VINA RESULT:      -5.5      2.765      4.807
REMARK  Name = 668
REMARK  7 active torsions:
REMARK  status: ('A' for Active; 'I' for Inactive)
REMARK    1  A    between atoms: O_1  and  P_2
REMARK    2  A    between atoms: O_1  and  C_8
REMARK    3  A    between atoms: P_2  and  O_4
REMARK    4  A    between atoms: P_2  and  O_6
REMARK    5  A    between atoms: C_8  and  C_10
REMARK    6  A    between atoms: C_10  and  C_11
REMARK    7  A    between atoms: C_11  and  O_12
REMARK                            x       y       z     vdW  Elec       q    Type
REMARK                         _______ _______ _______ _____ _____    ______ ____
ROOT
ATOM      1  O   UNL     1      36.452 -25.626 -11.846  0.00  0.00    -0.265 OA
ENDROOT
BRANCH   1   2
ATOM      2  P   UNL     1      35.940 -24.301 -11.063  0.00  0.00    +0.473 P 
ATOM      3  O   UNL     1      35.369 -24.556  -9.699  0.00  0.00    -0.227 OA
BRANCH   2   4
ATOM      4  O   UNL     1      34.932 -23.600 -12.116  0.00  0.00    -0.303 OA
ATOM      5  H   UNL     1      35.383 -22.859 -12.552  0.00  0.00    +0.222 HD
ENDBRANCH   2   4
BRANCH   2   6
ATOM      6  O   UNL     1      37.237 -23.336 -11.092  0.00  0.00    -0.303 OA
ATOM      7  H   UNL     1      37.032 -22.533 -11.596  0.00  0.00    +0.222 HD
ENDBRANCH   2   6
ENDBRANCH   1   2
BRANCH   1   8
ATOM      8  C   UNL     1      37.680 -25.571 -12.541  0.00  0.00    +0.220 C 
BRANCH   8  10
ATOM      9  O   UNL     1      38.098 -27.063 -14.380  0.00  0.00    -0.291 OA
ATOM     10  C   UNL     1      37.515 -26.064 -13.964  0.00  0.00    +0.210 C 
BRANCH  10  11
ATOM     11  C   UNL     1      36.588 -25.248 -14.842  0.00  0.00    +0.205 C 
BRANCH  11  12
ATOM     12  O   UNL     1      35.239 -25.498 -14.513  0.00  0.00    -0.375 OA
ATOM     13  H   UNL     1      34.758 -25.773 -15.309  0.00  0.00    +0.211 HD
ENDBRANCH  11  12
ENDBRANCH  10  11
ENDBRANCH   8  10
ENDBRANCH   1   8
TORSDOF 7
ENDMDL
MODEL 5
REMARK VINA RESULT:      -5.5      2.100      3.245
REMARK  Name = 668
REMARK  7 active torsions:
REMARK  status: ('A' for Active; 'I' for Inactive)
REMARK    1  A    between atoms: O_1  and  P_2
REMARK    2  A    between atoms: O_1  and  C_8
REMARK    3  A    between atoms: P_2  and  O_4
REMARK    4  A    between atoms: P_2  and  O_6
REMARK    5  A    between atoms: C_8  and  C_10
REMARK    6  A    between atoms: C_10  and  C_11
REMARK    7  A    between atoms: C_11  and  O_12
REMARK                            x       y       z     vdW  Elec       q    Type
REMARK                         _______ _______ _______ _____ _____    ______ ____
ROOT
ATOM      1  O   UNL     1      36.969 -25.799 -13.095  0.00  0.00    -0.265 OA
ENDROOT
BRANCH   1   2
ATOM      2  P   UNL     1      37.318 -26.289 -14.602  0.00  0.00    +0.473 P 
ATOM      3  O   UNL     1      38.591 -27.074 -14.731  0.00  0.00    -0.227 OA
BRANCH   2   4
ATOM      4  O   UNL     1      37.254 -24.926 -15.471  0.00  0.00    -0.303 OA
ATOM      5  H   UNL     1      37.829 -24.257 -15.066  0.00  0.00    +0.222 HD
ENDBRANCH   2   4
BRANCH   2   6
ATOM      6  O   UNL     1      35.980 -27.078 -15.049  0.00  0.00    -0.303 OA
ATOM      7  H   UNL     1      35.682 -26.747 -15.910  0.00  0.00    +0.222 HD
ENDBRANCH   2   6
ENDBRANCH   1   2
BRANCH   1   8
ATOM      8  C   UNL     1      37.853 -24.904 -12.452  0.00  0.00    +0.220 C 
BRANCH   8  10
ATOM      9  O   UNL     1      37.635 -22.845 -11.230  0.00  0.00    -0.291 OA
ATOM     10  C   UNL     1      37.084 -23.840 -11.697  0.00  0.00    +0.210 C 
BRANCH  10  11
ATOM     11  C   UNL     1      35.596 -24.079 -11.550  0.00  0.00    +0.205 C 
BRANCH  11  12
ATOM     12  O   UNL     1      35.344 -25.122 -10.632  0.00  0.00    -0.375 OA
ATOM     13  H   UNL     1      36.145 -25.294 -10.113  0.00  0.00    +0.211 HD
ENDBRANCH  11  12
ENDBRANCH  10  11
ENDBRANCH   8  10
ENDBRANCH   1   8
TORSDOF 7
ENDMDL
MODEL 6
REMARK VINA RESULT:      -5.5      1.503      2.641
REMARK  Name = 668
REMARK  7 active torsions:
REMARK  status: ('A' for Active; 'I' for Inactive)
REMARK    1  A    between atoms: O_1  and  P_2
REMARK    2  A    between atoms: O_1  and  C_8
REMARK    3  A    between atoms: P_2  and  O_4
REMARK    4  A    between atoms: P_2  and  O_6
REMARK    5  A    between atoms: C_8  and  C_10
REMARK    6  A    between atoms: C_10  and  C_11
REMARK    7  A    between atoms: C_11  and  O_12
REMARK                            x       y       z     vdW  Elec       q    Type
REMARK                         _______ _______ _______ _____ _____    ______ ____
ROOT
ATOM      1  O   UNL     1      39.111 -24.690 -12.973  0.00  0.00    -0.265 OA
ENDROOT
BRANCH   1   2
ATOM      2  P   UNL     1      39.500 -25.246 -14.446  0.00  0.00    +0.473 P 
ATOM      3  O   UNL     1      39.091 -26.665 -14.713  0.00  0.00    -0.227 OA
BRANCH   2   4
ATOM      4  O   UNL     1      41.085 -24.949 -14.561  0.00  0.00    -0.303 OA
ATOM      5  H   UNL     1      41.492 -25.594 -15.162  0.00  0.00    +0.222 HD
ENDBRANCH   2   4
BRANCH   2   6
ATOM      6  O   UNL     1      38.843 -24.148 -15.436  0.00  0.00    -0.303 OA
ATOM      7  H   UNL     1      39.092 -24.349 -16.352  0.00  0.00    +0.222 HD
ENDBRANCH   2   6
ENDBRANCH   1   2
BRANCH   1   8
ATOM      8  C   UNL     1      37.892 -25.103 -12.393  0.00  0.00    +0.220 C 
BRANCH   8  10
ATOM      9  O   UNL     1      37.802 -22.937 -11.351  0.00  0.00    -0.291 OA
ATOM     10  C   UNL     1      37.192 -23.937 -11.726  0.00  0.00    +0.210 C 
BRANCH  10  11
ATOM     11  C   UNL     1      35.694 -24.081 -11.547  0.00  0.00    +0.205 C 
BRANCH  11  12
ATOM     12  O   UNL     1      35.399 -25.054 -10.568  0.00  0.00    -0.375 OA
ATOM     13  H   UNL     1      34.733 -25.668 -10.914  0.00  0.00    +0.211 HD
ENDBRANCH  11  12
ENDBRANCH  10  11
ENDBRANCH   8  10
ENDBRANCH   1   8
TORSDOF 7
ENDMDL
MODEL 7
REMARK VINA RESULT:      -5.4      2.208      4.375
REMARK  Name = 668
REMARK  7 active torsions:
REMARK  status: ('A' for Active; 'I' for Inactive)
REMARK    1  A    between atoms: O_1  and  P_2
REMARK    2  A    between atoms: O_1  and  C_8
REMARK    3  A    between atoms: P_2  and  O_4
REMARK    4  A    between atoms: P_2  and  O_6
REMARK    5  A    between atoms: C_8  and  C_10
REMARK    6  A    between atoms: C_10  and  C_11
REMARK    7  A    between atoms: C_11  and  O_12
REMARK                            x       y       z     vdW  Elec       q    Type
REMARK                         _______ _______ _______ _____ _____    ______ ____
ROOT
ATOM      1  O   UNL     1      36.794 -24.817 -13.679  0.00  0.00    -0.265 OA
ENDROOT
BRANCH   1   2
ATOM      2  P   UNL     1      36.565 -25.051 -12.090  0.00  0.00    +0.473 P 
ATOM      3  O   UNL     1      37.333 -24.119 -11.198  0.00  0.00    -0.227 OA
BRANCH   2   4
ATOM      4  O   UNL     1      36.884 -26.623 -11.886  0.00  0.00    -0.303 OA
ATOM      5  H   UNL     1      37.018 -27.042 -12.751  0.00  0.00    +0.222 HD
ENDBRANCH   2   4
BRANCH   2   6
ATOM      6  O   UNL     1      34.958 -24.975 -11.937  0.00  0.00    -0.303 OA
ATOM      7  H   UNL     1      34.629 -25.806 -11.560  0.00  0.00    +0.222 HD
ENDBRANCH   2   6
ENDBRANCH   1   2
BRANCH   1   8
ATOM      8  C   UNL     1      38.105 -24.584 -14.147  0.00  0.00    +0.220 C 
BRANCH   8  10
ATOM      9  O   UNL     1      38.166 -26.945 -14.602  0.00  0.00    -0.291 OA
ATOM     10  C   UNL     1      38.788 -25.889 -14.504  0.00  0.00    +0.210 C 
BRANCH  10  11
ATOM     11  C   UNL     1      40.283 -25.811 -14.732  0.00  0.00    +0.205 C 
BRANCH  11  12
ATOM     12  O   UNL     1      40.592 -26.008 -16.096  0.00  0.00    -0.375 OA
ATOM     13  H   UNL     1      41.058 -25.229 -16.437  0.00  0.00    +0.211 HD
ENDBRANCH  11  12
ENDBRANCH  10  11
ENDBRANCH   8  10
ENDBRANCH   1   8
TORSDOF 7
ENDMDL
MODEL 8
REMARK VINA RESULT:      -5.3      2.143      3.334
REMARK  Name = 668
REMARK  7 active torsions:
REMARK  status: ('A' for Active; 'I' for Inactive)
REMARK    1  A    between atoms: O_1  and  P_2
REMARK    2  A    between atoms: O_1  and  C_8
REMARK    3  A    between atoms: P_2  and  O_4
REMARK    4  A    between atoms: P_2  and  O_6
REMARK    5  A    between atoms: C_8  and  C_10
REMARK    6  A    between atoms: C_10  and  C_11
REMARK    7  A    between atoms: C_11  and  O_12
REMARK                            x       y       z     vdW  Elec       q    Type
REMARK                         _______ _______ _______ _____ _____    ______ ____
ROOT
ATOM      1  O   UNL     1      36.433 -24.788 -14.131  0.00  0.00    -0.265 OA
ENDROOT
BRANCH   1   2
ATOM      2  P   UNL     1      36.978 -26.174 -14.774  0.00  0.00    +0.473 P 
ATOM      3  O   UNL     1      36.146 -26.717 -15.900  0.00  0.00    -0.227 OA
BRANCH   2   4
ATOM      4  O   UNL     1      37.135 -27.153 -13.496  0.00  0.00    -0.303 OA
ATOM      5  H   UNL     1      36.926 -26.662 -12.685  0.00  0.00    +0.222 HD
ENDBRANCH   2   4
BRANCH   2   6
ATOM      6  O   UNL     1      38.507 -25.821 -15.163  0.00  0.00    -0.303 OA
ATOM      7  H   UNL     1      38.975 -26.635 -15.407  0.00  0.00    +0.222 HD
ENDBRANCH   2   6
ENDBRANCH   1   2
BRANCH   1   8
ATOM      8  C   UNL     1      37.370 -23.795 -13.771  0.00  0.00    +0.220 C 
BRANCH   8  10
ATOM      9  O   UNL     1      38.332 -23.093 -11.682  0.00  0.00    -0.291 OA
ATOM     10  C   UNL     1      37.366 -23.571 -12.272  0.00  0.00    +0.210 C 
BRANCH  10  11
ATOM     11  C   UNL     1      36.098 -23.974 -11.548  0.00  0.00    +0.205 C 
BRANCH  11  12
ATOM     12  O   UNL     1      36.107 -25.355 -11.256  0.00  0.00    -0.375 OA
ATOM     13  H   UNL     1      35.953 -25.859 -12.070  0.00  0.00    +0.211 HD
ENDBRANCH  11  12
ENDBRANCH  10  11
ENDBRANCH   8  10
ENDBRANCH   1   8
TORSDOF 7
ENDMDL
MODEL 9
REMARK VINA RESULT:      -5.3      2.545      4.448
REMARK  Name = 668
REMARK  7 active torsions:
REMARK  status: ('A' for Active; 'I' for Inactive)
REMARK    1  A    between atoms: O_1  and  P_2
REMARK    2  A    between atoms: O_1  and  C_8
REMARK    3  A    between atoms: P_2  and  O_4
REMARK    4  A    between atoms: P_2  and  O_6
REMARK    5  A    between atoms: C_8  and  C_10
REMARK    6  A    between atoms: C_10  and  C_11
REMARK    7  A    between atoms: C_11  and  O_12
REMARK                            x       y       z     vdW  Elec       q    Type
REMARK                         _______ _______ _______ _____ _____    ______ ____
ROOT
ATOM      1  O   UNL     1      37.840 -24.539 -12.732  0.00  0.00    -0.265 OA
ENDROOT
BRANCH   1   2
ATOM      2  P   UNL     1      36.980 -23.530 -11.798  0.00  0.00    +0.473 P 
ATOM      3  O   UNL     1      36.656 -24.058 -10.431  0.00  0.00    -0.227 OA
BRANCH   2   4
ATOM      4  O   UNL     1      35.703 -23.154 -12.715  0.00  0.00    -0.303 OA
ATOM      5  H   UNL     1      35.365 -22.281 -12.458  0.00  0.00    +0.222 HD
ENDBRANCH   2   4
BRANCH   2   6
ATOM      6  O   UNL     1      37.862 -22.175 -11.814  0.00  0.00    -0.303 OA
ATOM      7  H   UNL     1      38.374 -22.132 -12.637  0.00  0.00    +0.222 HD
ENDBRANCH   2   6
ENDBRANCH   1   2
BRANCH   1   8
ATOM      8  C   UNL     1      37.462 -25.898 -12.788  0.00  0.00    +0.220 C 
BRANCH   8  10
ATOM      9  O   UNL     1      38.670 -26.991 -14.557  0.00  0.00    -0.291 OA
ATOM     10  C   UNL     1      37.631 -26.446 -14.190  0.00  0.00    +0.210 C 
BRANCH  10  11
ATOM     11  C   UNL     1      36.440 -26.279 -15.112  0.00  0.00    +0.205 C 
BRANCH  11  12
ATOM     12  O   UNL     1      35.445 -25.483 -14.505  0.00  0.00    -0.375 OA
ATOM     13  H   UNL     1      35.445 -25.640 -13.548  0.00  0.00    +0.211 HD
ENDBRANCH  11  12
ENDBRANCH  10  11
ENDBRANCH   8  10
ENDBRANCH   1   8
TORSDOF 7
ENDMDL
