MODEL 1
REMARK VINA RESULT:     -10.6      0.000      0.000
REMARK  Name = 72281
REMARK  5 active torsions:
REMARK  status: ('A' for Active; 'I' for Inactive)
REMARK    1  A    between atoms: C_3  and  C_12
REMARK    2  A    between atoms: C_8  and  O_22
REMARK    3  A    between atoms: C_11  and  O_24
REMARK    4  A    between atoms: C_15  and  O_20
REMARK    5  A    between atoms: C_17  and  O_18
REMARK                            x       y       z     vdW  Elec       q    Type
REMARK                         _______ _______ _______ _____ _____    ______ ____
ROOT
ATOM      1  O   UNL     1      34.300 -17.350 -21.694  0.00  0.00    -0.474 OA
ATOM      2  O   UNL     1      34.740 -18.003 -25.721  0.00  0.00    -0.291 OA
ATOM      3  C   UNL     1      34.161 -18.670 -22.244  0.00  0.00    +0.196 C 
ATOM      4  C   UNL     1      35.027 -18.838 -23.491  0.00  0.00    +0.117 C 
ATOM      5  C   UNL     1      34.120 -16.529 -23.984  0.00  0.00    +0.103 C 
ATOM      6  C   UNL     1      34.617 -17.814 -24.516  0.00  0.00    +0.183 C 
ATOM      7  C   UNL     1      34.011 -16.362 -22.599  0.00  0.00    +0.148 C 
ATOM      8  C   UNL     1      33.804 -15.478 -24.848  0.00  0.00    +0.142 C 
ATOM      9  C   UNL     1      33.616 -15.129 -22.078  0.00  0.00    +0.074 C 
ATOM     10  C   UNL     1      33.390 -14.254 -24.321  0.00  0.00    +0.073 C 
ATOM     11  C   UNL     1      33.301 -14.078 -22.940  0.00  0.00    +0.140 C 
ENDROOT
BRANCH   3  12
ATOM     12  C   UNL     1      34.539 -19.675 -21.176  0.00  0.00    +0.021 C 
ATOM     13  C   UNL     1      33.550 -20.431 -20.549  0.00  0.00    +0.039 C 
ATOM     14  C   UNL     1      35.877 -19.843 -20.820  0.00  0.00    +0.003 C 
ATOM     15  C   UNL     1      33.899 -21.356 -19.565  0.00  0.00    +0.168 C 
ATOM     16  C   UNL     1      36.226 -20.768 -19.836  0.00  0.00    +0.040 C 
ATOM     17  C   UNL     1      35.236 -21.525 -19.208  0.00  0.00    +0.172 C 
BRANCH  17  18
ATOM     18  O   UNL     1      35.589 -22.425 -18.249  0.00  0.00    -0.468 OA
ATOM     19  C   UNL     1      36.587 -22.019 -17.315  0.00  0.00    +0.253 C 
ENDBRANCH  17  18
BRANCH  15  20
ATOM     20  O   UNL     1      32.923 -22.091 -18.960  0.00  0.00    -0.503 OA
ATOM     21  H   UNL     1      32.075 -22.157 -19.353  0.00  0.00    +0.292 HD
ENDBRANCH  15  20
ENDBRANCH   3  12
BRANCH   8  22
ATOM     22  O   UNL     1      33.889 -15.589 -26.203  0.00  0.00    -0.505 OA
ATOM     23  H   UNL     1      34.717 -15.494 -26.631  0.00  0.00    +0.292 HD
ENDBRANCH   8  22
BRANCH  11  24
ATOM     24  O   UNL     1      32.905 -12.879 -22.432  0.00  0.00    -0.505 OA
ATOM     25  H   UNL     1      33.426 -12.450 -21.781  0.00  0.00    +0.292 HD
ENDBRANCH  11  24
TORSDOF 5
ENDMDL
MODEL 2
REMARK VINA RESULT:     -10.0      1.449      7.347
REMARK  Name = 72281
REMARK  5 active torsions:
REMARK  status: ('A' for Active; 'I' for Inactive)
REMARK    1  A    between atoms: C_3  and  C_12
REMARK    2  A    between atoms: C_8  and  O_22
REMARK    3  A    between atoms: C_11  and  O_24
REMARK    4  A    between atoms: C_15  and  O_20
REMARK    5  A    between atoms: C_17  and  O_18
REMARK                            x       y       z     vdW  Elec       q    Type
REMARK                         _______ _______ _______ _____ _____    ______ ____
ROOT
ATOM      1  O   UNL     1      33.927 -18.498 -21.609  0.00  0.00    -0.474 OA
ATOM      2  O   UNL     1      37.861 -19.468 -20.962  0.00  0.00    -0.291 OA
ATOM      3  C   UNL     1      34.948 -17.489 -21.648  0.00  0.00    +0.196 C 
ATOM      4  C   UNL     1      36.281 -18.074 -22.110  0.00  0.00    +0.117 C 
ATOM      5  C   UNL     1      35.584 -19.936 -20.545  0.00  0.00    +0.103 C 
ATOM      6  C   UNL     1      36.688 -19.175 -21.165  0.00  0.00    +0.183 C 
ATOM      7  C   UNL     1      34.264 -19.567 -20.821  0.00  0.00    +0.148 C 
ATOM      8  C   UNL     1      35.853 -21.037 -19.729  0.00  0.00    +0.142 C 
ATOM      9  C   UNL     1      33.210 -20.323 -20.305  0.00  0.00    +0.074 C 
ATOM     10  C   UNL     1      34.796 -21.777 -19.199  0.00  0.00    +0.073 C 
ATOM     11  C   UNL     1      33.477 -21.424 -19.490  0.00  0.00    +0.140 C 
ENDROOT
BRANCH   3  12
ATOM     12  C   UNL     1      34.489 -16.379 -22.572  0.00  0.00    +0.021 C 
ATOM     13  C   UNL     1      34.374 -16.615 -23.941  0.00  0.00    +0.039 C 
ATOM     14  C   UNL     1      34.185 -15.122 -22.052  0.00  0.00    +0.003 C 
ATOM     15  C   UNL     1      33.953 -15.593 -24.792  0.00  0.00    +0.168 C 
ATOM     16  C   UNL     1      33.763 -14.099 -22.903  0.00  0.00    +0.040 C 
ATOM     17  C   UNL     1      33.648 -14.335 -24.273  0.00  0.00    +0.172 C 
BRANCH  17  18
ATOM     18  O   UNL     1      33.235 -13.329 -25.093  0.00  0.00    -0.468 OA
ATOM     19  C   UNL     1      33.823 -12.046 -24.891  0.00  0.00    +0.253 C 
ENDBRANCH  17  18
BRANCH  15  20
ATOM     20  O   UNL     1      33.842 -15.837 -26.128  0.00  0.00    -0.503 OA
ATOM     21  H   UNL     1      33.499 -16.655 -26.428  0.00  0.00    +0.292 HD
ENDBRANCH  15  20
ENDBRANCH   3  12
BRANCH   8  22
ATOM     22  O   UNL     1      37.121 -21.436 -19.426  0.00  0.00    -0.505 OA
ATOM     23  H   UNL     1      37.652 -21.847 -20.079  0.00  0.00    +0.292 HD
ENDBRANCH   8  22
BRANCH  11  24
ATOM     24  O   UNL     1      32.450 -22.154 -18.977  0.00  0.00    -0.505 OA
ATOM     25  H   UNL     1      32.059 -22.837 -19.487  0.00  0.00    +0.292 HD
ENDBRANCH  11  24
TORSDOF 5
ENDMDL
MODEL 3
REMARK VINA RESULT:     -10.0      2.949      8.144
REMARK  Name = 72281
REMARK  5 active torsions:
REMARK  status: ('A' for Active; 'I' for Inactive)
REMARK    1  A    between atoms: C_3  and  C_12
REMARK    2  A    between atoms: C_8  and  O_22
REMARK    3  A    between atoms: C_11  and  O_24
REMARK    4  A    between atoms: C_15  and  O_20
REMARK    5  A    between atoms: C_17  and  O_18
REMARK                            x       y       z     vdW  Elec       q    Type
REMARK                         _______ _______ _______ _____ _____    ______ ____
ROOT
ATOM      1  O   UNL     1      33.776 -14.412 -22.601  0.00  0.00    -0.474 OA
ATOM      2  O   UNL     1      33.587 -16.030 -26.367  0.00  0.00    -0.291 OA
ATOM      3  C   UNL     1      33.770 -13.568 -23.763  0.00  0.00    +0.196 C 
ATOM      4  C   UNL     1      32.997 -14.218 -24.909  0.00  0.00    +0.117 C 
ATOM      5  C   UNL     1      34.264 -16.259 -24.116  0.00  0.00    +0.103 C 
ATOM      6  C   UNL     1      33.634 -15.541 -25.243  0.00  0.00    +0.183 C 
ATOM      7  C   UNL     1      34.280 -15.662 -22.852  0.00  0.00    +0.148 C 
ATOM      8  C   UNL     1      34.799 -17.537 -24.299  0.00  0.00    +0.142 C 
ATOM      9  C   UNL     1      34.801 -16.359 -21.761  0.00  0.00    +0.074 C 
ATOM     10  C   UNL     1      35.338 -18.220 -23.209  0.00  0.00    +0.073 C 
ATOM     11  C   UNL     1      35.335 -17.635 -21.942  0.00  0.00    +0.140 C 
ENDROOT
BRANCH   3  12
ATOM     12  C   UNL     1      33.163 -12.233 -23.382  0.00  0.00    +0.021 C 
ATOM     13  C   UNL     1      32.154 -12.176 -22.422  0.00  0.00    +0.039 C 
ATOM     14  C   UNL     1      33.612 -11.064 -23.995  0.00  0.00    +0.003 C 
ATOM     15  C   UNL     1      31.595 -10.947 -22.072  0.00  0.00    +0.168 C 
ATOM     16  C   UNL     1      33.053  -9.835 -23.645  0.00  0.00    +0.040 C 
ATOM     17  C   UNL     1      32.043  -9.776 -22.684  0.00  0.00    +0.172 C 
BRANCH  17  18
ATOM     18  O   UNL     1      31.505  -8.570 -22.351  0.00  0.00    -0.468 OA
ATOM     19  C   UNL     1      31.112  -7.718 -23.424  0.00  0.00    +0.253 C 
ENDBRANCH  17  18
BRANCH  15  20
ATOM     20  O   UNL     1      30.611 -10.902 -21.131  0.00  0.00    -0.503 OA
ATOM     21  H   UNL     1      29.750 -11.208 -21.338  0.00  0.00    +0.292 HD
ENDBRANCH  15  20
ENDBRANCH   3  12
BRANCH   8  22
ATOM     22  O   UNL     1      34.813 -18.162 -25.510  0.00  0.00    -0.505 OA
ATOM     23  H   UNL     1      35.058 -19.064 -25.569  0.00  0.00    +0.292 HD
ENDBRANCH   8  22
BRANCH  11  24
ATOM     24  O   UNL     1      35.855 -18.310 -20.881  0.00  0.00    -0.505 OA
ATOM     25  H   UNL     1      35.285 -18.681 -20.236  0.00  0.00    +0.292 HD
ENDBRANCH  11  24
TORSDOF 5
ENDMDL
MODEL 4
REMARK VINA RESULT:      -9.9      2.989      8.350
REMARK  Name = 72281
REMARK  5 active torsions:
REMARK  status: ('A' for Active; 'I' for Inactive)
REMARK    1  A    between atoms: C_3  and  C_12
REMARK    2  A    between atoms: C_8  and  O_22
REMARK    3  A    between atoms: C_11  and  O_24
REMARK    4  A    between atoms: C_15  and  O_20
REMARK    5  A    between atoms: C_17  and  O_18
REMARK                            x       y       z     vdW  Elec       q    Type
REMARK                         _______ _______ _______ _____ _____    ______ ____
ROOT
ATOM      1  O   UNL     1      33.788 -14.287 -22.604  0.00  0.00    -0.474 OA
ATOM      2  O   UNL     1      33.555 -15.866 -26.385  0.00  0.00    -0.291 OA
ATOM      3  C   UNL     1      33.799 -13.433 -23.759  0.00  0.00    +0.196 C 
ATOM      4  C   UNL     1      33.009 -14.055 -24.909  0.00  0.00    +0.117 C 
ATOM      5  C   UNL     1      34.231 -16.131 -24.138  0.00  0.00    +0.103 C 
ATOM      6  C   UNL     1      33.615 -15.389 -25.257  0.00  0.00    +0.183 C 
ATOM      7  C   UNL     1      34.262 -15.546 -22.868  0.00  0.00    +0.148 C 
ATOM      8  C   UNL     1      34.736 -17.419 -24.333  0.00  0.00    +0.142 C 
ATOM      9  C   UNL     1      34.769 -16.265 -21.785  0.00  0.00    +0.074 C 
ATOM     10  C   UNL     1      35.261 -18.125 -23.251  0.00  0.00    +0.073 C 
ATOM     11  C   UNL     1      35.273 -17.552 -21.978  0.00  0.00    +0.140 C 
ENDROOT
BRANCH   3  12
ATOM     12  C   UNL     1      33.223 -12.088 -23.365  0.00  0.00    +0.021 C 
ATOM     13  C   UNL     1      33.766 -10.917 -23.892  0.00  0.00    +0.039 C 
ATOM     14  C   UNL     1      32.153 -12.023 -22.474  0.00  0.00    +0.003 C 
ATOM     15  C   UNL     1      33.236  -9.679 -23.528  0.00  0.00    +0.168 C 
ATOM     16  C   UNL     1      31.623 -10.785 -22.110  0.00  0.00    +0.040 C 
ATOM     17  C   UNL     1      32.165  -9.613 -22.637  0.00  0.00    +0.172 C 
BRANCH  17  18
ATOM     18  O   UNL     1      31.639  -8.410 -22.275  0.00  0.00    -0.468 OA
ATOM     19  C   UNL     1      32.133  -7.822 -21.074  0.00  0.00    +0.253 C 
ENDBRANCH  17  18
BRANCH  15  20
ATOM     20  O   UNL     1      33.772  -8.541 -24.051  0.00  0.00    -0.503 OA
ATOM     21  H   UNL     1      34.678  -8.345 -23.915  0.00  0.00    +0.292 HD
ENDBRANCH  15  20
ENDBRANCH   3  12
BRANCH   8  22
ATOM     22  O   UNL     1      34.733 -18.033 -25.550  0.00  0.00    -0.505 OA
ATOM     23  H   UNL     1      34.038 -18.617 -25.779  0.00  0.00    +0.292 HD
ENDBRANCH   8  22
BRANCH  11  24
ATOM     24  O   UNL     1      35.779 -18.248 -20.924  0.00  0.00    -0.505 OA
ATOM     25  H   UNL     1      36.568 -18.745 -21.026  0.00  0.00    +0.292 HD
ENDBRANCH  11  24
TORSDOF 5
ENDMDL
MODEL 5
REMARK VINA RESULT:      -9.8      4.334     10.947
REMARK  Name = 72281
REMARK  5 active torsions:
REMARK  status: ('A' for Active; 'I' for Inactive)
REMARK    1  A    between atoms: C_3  and  C_12
REMARK    2  A    between atoms: C_8  and  O_22
REMARK    3  A    between atoms: C_11  and  O_24
REMARK    4  A    between atoms: C_15  and  O_20
REMARK    5  A    between atoms: C_17  and  O_18
REMARK                            x       y       z     vdW  Elec       q    Type
REMARK                         _______ _______ _______ _____ _____    ______ ____
ROOT
ATOM      1  O   UNL     1      36.638 -23.678 -15.883  0.00  0.00    -0.474 OA
ATOM      2  O   UNL     1      34.061 -24.083 -12.716  0.00  0.00    -0.291 OA
ATOM      3  C   UNL     1      35.217 -23.662 -16.087  0.00  0.00    +0.196 C 
ATOM      4  C   UNL     1      34.494 -23.103 -14.863  0.00  0.00    +0.117 C 
ATOM      5  C   UNL     1      36.169 -24.569 -13.662  0.00  0.00    +0.103 C 
ATOM      6  C   UNL     1      34.827 -23.952 -13.664  0.00  0.00    +0.183 C 
ATOM      7  C   UNL     1      37.008 -24.378 -14.764  0.00  0.00    +0.148 C 
ATOM      8  C   UNL     1      36.613 -25.297 -12.555  0.00  0.00    +0.142 C 
ATOM      9  C   UNL     1      38.307 -24.888 -14.744  0.00  0.00    +0.074 C 
ATOM     10  C   UNL     1      37.905 -25.823 -12.550  0.00  0.00    +0.073 C 
ATOM     11  C   UNL     1      38.752 -25.615 -13.639  0.00  0.00    +0.140 C 
ENDROOT
BRANCH   3  12
ATOM     12  C   UNL     1      34.920 -22.835 -17.321  0.00  0.00    +0.021 C 
ATOM     13  C   UNL     1      35.921 -22.052 -17.893  0.00  0.00    +0.039 C 
ATOM     14  C   UNL     1      33.644 -22.857 -17.883  0.00  0.00    +0.003 C 
ATOM     15  C   UNL     1      35.647 -21.291 -19.029  0.00  0.00    +0.168 C 
ATOM     16  C   UNL     1      33.370 -22.096 -19.019  0.00  0.00    +0.040 C 
ATOM     17  C   UNL     1      34.371 -21.312 -19.592  0.00  0.00    +0.172 C 
BRANCH  17  18
ATOM     18  O   UNL     1      34.092 -20.573 -20.702  0.00  0.00    -0.468 OA
ATOM     19  C   UNL     1      32.865 -19.846 -20.703  0.00  0.00    +0.253 C 
ENDBRANCH  17  18
BRANCH  15  20
ATOM     20  O   UNL     1      36.635 -20.531 -19.581  0.00  0.00    -0.503 OA
ATOM     21  H   UNL     1      37.404 -20.941 -19.924  0.00  0.00    +0.292 HD
ENDBRANCH  15  20
ENDBRANCH   3  12
BRANCH   8  22
ATOM     22  O   UNL     1      35.834 -25.516 -11.458  0.00  0.00    -0.505 OA
ATOM     23  H   UNL     1      36.230 -25.748 -10.641  0.00  0.00    +0.292 HD
ENDBRANCH   8  22
BRANCH  11  24
ATOM     24  O   UNL     1      40.015 -26.123 -13.625  0.00  0.00    -0.505 OA
ATOM     25  H   UNL     1      40.559 -26.006 -12.870  0.00  0.00    +0.292 HD
ENDBRANCH  11  24
TORSDOF 5
ENDMDL
MODEL 6
REMARK VINA RESULT:      -9.6      1.349      2.872
REMARK  Name = 72281
REMARK  5 active torsions:
REMARK  status: ('A' for Active; 'I' for Inactive)
REMARK    1  A    between atoms: C_3  and  C_12
REMARK    2  A    between atoms: C_8  and  O_22
REMARK    3  A    between atoms: C_11  and  O_24
REMARK    4  A    between atoms: C_15  and  O_20
REMARK    5  A    between atoms: C_17  and  O_18
REMARK                            x       y       z     vdW  Elec       q    Type
REMARK                         _______ _______ _______ _____ _____    ______ ____
ROOT
ATOM      1  O   UNL     1      34.115 -17.041 -23.262  0.00  0.00    -0.474 OA
ATOM      2  O   UNL     1      32.974 -13.760 -21.078  0.00  0.00    -0.291 OA
ATOM      3  C   UNL     1      34.575 -16.860 -21.914  0.00  0.00    +0.196 C 
ATOM      4  C   UNL     1      33.551 -16.089 -21.084  0.00  0.00    +0.117 C 
ATOM      5  C   UNL     1      33.433 -14.700 -23.195  0.00  0.00    +0.103 C 
ATOM      6  C   UNL     1      33.310 -14.747 -21.724  0.00  0.00    +0.183 C 
ATOM      7  C   UNL     1      33.808 -15.859 -23.884  0.00  0.00    +0.148 C 
ATOM      8  C   UNL     1      33.137 -13.528 -23.895  0.00  0.00    +0.142 C 
ATOM      9  C   UNL     1      33.854 -15.852 -25.278  0.00  0.00    +0.074 C 
ATOM     10  C   UNL     1      33.205 -13.522 -25.288  0.00  0.00    +0.073 C 
ATOM     11  C   UNL     1      33.557 -14.683 -25.979  0.00  0.00    +0.140 C 
ENDROOT
BRANCH   3  12
ATOM     12  C   UNL     1      34.848 -18.224 -21.314  0.00  0.00    +0.021 C 
ATOM     13  C   UNL     1      33.787 -19.070 -20.996  0.00  0.00    +0.039 C 
ATOM     14  C   UNL     1      36.160 -18.632 -21.079  0.00  0.00    +0.003 C 
ATOM     15  C   UNL     1      34.038 -20.326 -20.443  0.00  0.00    +0.168 C 
ATOM     16  C   UNL     1      36.412 -19.888 -20.526  0.00  0.00    +0.040 C 
ATOM     17  C   UNL     1      35.350 -20.735 -20.208  0.00  0.00    +0.172 C 
BRANCH  17  18
ATOM     18  O   UNL     1      35.609 -21.959 -19.669  0.00  0.00    -0.468 OA
ATOM     19  C   UNL     1      35.863 -22.008 -18.267  0.00  0.00    +0.253 C 
ENDBRANCH  17  18
BRANCH  15  20
ATOM     20  O   UNL     1      32.993 -21.145 -20.139  0.00  0.00    -0.503 OA
ATOM     21  H   UNL     1      33.153 -22.027 -19.866  0.00  0.00    +0.292 HD
ENDBRANCH  15  20
ENDBRANCH   3  12
BRANCH   8  22
ATOM     22  O   UNL     1      32.772 -12.372 -23.273  0.00  0.00    -0.505 OA
ATOM     23  H   UNL     1      31.927 -12.000 -23.433  0.00  0.00    +0.292 HD
ENDBRANCH   8  22
BRANCH  11  24
ATOM     24  O   UNL     1      33.614 -14.673 -27.339  0.00  0.00    -0.505 OA
ATOM     25  H   UNL     1      33.054 -14.101 -27.827  0.00  0.00    +0.292 HD
ENDBRANCH  11  24
TORSDOF 5
ENDMDL
MODEL 7
REMARK VINA RESULT:      -9.4      9.315     11.972
REMARK  Name = 72281
REMARK  5 active torsions:
REMARK  status: ('A' for Active; 'I' for Inactive)
REMARK    1  A    between atoms: C_3  and  C_12
REMARK    2  A    between atoms: C_8  and  O_22
REMARK    3  A    between atoms: C_11  and  O_24
REMARK    4  A    between atoms: C_15  and  O_20
REMARK    5  A    between atoms: C_17  and  O_18
REMARK                            x       y       z     vdW  Elec       q    Type
REMARK                         _______ _______ _______ _____ _____    ______ ____
ROOT
ATOM      1  O   UNL     1      34.717 -24.602 -14.800  0.00  0.00    -0.474 OA
ATOM      2  O   UNL     1      35.430 -23.995 -10.805  0.00  0.00    -0.291 OA
ATOM      3  C   UNL     1      33.663 -24.748 -13.835  0.00  0.00    +0.196 C 
ATOM      4  C   UNL     1      33.887 -23.831 -12.635  0.00  0.00    +0.117 C 
ATOM      5  C   UNL     1      36.262 -24.658 -12.914  0.00  0.00    +0.103 C 
ATOM      6  C   UNL     1      35.210 -24.168 -11.998  0.00  0.00    +0.183 C 
ATOM      7  C   UNL     1      35.960 -24.826 -14.269  0.00  0.00    +0.148 C 
ATOM      8  C   UNL     1      37.552 -24.909 -12.441  0.00  0.00    +0.142 C 
ATOM      9  C   UNL     1      36.963 -25.213 -15.159  0.00  0.00    +0.074 C 
ATOM     10  C   UNL     1      38.545 -25.316 -13.333  0.00  0.00    +0.073 C 
ATOM     11  C   UNL     1      38.253 -25.463 -14.690  0.00  0.00    +0.140 C 
ENDROOT
BRANCH   3  12
ATOM     12  C   UNL     1      32.345 -24.443 -14.517  0.00  0.00    +0.021 C 
ATOM     13  C   UNL     1      31.187 -25.113 -14.124  0.00  0.00    +0.039 C 
ATOM     14  C   UNL     1      32.291 -23.494 -15.537  0.00  0.00    +0.003 C 
ATOM     15  C   UNL     1      29.973 -24.832 -14.753  0.00  0.00    +0.168 C 
ATOM     16  C   UNL     1      31.078 -23.214 -16.165  0.00  0.00    +0.040 C 
ATOM     17  C   UNL     1      29.919 -23.883 -15.773  0.00  0.00    +0.172 C 
BRANCH  17  18
ATOM     18  O   UNL     1      28.740 -23.601 -16.394  0.00  0.00    -0.468 OA
ATOM     19  C   UNL     1      28.010 -22.473 -15.915  0.00  0.00    +0.253 C 
ENDBRANCH  17  18
BRANCH  15  20
ATOM     20  O   UNL     1      28.847 -25.492 -14.360  0.00  0.00    -0.503 OA
ATOM     21  H   UNL     1      28.882 -26.089 -13.639  0.00  0.00    +0.292 HD
ENDBRANCH  15  20
ENDBRANCH   3  12
BRANCH   8  22
ATOM     22  O   UNL     1      37.897 -24.765 -11.131  0.00  0.00    -0.505 OA
ATOM     23  H   UNL     1      37.331 -24.302 -10.545  0.00  0.00    +0.292 HD
ENDBRANCH   8  22
BRANCH  11  24
ATOM     24  O   UNL     1      39.227 -25.852 -15.556  0.00  0.00    -0.505 OA
ATOM     25  H   UNL     1      39.771 -25.210 -15.969  0.00  0.00    +0.292 HD
ENDBRANCH  11  24
TORSDOF 5
ENDMDL
MODEL 8
REMARK VINA RESULT:      -9.4      7.762     11.648
REMARK  Name = 72281
REMARK  5 active torsions:
REMARK  status: ('A' for Active; 'I' for Inactive)
REMARK    1  A    between atoms: C_3  and  C_12
REMARK    2  A    between atoms: C_8  and  O_22
REMARK    3  A    between atoms: C_11  and  O_24
REMARK    4  A    between atoms: C_15  and  O_20
REMARK    5  A    between atoms: C_17  and  O_18
REMARK                            x       y       z     vdW  Elec       q    Type
REMARK                         _______ _______ _______ _____ _____    ______ ____
ROOT
ATOM      1  O   UNL     1      35.620 -24.164 -15.114  0.00  0.00    -0.474 OA
ATOM      2  O   UNL     1      35.859 -24.509 -11.032  0.00  0.00    -0.291 OA
ATOM      3  C   UNL     1      34.447 -24.433 -14.330  0.00  0.00    +0.196 C 
ATOM      4  C   UNL     1      34.568 -23.823 -12.935  0.00  0.00    +0.117 C 
ATOM      5  C   UNL     1      36.911 -24.756 -13.132  0.00  0.00    +0.103 C 
ATOM      6  C   UNL     1      35.781 -24.397 -12.251  0.00  0.00    +0.183 C 
ATOM      7  C   UNL     1      36.773 -24.598 -14.515  0.00  0.00    +0.148 C 
ATOM      8  C   UNL     1      38.117 -25.207 -12.590  0.00  0.00    +0.142 C 
ATOM      9  C   UNL     1      37.857 -24.859 -15.354  0.00  0.00    +0.074 C 
ATOM     10  C   UNL     1      39.191 -25.486 -13.437  0.00  0.00    +0.073 C 
ATOM     11  C   UNL     1      39.063 -25.308 -14.815  0.00  0.00    +0.140 C 
ENDROOT
BRANCH   3  12
ATOM     12  C   UNL     1      33.243 -23.881 -15.065  0.00  0.00    +0.021 C 
ATOM     13  C   UNL     1      33.379 -23.407 -16.368  0.00  0.00    +0.039 C 
ATOM     14  C   UNL     1      31.999 -23.847 -14.436  0.00  0.00    +0.003 C 
ATOM     15  C   UNL     1      32.270 -22.898 -17.044  0.00  0.00    +0.168 C 
ATOM     16  C   UNL     1      30.890 -23.338 -15.112  0.00  0.00    +0.040 C 
ATOM     17  C   UNL     1      31.025 -22.863 -16.416  0.00  0.00    +0.172 C 
BRANCH  17  18
ATOM     18  O   UNL     1      29.935 -22.369 -17.066  0.00  0.00    -0.468 OA
ATOM     19  C   UNL     1      28.676 -22.966 -16.764  0.00  0.00    +0.253 C 
ENDBRANCH  17  18
BRANCH  15  20
ATOM     20  O   UNL     1      32.415 -22.438 -18.319  0.00  0.00    -0.503 OA
ATOM     21  H   UNL     1      32.980 -21.712 -18.493  0.00  0.00    +0.292 HD
ENDBRANCH  15  20
ENDBRANCH   3  12
BRANCH   8  22
ATOM     22  O   UNL     1      38.302 -25.383 -11.252  0.00  0.00    -0.505 OA
ATOM     23  H   UNL     1      39.168 -25.375 -10.893  0.00  0.00    +0.292 HD
ENDBRANCH   8  22
BRANCH  11  24
ATOM     24  O   UNL     1      40.116 -25.574 -15.635  0.00  0.00    -0.505 OA
ATOM     25  H   UNL     1      40.238 -26.439 -15.975  0.00  0.00    +0.292 HD
ENDBRANCH  11  24
TORSDOF 5
ENDMDL
MODEL 9
REMARK VINA RESULT:      -9.4      4.322      7.411
REMARK  Name = 72281
REMARK  5 active torsions:
REMARK  status: ('A' for Active; 'I' for Inactive)
REMARK    1  A    between atoms: C_3  and  C_12
REMARK    2  A    between atoms: C_8  and  O_22
REMARK    3  A    between atoms: C_11  and  O_24
REMARK    4  A    between atoms: C_15  and  O_20
REMARK    5  A    between atoms: C_17  and  O_18
REMARK                            x       y       z     vdW  Elec       q    Type
REMARK                         _______ _______ _______ _____ _____    ______ ____
ROOT
ATOM      1  O   UNL     1      33.879 -11.585 -24.080  0.00  0.00    -0.474 OA
ATOM      2  O   UNL     1      31.016 -10.945 -21.212  0.00  0.00    -0.291 OA
ATOM      3  C   UNL     1      33.525 -12.622 -23.152  0.00  0.00    +0.196 C 
ATOM      4  C   UNL     1      32.067 -12.492 -22.714  0.00  0.00    +0.117 C 
ATOM      5  C   UNL     1      32.707 -10.047 -22.594  0.00  0.00    +0.103 C 
ATOM      6  C   UNL     1      31.865 -11.144 -22.073  0.00  0.00    +0.183 C 
ATOM      7  C   UNL     1      33.652 -10.327 -23.586  0.00  0.00    +0.148 C 
ATOM      8  C   UNL     1      32.532  -8.739 -22.135  0.00  0.00    +0.142 C 
ATOM      9  C   UNL     1      34.401  -9.290 -24.144  0.00  0.00    +0.074 C 
ATOM     10  C   UNL     1      33.298  -7.709 -22.682  0.00  0.00    +0.073 C 
ATOM     11  C   UNL     1      34.227  -7.983 -23.687  0.00  0.00    +0.140 C 
ENDROOT
BRANCH   3  12
ATOM     12  C   UNL     1      33.779 -13.962 -23.812  0.00  0.00    +0.021 C 
ATOM     13  C   UNL     1      33.241 -14.233 -25.069  0.00  0.00    +0.039 C 
ATOM     14  C   UNL     1      34.549 -14.924 -23.160  0.00  0.00    +0.003 C 
ATOM     15  C   UNL     1      33.474 -15.467 -25.676  0.00  0.00    +0.168 C 
ATOM     16  C   UNL     1      34.782 -16.159 -23.766  0.00  0.00    +0.040 C 
ATOM     17  C   UNL     1      34.244 -16.430 -25.024  0.00  0.00    +0.172 C 
BRANCH  17  18
ATOM     18  O   UNL     1      34.480 -17.639 -25.607  0.00  0.00    -0.468 OA
ATOM     19  C   UNL     1      34.475 -18.781 -24.753  0.00  0.00    +0.253 C 
ENDBRANCH  17  18
BRANCH  15  20
ATOM     20  O   UNL     1      32.945 -15.720 -26.906  0.00  0.00    -0.503 OA
ATOM     21  H   UNL     1      32.446 -16.499 -27.050  0.00  0.00    +0.292 HD
ENDBRANCH  15  20
ENDBRANCH   3  12
BRANCH   8  22
ATOM     22  O   UNL     1      31.629  -8.414 -21.168  0.00  0.00    -0.505 OA
ATOM     23  H   UNL     1      31.840  -8.547 -20.265  0.00  0.00    +0.292 HD
ENDBRANCH   8  22
BRANCH  11  24
ATOM     24  O   UNL     1      34.965  -6.972 -24.222  0.00  0.00    -0.505 OA
ATOM     25  H   UNL     1      35.443  -6.393 -23.661  0.00  0.00    +0.292 HD
ENDBRANCH  11  24
TORSDOF 5
ENDMDL
