MODEL 1
REMARK VINA RESULT:     -11.0      0.000      0.000
REMARK  Name = 25058141
REMARK  4 active torsions:
REMARK  status: ('A' for Active; 'I' for Inactive)
REMARK    1  A    between atoms: C_3  and  C_8
REMARK    2  A    between atoms: C_7  and  C_15
REMARK    3  A    between atoms: C_16  and  O_21
REMARK    4  A    between atoms: C_20  and  O_23
REMARK                            x       y       z     vdW  Elec       q    Type
REMARK                         _______ _______ _______ _____ _____    ______ ____
ROOT
ATOM      1  O   UNL     1      35.057 -16.276 -20.258  0.00  0.00    -0.270 OA
ATOM      2  N   UNL     1      34.816 -17.116 -22.416  0.00  0.00    -0.274 N 
ATOM      3  C   UNL     1      35.568 -18.358 -22.203  0.00  0.00    +0.098 C 
ATOM      4  C   UNL     1      35.788 -18.905 -23.619  0.00  0.00    +0.026 C 
ATOM      5  C   UNL     1      34.581 -18.388 -24.398  0.00  0.00    +0.024 C 
ATOM      6  C   UNL     1      34.353 -17.008 -23.800  0.00  0.00    +0.094 C 
ATOM      7  C   UNL     1      34.660 -16.167 -21.415  0.00  0.00    +0.252 C 
ENDROOT
BRANCH   3   8
ATOM      8  C   UNL     1      34.870 -19.357 -21.299  0.00  0.00    -0.008 C 
ATOM      9  C   UNL     1      35.600 -20.180 -20.440  0.00  0.00    -0.024 C 
ATOM     10  C   UNL     1      33.478 -19.448 -21.336  0.00  0.00    -0.003 C 
ATOM     11  C   UNL     1      34.939 -21.092 -19.619  0.00  0.00    -0.005 C 
ATOM     12  C   UNL     1      37.091 -20.101 -20.384  0.00  0.00    +0.031 C 
ATOM     13  C   UNL     1      32.818 -20.360 -20.513  0.00  0.00    -0.000 C 
ATOM     14  C   UNL     1      33.547 -21.182 -19.655  0.00  0.00    -0.000 C 
ENDBRANCH   3   8
BRANCH   7  15
ATOM     15  C   UNL     1      33.941 -14.933 -21.765  0.00  0.00    +0.087 C 
ATOM     16  C   UNL     1      32.876 -14.480 -20.987  0.00  0.00    +0.141 C 
ATOM     17  C   UNL     1      34.338 -14.214 -22.892  0.00  0.00    +0.011 C 
ATOM     18  C   UNL     1      32.207 -13.307 -21.337  0.00  0.00    +0.073 C 
ATOM     19  C   UNL     1      33.669 -13.040 -23.241  0.00  0.00    +0.037 C 
ATOM     20  C   UNL     1      32.604 -12.588 -22.463  0.00  0.00    +0.137 C 
BRANCH  16  21
ATOM     21  O   UNL     1      32.473 -15.169 -19.882  0.00  0.00    -0.505 OA
ATOM     22  H   UNL     1      32.381 -14.726 -19.061  0.00  0.00    +0.292 HD
ENDBRANCH  16  21
BRANCH  20  23
ATOM     23  O   UNL     1      31.952 -11.442 -22.804  0.00  0.00    -0.505 OA
ATOM     24  H   UNL     1      32.119 -10.650 -22.333  0.00  0.00    +0.292 HD
ENDBRANCH  20  23
ENDBRANCH   7  15
TORSDOF 4
ENDMDL
MODEL 2
REMARK VINA RESULT:      -9.3      4.836      9.257
REMARK  Name = 25058141
REMARK  4 active torsions:
REMARK  status: ('A' for Active; 'I' for Inactive)
REMARK    1  A    between atoms: C_3  and  C_8
REMARK    2  A    between atoms: C_7  and  C_15
REMARK    3  A    between atoms: C_16  and  O_21
REMARK    4  A    between atoms: C_20  and  O_23
REMARK                            x       y       z     vdW  Elec       q    Type
REMARK                         _______ _______ _______ _____ _____    ______ ____
ROOT
ATOM      1  O   UNL     1      34.642 -10.430 -24.446  0.00  0.00    -0.270 OA
ATOM      2  N   UNL     1      32.806 -10.803 -23.065  0.00  0.00    -0.274 N 
ATOM      3  C   UNL     1      32.860  -9.518 -22.357  0.00  0.00    +0.098 C 
ATOM      4  C   UNL     1      31.905  -9.709 -21.172  0.00  0.00    +0.026 C 
ATOM      5  C   UNL     1      30.882 -10.716 -21.690  0.00  0.00    +0.024 C 
ATOM      6  C   UNL     1      31.721 -11.643 -22.555  0.00  0.00    +0.094 C 
ATOM      7  C   UNL     1      33.737 -11.151 -24.032  0.00  0.00    +0.252 C 
ENDROOT
BRANCH   3   8
ATOM      8  C   UNL     1      32.486  -8.323 -23.213  0.00  0.00    -0.008 C 
ATOM      9  C   UNL     1      33.451  -7.397 -23.613  0.00  0.00    -0.024 C 
ATOM     10  C   UNL     1      31.156  -8.156 -23.601  0.00  0.00    -0.003 C 
ATOM     11  C   UNL     1      33.085  -6.305 -24.400  0.00  0.00    -0.005 C 
ATOM     12  C   UNL     1      34.880  -7.554 -23.210  0.00  0.00    +0.031 C 
ATOM     13  C   UNL     1      30.792  -7.063 -24.389  0.00  0.00    -0.000 C 
ATOM     14  C   UNL     1      31.755  -6.138 -24.788  0.00  0.00    -0.000 C 
ENDBRANCH   3   8
BRANCH   7  15
ATOM     15  C   UNL     1      33.620 -12.490 -24.627  0.00  0.00    +0.087 C 
ATOM     16  C   UNL     1      33.960 -13.630 -23.898  0.00  0.00    +0.141 C 
ATOM     17  C   UNL     1      33.161 -12.612 -25.938  0.00  0.00    +0.011 C 
ATOM     18  C   UNL     1      33.841 -14.891 -24.481  0.00  0.00    +0.073 C 
ATOM     19  C   UNL     1      33.042 -13.874 -26.521  0.00  0.00    +0.037 C 
ATOM     20  C   UNL     1      33.382 -15.013 -25.792  0.00  0.00    +0.137 C 
BRANCH  16  21
ATOM     21  O   UNL     1      34.410 -13.531 -22.615  0.00  0.00    -0.505 OA
ATOM     22  H   UNL     1      35.286 -13.242 -22.447  0.00  0.00    +0.292 HD
ENDBRANCH  16  21
BRANCH  20  23
ATOM     23  O   UNL     1      33.266 -16.244 -26.361  0.00  0.00    -0.505 OA
ATOM     24  H   UNL     1      33.653 -16.412 -27.198  0.00  0.00    +0.292 HD
ENDBRANCH  20  23
ENDBRANCH   7  15
TORSDOF 4
ENDMDL
MODEL 3
REMARK VINA RESULT:      -9.1      8.773     10.624
REMARK  Name = 25058141
REMARK  4 active torsions:
REMARK  status: ('A' for Active; 'I' for Inactive)
REMARK    1  A    between atoms: C_3  and  C_8
REMARK    2  A    between atoms: C_7  and  C_15
REMARK    3  A    between atoms: C_16  and  O_21
REMARK    4  A    between atoms: C_20  and  O_23
REMARK                            x       y       z     vdW  Elec       q    Type
REMARK                         _______ _______ _______ _____ _____    ______ ____
ROOT
ATOM      1  O   UNL     1      32.933 -23.891 -13.165  0.00  0.00    -0.270 OA
ATOM      2  N   UNL     1      33.910 -23.307 -15.196  0.00  0.00    -0.274 N 
ATOM      3  C   UNL     1      35.270 -23.105 -14.680  0.00  0.00    +0.098 C 
ATOM      4  C   UNL     1      36.001 -22.402 -15.831  0.00  0.00    +0.026 C 
ATOM      5  C   UNL     1      35.288 -22.914 -17.080  0.00  0.00    +0.024 C 
ATOM      6  C   UNL     1      33.839 -23.018 -16.629  0.00  0.00    +0.094 C 
ATOM      7  C   UNL     1      32.852 -23.653 -14.368  0.00  0.00    +0.252 C 
ENDROOT
BRANCH   3   8
ATOM      8  C   UNL     1      35.965 -24.384 -14.250  0.00  0.00    -0.008 C 
ATOM      9  C   UNL     1      36.457 -24.531 -12.953  0.00  0.00    -0.024 C 
ATOM     10  C   UNL     1      36.109 -25.421 -15.173  0.00  0.00    -0.003 C 
ATOM     11  C   UNL     1      37.092 -25.715 -12.579  0.00  0.00    -0.005 C 
ATOM     12  C   UNL     1      36.314 -23.435 -11.948  0.00  0.00    +0.031 C 
ATOM     13  C   UNL     1      36.745 -26.604 -14.797  0.00  0.00    -0.000 C 
ATOM     14  C   UNL     1      37.236 -26.752 -13.501  0.00  0.00    -0.000 C 
ENDBRANCH   3   8
BRANCH   7  15
ATOM     15  C   UNL     1      31.523 -23.764 -14.987  0.00  0.00    +0.087 C 
ATOM     16  C   UNL     1      30.655 -24.798 -14.638  0.00  0.00    +0.141 C 
ATOM     17  C   UNL     1      31.136 -22.818 -15.935  0.00  0.00    +0.011 C 
ATOM     18  C   UNL     1      29.399 -24.886 -15.238  0.00  0.00    +0.073 C 
ATOM     19  C   UNL     1      29.879 -22.905 -16.534  0.00  0.00    +0.037 C 
ATOM     20  C   UNL     1      29.011 -23.939 -16.185  0.00  0.00    +0.137 C 
BRANCH  16  21
ATOM     21  O   UNL     1      31.015 -25.733 -13.714  0.00  0.00    -0.505 OA
ATOM     22  H   UNL     1      31.727 -25.563 -13.128  0.00  0.00    +0.292 HD
ENDBRANCH  16  21
BRANCH  20  23
ATOM     23  O   UNL     1      27.785 -24.024 -16.770  0.00  0.00    -0.505 OA
ATOM     24  H   UNL     1      27.089 -23.465 -16.484  0.00  0.00    +0.292 HD
ENDBRANCH  20  23
ENDBRANCH   7  15
TORSDOF 4
ENDMDL
MODEL 4
REMARK VINA RESULT:      -8.7      1.105      1.621
REMARK  Name = 25058141
REMARK  4 active torsions:
REMARK  status: ('A' for Active; 'I' for Inactive)
REMARK    1  A    between atoms: C_3  and  C_8
REMARK    2  A    between atoms: C_7  and  C_15
REMARK    3  A    between atoms: C_16  and  O_21
REMARK    4  A    between atoms: C_20  and  O_23
REMARK                            x       y       z     vdW  Elec       q    Type
REMARK                         _______ _______ _______ _____ _____    ______ ____
ROOT
ATOM      1  O   UNL     1      34.910 -15.697 -20.115  0.00  0.00    -0.270 OA
ATOM      2  N   UNL     1      34.593 -16.373 -22.321  0.00  0.00    -0.274 N 
ATOM      3  C   UNL     1      35.474 -17.545 -22.269  0.00  0.00    +0.098 C 
ATOM      4  C   UNL     1      35.641 -17.946 -23.741  0.00  0.00    +0.026 C 
ATOM      5  C   UNL     1      34.338 -17.491 -24.391  0.00  0.00    +0.024 C 
ATOM      6  C   UNL     1      34.023 -16.196 -23.657  0.00  0.00    +0.094 C 
ATOM      7  C   UNL     1      34.421 -15.531 -21.230  0.00  0.00    +0.252 C 
ENDROOT
BRANCH   3   8
ATOM      8  C   UNL     1      34.942 -18.683 -21.418  0.00  0.00    -0.008 C 
ATOM      9  C   UNL     1      35.810 -19.533 -20.732  0.00  0.00    -0.024 C 
ATOM     10  C   UNL     1      33.562 -18.873 -21.326  0.00  0.00    -0.003 C 
ATOM     11  C   UNL     1      35.299 -20.572 -19.955  0.00  0.00    -0.005 C 
ATOM     12  C   UNL     1      37.290 -19.349 -20.815  0.00  0.00    +0.031 C 
ATOM     13  C   UNL     1      33.053 -19.913 -20.548  0.00  0.00    -0.000 C 
ATOM     14  C   UNL     1      33.920 -20.763 -19.863  0.00  0.00    -0.000 C 
ENDBRANCH   3   8
BRANCH   7  15
ATOM     15  C   UNL     1      33.565 -14.352 -21.420  0.00  0.00    +0.087 C 
ATOM     16  C   UNL     1      33.789 -13.467 -22.475  0.00  0.00    +0.141 C 
ATOM     17  C   UNL     1      32.518 -14.124 -20.528  0.00  0.00    +0.011 C 
ATOM     18  C   UNL     1      32.965 -12.353 -22.637  0.00  0.00    +0.073 C 
ATOM     19  C   UNL     1      31.693 -13.010 -20.691  0.00  0.00    +0.037 C 
ATOM     20  C   UNL     1      31.917 -12.125 -21.745  0.00  0.00    +0.137 C 
BRANCH  16  21
ATOM     21  O   UNL     1      34.808 -13.673 -23.357  0.00  0.00    -0.505 OA
ATOM     22  H   UNL     1      35.335 -12.951 -23.641  0.00  0.00    +0.292 HD
ENDBRANCH  16  21
BRANCH  20  23
ATOM     23  O   UNL     1      31.113 -11.039 -21.904  0.00  0.00    -0.505 OA
ATOM     24  H   UNL     1      30.191 -11.113 -21.753  0.00  0.00    +0.292 HD
ENDBRANCH  20  23
ENDBRANCH   7  15
TORSDOF 4
ENDMDL
MODEL 5
REMARK VINA RESULT:      -8.7      2.321      6.625
REMARK  Name = 25058141
REMARK  4 active torsions:
REMARK  status: ('A' for Active; 'I' for Inactive)
REMARK    1  A    between atoms: C_3  and  C_8
REMARK    2  A    between atoms: C_7  and  C_15
REMARK    3  A    between atoms: C_16  and  O_21
REMARK    4  A    between atoms: C_20  and  O_23
REMARK                            x       y       z     vdW  Elec       q    Type
REMARK                         _______ _______ _______ _____ _____    ______ ____
ROOT
ATOM      1  O   UNL     1      35.841 -17.795 -22.919  0.00  0.00    -0.270 OA
ATOM      2  N   UNL     1      34.309 -16.576 -21.658  0.00  0.00    -0.274 N 
ATOM      3  C   UNL     1      34.542 -15.282 -22.310  0.00  0.00    +0.098 C 
ATOM      4  C   UNL     1      33.839 -14.274 -21.391  0.00  0.00    +0.026 C 
ATOM      5  C   UNL     1      32.704 -15.082 -20.768  0.00  0.00    +0.024 C 
ATOM      6  C   UNL     1      33.325 -16.458 -20.581  0.00  0.00    +0.094 C 
ATOM      7  C   UNL     1      35.017 -17.717 -22.010  0.00  0.00    +0.252 C 
ENDROOT
BRANCH   3   8
ATOM      8  C   UNL     1      34.038 -15.208 -23.739  0.00  0.00    -0.008 C 
ATOM      9  C   UNL     1      33.603 -14.001 -24.286  0.00  0.00    -0.024 C 
ATOM     10  C   UNL     1      34.014 -16.371 -24.510  0.00  0.00    -0.003 C 
ATOM     11  C   UNL     1      33.144 -13.956 -25.602  0.00  0.00    -0.005 C 
ATOM     12  C   UNL     1      33.620 -12.743 -23.480  0.00  0.00    +0.031 C 
ATOM     13  C   UNL     1      33.555 -16.326 -25.826  0.00  0.00    -0.000 C 
ATOM     14  C   UNL     1      33.120 -15.119 -26.372  0.00  0.00    -0.000 C 
ENDBRANCH   3   8
BRANCH   7  15
ATOM     15  C   UNL     1      34.743 -18.940 -21.244  0.00  0.00    +0.087 C 
ATOM     16  C   UNL     1      35.782 -19.672 -20.667  0.00  0.00    +0.141 C 
ATOM     17  C   UNL     1      33.424 -19.367 -21.096  0.00  0.00    +0.011 C 
ATOM     18  C   UNL     1      35.501 -20.831 -19.944  0.00  0.00    +0.073 C 
ATOM     19  C   UNL     1      33.143 -20.527 -20.372  0.00  0.00    +0.037 C 
ATOM     20  C   UNL     1      34.182 -21.258 -19.797  0.00  0.00    +0.137 C 
BRANCH  16  21
ATOM     21  O   UNL     1      37.078 -19.271 -20.800  0.00  0.00    -0.505 OA
ATOM     22  H   UNL     1      37.609 -19.141 -20.039  0.00  0.00    +0.292 HD
ENDBRANCH  16  21
BRANCH  20  23
ATOM     23  O   UNL     1      33.907 -22.388 -19.090  0.00  0.00    -0.505 OA
ATOM     24  H   UNL     1      34.575 -22.789 -18.569  0.00  0.00    +0.292 HD
ENDBRANCH  20  23
ENDBRANCH   7  15
TORSDOF 4
ENDMDL
MODEL 6
REMARK VINA RESULT:      -8.6      4.032      9.165
REMARK  Name = 25058141
REMARK  4 active torsions:
REMARK  status: ('A' for Active; 'I' for Inactive)
REMARK    1  A    between atoms: C_3  and  C_8
REMARK    2  A    between atoms: C_7  and  C_15
REMARK    3  A    between atoms: C_16  and  O_21
REMARK    4  A    between atoms: C_20  and  O_23
REMARK                            x       y       z     vdW  Elec       q    Type
REMARK                         _______ _______ _______ _____ _____    ______ ____
ROOT
ATOM      1  O   UNL     1      30.676 -10.957 -22.234  0.00  0.00    -0.270 OA
ATOM      2  N   UNL     1      32.729 -10.484 -23.223  0.00  0.00    -0.274 N 
ATOM      3  C   UNL     1      32.390  -9.133 -23.685  0.00  0.00    +0.098 C 
ATOM      4  C   UNL     1      33.530  -8.775 -24.648  0.00  0.00    +0.026 C 
ATOM      5  C   UNL     1      34.721  -9.560 -24.106  0.00  0.00    +0.024 C 
ATOM      6  C   UNL     1      34.087 -10.856 -23.624  0.00  0.00    +0.094 C 
ATOM      7  C   UNL     1      31.813 -11.289 -22.561  0.00  0.00    +0.252 C 
ENDROOT
BRANCH   3   8
ATOM      8  C   UNL     1      32.235  -8.117 -22.569  0.00  0.00    -0.008 C 
ATOM      9  C   UNL     1      31.541  -6.925 -22.775  0.00  0.00    -0.024 C 
ATOM     10  C   UNL     1      32.800  -8.389 -21.322  0.00  0.00    -0.003 C 
ATOM     11  C   UNL     1      31.411  -6.005 -21.736  0.00  0.00    -0.005 C 
ATOM     12  C   UNL     1      30.928  -6.612 -24.101  0.00  0.00    +0.031 C 
ATOM     13  C   UNL     1      32.669  -7.468 -20.283  0.00  0.00    -0.000 C 
ATOM     14  C   UNL     1      31.975  -6.276 -20.489  0.00  0.00    -0.000 C 
ENDBRANCH   3   8
BRANCH   7  15
ATOM     15  C   UNL     1      32.246 -12.647 -22.203  0.00  0.00    +0.087 C 
ATOM     16  C   UNL     1      32.280 -13.061 -20.871  0.00  0.00    +0.141 C 
ATOM     17  C   UNL     1      32.626 -13.526 -23.216  0.00  0.00    +0.011 C 
ATOM     18  C   UNL     1      32.694 -14.353 -20.553  0.00  0.00    +0.073 C 
ATOM     19  C   UNL     1      33.041 -14.820 -22.898  0.00  0.00    +0.037 C 
ATOM     20  C   UNL     1      33.075 -15.233 -21.566  0.00  0.00    +0.137 C 
BRANCH  16  21
ATOM     21  O   UNL     1      31.912 -12.216 -19.867  0.00  0.00    -0.505 OA
ATOM     22  H   UNL     1      32.552 -11.909 -19.255  0.00  0.00    +0.292 HD
ENDBRANCH  16  21
BRANCH  20  23
ATOM     23  O   UNL     1      33.479 -16.495 -21.256  0.00  0.00    -0.505 OA
ATOM     24  H   UNL     1      33.833 -16.679 -20.408  0.00  0.00    +0.292 HD
ENDBRANCH  20  23
ENDBRANCH   7  15
TORSDOF 4
ENDMDL
MODEL 7
REMARK VINA RESULT:      -8.2      6.955     10.246
REMARK  Name = 25058141
REMARK  4 active torsions:
REMARK  status: ('A' for Active; 'I' for Inactive)
REMARK    1  A    between atoms: C_3  and  C_8
REMARK    2  A    between atoms: C_7  and  C_15
REMARK    3  A    between atoms: C_16  and  O_21
REMARK    4  A    between atoms: C_20  and  O_23
REMARK                            x       y       z     vdW  Elec       q    Type
REMARK                         _______ _______ _______ _____ _____    ______ ____
ROOT
ATOM      1  O   UNL     1      30.504  -7.806 -24.230  0.00  0.00    -0.270 OA
ATOM      2  N   UNL     1      31.866  -7.416 -22.383  0.00  0.00    -0.274 N 
ATOM      3  C   UNL     1      31.634  -8.707 -21.723  0.00  0.00    +0.098 C 
ATOM      4  C   UNL     1      32.210  -8.510 -20.315  0.00  0.00    +0.026 C 
ATOM      5  C   UNL     1      33.321  -7.484 -20.518  0.00  0.00    +0.024 C 
ATOM      6  C   UNL     1      32.748  -6.564 -21.584  0.00  0.00    +0.094 C 
ATOM      7  C   UNL     1      31.242  -7.074 -23.574  0.00  0.00    +0.252 C 
ENDROOT
BRANCH   3   8
ATOM      8  C   UNL     1      32.255  -9.890 -22.441  0.00  0.00    -0.008 C 
ATOM      9  C   UNL     1      31.830 -11.193 -22.178  0.00  0.00    -0.024 C 
ATOM     10  C   UNL     1      33.266  -9.662 -23.376  0.00  0.00    -0.003 C 
ATOM     11  C   UNL     1      32.415 -12.266 -22.850  0.00  0.00    -0.005 C 
ATOM     12  C   UNL     1      30.751 -11.462 -21.181  0.00  0.00    +0.031 C 
ATOM     13  C   UNL     1      33.850 -10.736 -24.047  0.00  0.00    -0.000 C 
ATOM     14  C   UNL     1      33.426 -12.037 -23.785  0.00  0.00    -0.000 C 
ENDBRANCH   3   8
BRANCH   7  15
ATOM     15  C   UNL     1      31.502  -5.730 -24.107  0.00  0.00    +0.087 C 
ATOM     16  C   UNL     1      30.926  -4.603 -23.520  0.00  0.00    +0.141 C 
ATOM     17  C   UNL     1      32.338  -5.589 -25.214  0.00  0.00    +0.011 C 
ATOM     18  C   UNL     1      31.185  -3.336 -24.041  0.00  0.00    +0.073 C 
ATOM     19  C   UNL     1      32.597  -4.321 -25.735  0.00  0.00    +0.037 C 
ATOM     20  C   UNL     1      32.020  -3.195 -25.149  0.00  0.00    +0.137 C 
BRANCH  16  21
ATOM     21  O   UNL     1      30.106  -4.720 -22.437  0.00  0.00    -0.505 OA
ATOM     22  H   UNL     1      29.506  -5.438 -22.379  0.00  0.00    +0.292 HD
ENDBRANCH  16  21
BRANCH  20  23
ATOM     23  O   UNL     1      32.274  -1.958 -25.657  0.00  0.00    -0.505 OA
ATOM     24  H   UNL     1      33.053  -1.500 -25.409  0.00  0.00    +0.292 HD
ENDBRANCH  20  23
ENDBRANCH   7  15
TORSDOF 4
ENDMDL
MODEL 8
REMARK VINA RESULT:      -8.1      2.563      6.974
REMARK  Name = 25058141
REMARK  4 active torsions:
REMARK  status: ('A' for Active; 'I' for Inactive)
REMARK    1  A    between atoms: C_3  and  C_8
REMARK    2  A    between atoms: C_7  and  C_15
REMARK    3  A    between atoms: C_16  and  O_21
REMARK    4  A    between atoms: C_20  and  O_23
REMARK                            x       y       z     vdW  Elec       q    Type
REMARK                         _______ _______ _______ _____ _____    ______ ____
ROOT
ATOM      1  O   UNL     1      35.932 -15.757 -23.975  0.00  0.00    -0.270 OA
ATOM      2  N   UNL     1      34.093 -15.084 -22.716  0.00  0.00    -0.274 N 
ATOM      3  C   UNL     1      34.045 -13.702 -23.208  0.00  0.00    +0.098 C 
ATOM      4  C   UNL     1      33.077 -13.001 -22.246  0.00  0.00    +0.026 C 
ATOM      5  C   UNL     1      32.136 -14.117 -21.803  0.00  0.00    +0.024 C 
ATOM      6  C   UNL     1      33.055 -15.325 -21.713  0.00  0.00    +0.094 C 
ATOM      7  C   UNL     1      35.068 -15.980 -23.130  0.00  0.00    +0.252 C 
ENDROOT
BRANCH   3   8
ATOM      8  C   UNL     1      33.612 -13.574 -24.657  0.00  0.00    -0.008 C 
ATOM      9  C   UNL     1      33.781 -12.377 -25.354  0.00  0.00    -0.024 C 
ATOM     10  C   UNL     1      33.039 -14.676 -25.293  0.00  0.00    -0.003 C 
ATOM     11  C   UNL     1      33.376 -12.282 -26.685  0.00  0.00    -0.005 C 
ATOM     12  C   UNL     1      34.392 -11.184 -24.694  0.00  0.00    +0.031 C 
ATOM     13  C   UNL     1      32.635 -14.580 -26.624  0.00  0.00    -0.000 C 
ATOM     14  C   UNL     1      32.803 -13.384 -27.320  0.00  0.00    -0.000 C 
ENDBRANCH   3   8
BRANCH   7  15
ATOM     15  C   UNL     1      35.054 -17.317 -22.520  0.00  0.00    +0.087 C 
ATOM     16  C   UNL     1      34.691 -18.440 -23.265  0.00  0.00    +0.141 C 
ATOM     17  C   UNL     1      35.410 -17.454 -21.179  0.00  0.00    +0.011 C 
ATOM     18  C   UNL     1      34.684 -19.700 -22.667  0.00  0.00    +0.073 C 
ATOM     19  C   UNL     1      35.403 -18.716 -20.582  0.00  0.00    +0.037 C 
ATOM     20  C   UNL     1      35.039 -19.837 -21.326  0.00  0.00    +0.137 C 
BRANCH  16  21
ATOM     21  O   UNL     1      34.340 -18.326 -24.577  0.00  0.00    -0.505 OA
ATOM     22  H   UNL     1      34.960 -18.534 -25.248  0.00  0.00    +0.292 HD
ENDBRANCH  16  21
BRANCH  20  23
ATOM     23  O   UNL     1      35.033 -21.067 -20.742  0.00  0.00    -0.505 OA
ATOM     24  H   UNL     1      34.792 -21.157 -19.841  0.00  0.00    +0.292 HD
ENDBRANCH  20  23
ENDBRANCH   7  15
TORSDOF 4
ENDMDL
