MODEL 1
REMARK VINA RESULT:      -9.3      0.000      0.000
REMARK  Name = 162955
REMARK  5 active torsions:
REMARK  status: ('A' for Active; 'I' for Inactive)
REMARK    1  A    between atoms: C_6  and  O_21
REMARK    2  A    between atoms: C_6  and  C_26
REMARK    3  A    between atoms: C_9  and  O_23
REMARK    4  A    between atoms: C_26  and  C_27
REMARK    5  A    between atoms: C_27  and  S_28
REMARK                            x       y       z     vdW  Elec       q    Type
REMARK                         _______ _______ _______ _____ _____    ______ ____
ROOT
ATOM      1  O   UNL     1      40.135 -26.198 -14.144  0.00  0.00    -0.291 OA
ATOM      2  C   UNL     1      32.100 -23.669 -14.802  0.00  0.00    +0.031 C 
ATOM      3  C   UNL     1      33.206 -23.599 -15.876  0.00  0.00    +0.003 C 
ATOM      4  C   UNL     1      34.595 -23.275 -15.309  0.00  0.00    +0.003 C 
ATOM      5  C   UNL     1      34.993 -24.387 -14.285  0.00  0.00    +0.030 C 
ATOM      6  C   UNL     1      30.871 -23.936 -15.715  0.00  0.00    +0.140 C 
ATOM      7  C   UNL     1      32.475 -24.803 -13.826  0.00  0.00    +0.032 C 
ATOM      8  C   UNL     1      36.460 -24.207 -13.716  0.00  0.00    +0.018 C 
ATOM      9  C   UNL     1      33.883 -24.635 -13.215  0.00  0.00    +0.111 C 
ATOM     10  C   UNL     1      32.610 -22.677 -16.938  0.00  0.00    +0.003 C 
ATOM     11  C   UNL     1      31.108 -23.026 -16.943  0.00  0.00    +0.034 C 
ATOM     12  C   UNL     1      35.631 -23.198 -16.441  0.00  0.00    +0.004 C 
ATOM     13  C   UNL     1      31.899 -22.331 -14.040  0.00  0.00    +0.003 C 
ATOM     14  C   UNL     1      37.431 -24.000 -14.887  0.00  0.00    -0.042 C 
ATOM     15  C   UNL     1      37.036 -22.962 -15.908  0.00  0.00    +0.022 C 
ATOM     16  C   UNL     1      36.837 -25.499 -12.935  0.00  0.00    +0.012 C 
ATOM     17  C   UNL     1      36.615 -22.989 -12.777  0.00  0.00    +0.004 C 
ATOM     18  C   UNL     1      38.328 -25.640 -12.674  0.00  0.00    +0.069 C 
ATOM     19  C   UNL     1      38.598 -24.652 -15.022  0.00  0.00    +0.029 C 
ATOM     20  C   UNL     1      39.091 -25.572 -13.971  0.00  0.00    +0.173 C 
ENDROOT
BRANCH   6  21
ATOM     21  O   UNL     1      30.829 -25.296 -16.139  0.00  0.00    -0.380 OA
ATOM     22  H   UNL     1      29.919 -25.625 -16.077  0.00  0.00    +0.211 HD
ENDBRANCH   6  21
BRANCH   9  23
ATOM     23  O   UNL     1      33.856 -23.596 -12.246  0.00  0.00    -0.384 OA
ATOM     24  H   UNL     1      33.006 -23.131 -12.294  0.00  0.00    +0.210 HD
ENDBRANCH   9  23
BRANCH   6  26
ATOM     25  O   UNL     1      29.046 -24.578 -14.343  0.00  0.00    -0.293 OA
ATOM     26  C   UNL     1      29.552 -23.701 -15.042  0.00  0.00    +0.185 C 
BRANCH  26  27
ATOM     27  C   UNL     1      28.923 -22.345 -15.285  0.00  0.00    +0.120 C 
BRANCH  27  28
ATOM     28  S   UNL     1      27.435 -22.462 -16.303  0.00  0.00    -0.160 S 
ATOM     29  H   UNL     1      27.735 -22.122 -17.585  0.00  0.00    +0.103 HD
ENDBRANCH  27  28
ENDBRANCH  26  27
ENDBRANCH   6  26
TORSDOF 5
ENDMDL
MODEL 2
REMARK VINA RESULT:      -7.9     10.469     12.969
REMARK  Name = 162955
REMARK  5 active torsions:
REMARK  status: ('A' for Active; 'I' for Inactive)
REMARK    1  A    between atoms: C_6  and  O_21
REMARK    2  A    between atoms: C_6  and  C_26
REMARK    3  A    between atoms: C_9  and  O_23
REMARK    4  A    between atoms: C_26  and  C_27
REMARK    5  A    between atoms: C_27  and  S_28
REMARK                            x       y       z     vdW  Elec       q    Type
REMARK                         _______ _______ _______ _____ _____    ______ ____
ROOT
ATOM      1  O   UNL     1      34.303 -10.183 -25.874  0.00  0.00    -0.291 OA
ATOM      2  C   UNL     1      34.783 -17.687 -22.020  0.00  0.00    +0.031 C 
ATOM      3  C   UNL     1      34.784 -17.399 -23.537  0.00  0.00    +0.003 C 
ATOM      4  C   UNL     1      33.865 -16.238 -23.944  0.00  0.00    +0.003 C 
ATOM      5  C   UNL     1      34.337 -14.941 -23.210  0.00  0.00    +0.030 C 
ATOM      6  C   UNL     1      35.731 -18.917 -21.992  0.00  0.00    +0.140 C 
ATOM      7  C   UNL     1      35.299 -16.419 -21.309  0.00  0.00    +0.032 C 
ATOM      8  C   UNL     1      33.520 -13.656 -23.642  0.00  0.00    +0.018 C 
ATOM      9  C   UNL     1      34.494 -15.152 -21.671  0.00  0.00    +0.111 C 
ATOM     10  C   UNL     1      34.553 -18.775 -24.159  0.00  0.00    +0.003 C 
ATOM     11  C   UNL     1      35.319 -19.742 -23.233  0.00  0.00    +0.034 C 
ATOM     12  C   UNL     1      33.903 -16.034 -25.466  0.00  0.00    +0.004 C 
ATOM     13  C   UNL     1      33.387 -18.095 -21.475  0.00  0.00    +0.003 C 
ATOM     14  C   UNL     1      33.478 -13.578 -25.175  0.00  0.00    -0.042 C 
ATOM     15  C   UNL     1      33.069 -14.837 -25.897  0.00  0.00    +0.022 C 
ATOM     16  C   UNL     1      34.247 -12.405 -23.066  0.00  0.00    +0.012 C 
ATOM     17  C   UNL     1      32.055 -13.657 -23.148  0.00  0.00    +0.004 C 
ATOM     18  C   UNL     1      33.819 -11.099 -23.715  0.00  0.00    +0.069 C 
ATOM     19  C   UNL     1      33.744 -12.466 -25.880  0.00  0.00    +0.029 C 
ATOM     20  C   UNL     1      34.009 -11.173 -25.207  0.00  0.00    +0.173 C 
ENDROOT
BRANCH   6  21
ATOM     21  O   UNL     1      37.094 -18.521 -22.123  0.00  0.00    -0.380 OA
ATOM     22  H   UNL     1      37.495 -18.447 -21.242  0.00  0.00    +0.211 HD
ENDBRANCH   6  21
BRANCH   9  23
ATOM     23  O   UNL     1      33.232 -15.193 -21.022  0.00  0.00    -0.384 OA
ATOM     24  H   UNL     1      33.213 -14.536 -20.308  0.00  0.00    +0.210 HD
ENDBRANCH   9  23
BRANCH   6  26
ATOM     25  O   UNL     1      36.574 -19.581 -19.875  0.00  0.00    -0.293 OA
ATOM     26  C   UNL     1      35.678 -19.695 -20.711  0.00  0.00    +0.185 C 
BRANCH  26  27
ATOM     27  C   UNL     1      34.472 -20.596 -20.540  0.00  0.00    +0.120 C 
BRANCH  27  28
ATOM     28  S   UNL     1      34.804 -21.965 -19.408  0.00  0.00    -0.160 S 
ATOM     29  H   UNL     1      34.871 -21.493 -18.135  0.00  0.00    +0.103 HD
ENDBRANCH  27  28
ENDBRANCH  26  27
ENDBRANCH   6  26
TORSDOF 5
ENDMDL
MODEL 3
REMARK VINA RESULT:      -7.3     14.445     16.413
REMARK  Name = 162955
REMARK  5 active torsions:
REMARK  status: ('A' for Active; 'I' for Inactive)
REMARK    1  A    between atoms: C_6  and  O_21
REMARK    2  A    between atoms: C_6  and  C_26
REMARK    3  A    between atoms: C_9  and  O_23
REMARK    4  A    between atoms: C_26  and  C_27
REMARK    5  A    between atoms: C_27  and  S_28
REMARK                            x       y       z     vdW  Elec       q    Type
REMARK                         _______ _______ _______ _____ _____    ______ ____
ROOT
ATOM      1  O   UNL     1      34.597 -16.828 -20.879  0.00  0.00    -0.291 OA
ATOM      2  C   UNL     1      33.201  -8.965 -23.637  0.00  0.00    +0.031 C 
ATOM      3  C   UNL     1      32.826  -9.569 -22.267  0.00  0.00    +0.003 C 
ATOM      4  C   UNL     1      32.382 -11.037 -22.341  0.00  0.00    +0.003 C 
ATOM      5  C   UNL     1      33.552 -11.887 -22.935  0.00  0.00    +0.030 C 
ATOM      6  C   UNL     1      33.518  -7.509 -23.198  0.00  0.00    +0.140 C 
ATOM      7  C   UNL     1      34.389  -9.779 -24.191  0.00  0.00    +0.032 C 
ATOM      8  C   UNL     1      33.239 -13.439 -22.957  0.00  0.00    +0.018 C 
ATOM      9  C   UNL     1      34.101 -11.294 -24.271  0.00  0.00    +0.111 C 
ATOM     10  C   UNL     1      31.866  -8.538 -21.676  0.00  0.00    +0.003 C 
ATOM     11  C   UNL     1      32.427  -7.182 -22.153  0.00  0.00    +0.034 C 
ATOM     12  C   UNL     1      32.004 -11.553 -20.945  0.00  0.00    +0.004 C 
ATOM     13  C   UNL     1      32.020  -8.958 -24.647  0.00  0.00    +0.003 C 
ATOM     14  C   UNL     1      32.737 -13.870 -21.571  0.00  0.00    -0.042 C 
ATOM     15  C   UNL     1      31.640 -13.029 -20.966  0.00  0.00    +0.022 C 
ATOM     16  C   UNL     1      34.555 -14.193 -23.304  0.00  0.00    +0.012 C 
ATOM     17  C   UNL     1      32.148 -13.836 -23.978  0.00  0.00    +0.004 C 
ATOM     18  C   UNL     1      34.511 -15.677 -22.977  0.00  0.00    +0.069 C 
ATOM     19  C   UNL     1      33.188 -14.948 -20.908  0.00  0.00    +0.029 C 
ATOM     20  C   UNL     1      34.159 -15.880 -21.527  0.00  0.00    +0.173 C 
ENDROOT
BRANCH   6  21
ATOM     21  O   UNL     1      34.800  -7.424 -22.582  0.00  0.00    -0.380 OA
ATOM     22  H   UNL     1      34.793  -7.924 -21.751  0.00  0.00    +0.211 HD
ENDBRANCH   6  21
BRANCH   9  23
ATOM     23  O   UNL     1      33.217 -11.549 -25.353  0.00  0.00    -0.384 OA
ATOM     24  H   UNL     1      32.665 -10.767 -25.512  0.00  0.00    +0.210 HD
ENDBRANCH   9  23
BRANCH   6  26
ATOM     25  O   UNL     1      34.529  -6.526 -25.107  0.00  0.00    -0.293 OA
ATOM     26  C   UNL     1      33.571  -6.531 -24.334  0.00  0.00    +0.185 C 
BRANCH  26  27
ATOM     27  C   UNL     1      32.390  -5.589 -24.444  0.00  0.00    +0.120 C 
BRANCH  27  28
ATOM     28  S   UNL     1      32.499  -4.537 -25.910  0.00  0.00    -0.160 S 
ATOM     29  H   UNL     1      33.743  -4.637 -26.448  0.00  0.00    +0.103 HD
ENDBRANCH  27  28
ENDBRANCH  26  27
ENDBRANCH   6  26
TORSDOF 5
ENDMDL
MODEL 4
REMARK VINA RESULT:      -7.3      3.816      6.918
REMARK  Name = 162955
REMARK  5 active torsions:
REMARK  status: ('A' for Active; 'I' for Inactive)
REMARK    1  A    between atoms: C_6  and  O_21
REMARK    2  A    between atoms: C_6  and  C_26
REMARK    3  A    between atoms: C_9  and  O_23
REMARK    4  A    between atoms: C_26  and  C_27
REMARK    5  A    between atoms: C_27  and  S_28
REMARK                            x       y       z     vdW  Elec       q    Type
REMARK                         _______ _______ _______ _____ _____    ______ ____
ROOT
ATOM      1  O   UNL     1      33.599 -18.555 -21.631  0.00  0.00    -0.291 OA
ATOM      2  C   UNL     1      35.520 -23.692 -15.204  0.00  0.00    +0.031 C 
ATOM      3  C   UNL     1      36.448 -22.692 -15.927  0.00  0.00    +0.003 C 
ATOM      4  C   UNL     1      36.187 -22.591 -17.437  0.00  0.00    +0.003 C 
ATOM      5  C   UNL     1      34.712 -22.128 -17.664  0.00  0.00    +0.030 C 
ATOM      6  C   UNL     1      36.097 -23.584 -13.766  0.00  0.00    +0.140 C 
ATOM      7  C   UNL     1      34.071 -23.198 -15.391  0.00  0.00    +0.032 C 
ATOM      8  C   UNL     1      34.369 -21.888 -19.191  0.00  0.00    +0.018 C 
ATOM      9  C   UNL     1      33.686 -22.998 -16.873  0.00  0.00    +0.111 C 
ATOM     10  C   UNL     1      37.841 -23.087 -15.443  0.00  0.00    +0.003 C 
ATOM     11  C   UNL     1      37.627 -23.510 -13.975  0.00  0.00    +0.034 C 
ATOM     12  C   UNL     1      37.165 -21.598 -18.083  0.00  0.00    +0.004 C 
ATOM     13  C   UNL     1      35.674 -25.151 -15.717  0.00  0.00    +0.003 C 
ATOM     14  C   UNL     1      35.452 -20.998 -19.817  0.00  0.00    -0.042 C 
ATOM     15  C   UNL     1      36.882 -21.408 -19.565  0.00  0.00    +0.022 C 
ATOM     16  C   UNL     1      32.986 -21.177 -19.270  0.00  0.00    +0.012 C 
ATOM     17  C   UNL     1      34.312 -23.188 -20.025  0.00  0.00    +0.004 C 
ATOM     18  C   UNL     1      32.707 -20.534 -20.618  0.00  0.00    +0.069 C 
ATOM     19  C   UNL     1      35.196 -19.925 -20.584  0.00  0.00    +0.029 C 
ATOM     20  C   UNL     1      33.811 -19.572 -20.974  0.00  0.00    +0.173 C 
ENDROOT
BRANCH   6  21
ATOM     21  O   UNL     1      35.652 -22.394 -13.120  0.00  0.00    -0.380 OA
ATOM     22  H   UNL     1      36.244 -21.660 -13.352  0.00  0.00    +0.211 HD
ENDBRANCH   6  21
BRANCH   9  23
ATOM     23  O   UNL     1      33.499 -24.266 -17.487  0.00  0.00    -0.384 OA
ATOM     24  H   UNL     1      34.332 -24.555 -17.892  0.00  0.00    +0.210 HD
ENDBRANCH   9  23
BRANCH   6  26
ATOM     25  O   UNL     1      34.487 -24.832 -12.549  0.00  0.00    -0.293 OA
ATOM     26  C   UNL     1      35.671 -24.697 -12.856  0.00  0.00    +0.185 C 
BRANCH  26  27
ATOM     27  C   UNL     1      36.779 -25.607 -12.369  0.00  0.00    +0.120 C 
BRANCH  27  28
ATOM     28  S   UNL     1      37.220 -26.856 -13.599  0.00  0.00    -0.160 S 
ATOM     29  H   UNL     1      36.934 -26.387 -14.842  0.00  0.00    +0.103 HD
ENDBRANCH  27  28
ENDBRANCH  26  27
ENDBRANCH   6  26
TORSDOF 5
ENDMDL
MODEL 5
REMARK VINA RESULT:      -7.1     14.449     16.880
REMARK  Name = 162955
REMARK  5 active torsions:
REMARK  status: ('A' for Active; 'I' for Inactive)
REMARK    1  A    between atoms: C_6  and  O_21
REMARK    2  A    between atoms: C_6  and  C_26
REMARK    3  A    between atoms: C_9  and  O_23
REMARK    4  A    between atoms: C_26  and  C_27
REMARK    5  A    between atoms: C_27  and  S_28
REMARK                            x       y       z     vdW  Elec       q    Type
REMARK                         _______ _______ _______ _____ _____    ______ ____
ROOT
ATOM      1  O   UNL     1      30.581  -4.615 -23.216  0.00  0.00    -0.291 OA
ATOM      2  C   UNL     1      33.320 -12.607 -23.347  0.00  0.00    +0.031 C 
ATOM      3  C   UNL     1      32.303 -11.970 -22.375  0.00  0.00    +0.003 C 
ATOM      4  C   UNL     1      32.638 -10.520 -21.997  0.00  0.00    +0.003 C 
ATOM      5  C   UNL     1      32.666  -9.654 -23.298  0.00  0.00    +0.030 C 
ATOM      6  C   UNL     1      32.720 -14.037 -23.445  0.00  0.00    +0.140 C 
ATOM      7  C   UNL     1      33.301 -11.775 -24.646  0.00  0.00    +0.032 C 
ATOM      8  C   UNL     1      32.898  -8.114 -23.010  0.00  0.00    +0.018 C 
ATOM      9  C   UNL     1      33.572 -10.274 -24.408  0.00  0.00    +0.111 C 
ATOM     10  C   UNL     1      32.174 -13.010 -21.265  0.00  0.00    +0.003 C 
ATOM     11  C   UNL     1      32.279 -14.363 -21.999  0.00  0.00    +0.034 C 
ATOM     12  C   UNL     1      31.597  -9.970 -21.012  0.00  0.00    +0.004 C 
ATOM     13  C   UNL     1      34.757 -12.686 -22.764  0.00  0.00    +0.003 C 
ATOM     14  C   UNL     1      31.919  -7.653 -21.921  0.00  0.00    -0.042 C 
ATOM     15  C   UNL     1      31.849  -8.507 -20.680  0.00  0.00    +0.022 C 
ATOM     16  C   UNL     1      32.634  -7.331 -24.329  0.00  0.00    +0.012 C 
ATOM     17  C   UNL     1      34.323  -7.786 -22.508  0.00  0.00    +0.004 C 
ATOM     18  C   UNL     1      32.431  -5.839 -24.121  0.00  0.00    +0.069 C 
ATOM     19  C   UNL     1      31.172  -6.539 -22.003  0.00  0.00    +0.029 C 
ATOM     20  C   UNL     1      31.315  -5.598 -23.138  0.00  0.00    +0.173 C 
ENDROOT
BRANCH   6  21
ATOM     21  O   UNL     1      31.580 -14.060 -24.300  0.00  0.00    -0.380 OA
ATOM     22  H   UNL     1      31.675 -14.779 -24.945  0.00  0.00    +0.211 HD
ENDBRANCH   6  21
BRANCH   9  23
ATOM     23  O   UNL     1      34.950 -10.083 -24.119  0.00  0.00    -0.384 OA
ATOM     24  H   UNL     1      35.057  -9.871 -23.178  0.00  0.00    +0.210 HD
ENDBRANCH   9  23
BRANCH   6  26
ATOM     25  O   UNL     1      33.825 -15.118 -25.245  0.00  0.00    -0.293 OA
ATOM     26  C   UNL     1      33.659 -15.050 -24.027  0.00  0.00    +0.185 C 
BRANCH  26  27
ATOM     27  C   UNL     1      34.359 -15.947 -23.027  0.00  0.00    +0.120 C 
BRANCH  27  28
ATOM     28  S   UNL     1      34.923 -17.490 -23.781  0.00  0.00    -0.160 S 
ATOM     29  H   UNL     1      34.416 -18.544 -23.089  0.00  0.00    +0.103 HD
ENDBRANCH  27  28
ENDBRANCH  26  27
ENDBRANCH   6  26
TORSDOF 5
ENDMDL
MODEL 6
REMARK VINA RESULT:      -7.1      3.041      7.194
REMARK  Name = 162955
REMARK  5 active torsions:
REMARK  status: ('A' for Active; 'I' for Inactive)
REMARK    1  A    between atoms: C_6  and  O_21
REMARK    2  A    between atoms: C_6  and  C_26
REMARK    3  A    between atoms: C_9  and  O_23
REMARK    4  A    between atoms: C_26  and  C_27
REMARK    5  A    between atoms: C_27  and  S_28
REMARK                            x       y       z     vdW  Elec       q    Type
REMARK                         _______ _______ _______ _____ _____    ______ ____
ROOT
ATOM      1  O   UNL     1      27.806 -21.670 -15.946  0.00  0.00    -0.291 OA
ATOM      2  C   UNL     1      35.630 -24.210 -14.016  0.00  0.00    +0.031 C 
ATOM      3  C   UNL     1      35.195 -23.267 -15.159  0.00  0.00    +0.003 C 
ATOM      4  C   UNL     1      33.857 -23.658 -15.803  0.00  0.00    +0.003 C 
ATOM      5  C   UNL     1      32.742 -23.628 -14.707  0.00  0.00    +0.030 C 
ATOM      6  C   UNL     1      37.003 -23.572 -13.667  0.00  0.00    +0.140 C 
ATOM      7  C   UNL     1      34.549 -24.134 -12.918  0.00  0.00    +0.032 C 
ATOM      8  C   UNL     1      31.297 -23.913 -15.288  0.00  0.00    +0.018 C 
ATOM      9  C   UNL     1      33.131 -24.453 -13.440  0.00  0.00    +0.111 C 
ATOM     10  C   UNL     1      36.439 -23.180 -16.040  0.00  0.00    +0.003 C 
ATOM     11  C   UNL     1      37.614 -23.210 -15.040  0.00  0.00    +0.034 C 
ATOM     12  C   UNL     1      33.509 -22.689 -16.943  0.00  0.00    +0.004 C 
ATOM     13  C   UNL     1      35.842 -25.677 -14.480  0.00  0.00    +0.003 C 
ATOM     14  C   UNL     1      31.058 -23.011 -16.507  0.00  0.00    -0.042 C 
ATOM     15  C   UNL     1      32.148 -22.994 -17.551  0.00  0.00    +0.022 C 
ATOM     16  C   UNL     1      30.257 -23.590 -14.176  0.00  0.00    +0.012 C 
ATOM     17  C   UNL     1      31.094 -25.372 -15.757  0.00  0.00    +0.004 C 
ATOM     18  C   UNL     1      28.838 -23.434 -14.697  0.00  0.00    +0.069 C 
ATOM     19  C   UNL     1      29.944 -22.286 -16.702  0.00  0.00    +0.029 C 
ATOM     20  C   UNL     1      28.792 -22.384 -15.776  0.00  0.00    +0.173 C 
ENDROOT
BRANCH   6  21
ATOM     21  O   UNL     1      36.838 -22.384 -12.898  0.00  0.00    -0.380 OA
ATOM     22  H   UNL     1      36.739 -21.624 -13.494  0.00  0.00    +0.211 HD
ENDBRANCH   6  21
BRANCH   9  23
ATOM     23  O   UNL     1      33.019 -25.849 -13.675  0.00  0.00    -0.384 OA
ATOM     24  H   UNL     1      33.396 -26.335 -12.925  0.00  0.00    +0.210 HD
ENDBRANCH   9  23
BRANCH   6  26
ATOM     25  O   UNL     1      38.111 -24.170 -11.655  0.00  0.00    -0.293 OA
ATOM     26  C   UNL     1      37.885 -24.451 -12.832  0.00  0.00    +0.185 C 
BRANCH  26  27
ATOM     27  C   UNL     1      38.450 -25.669 -13.534  0.00  0.00    +0.120 C 
BRANCH  27  28
ATOM     28  S   UNL     1      40.162 -25.417 -14.055  0.00  0.00    -0.160 S 
ATOM     29  H   UNL     1      40.843 -26.589 -13.957  0.00  0.00    +0.103 HD
ENDBRANCH  27  28
ENDBRANCH  26  27
ENDBRANCH   6  26
TORSDOF 5
ENDMDL
MODEL 7
REMARK VINA RESULT:      -6.6     14.140     16.135
REMARK  Name = 162955
REMARK  5 active torsions:
REMARK  status: ('A' for Active; 'I' for Inactive)
REMARK    1  A    between atoms: C_6  and  O_21
REMARK    2  A    between atoms: C_6  and  C_26
REMARK    3  A    between atoms: C_9  and  O_23
REMARK    4  A    between atoms: C_26  and  C_27
REMARK    5  A    between atoms: C_27  and  S_28
REMARK                            x       y       z     vdW  Elec       q    Type
REMARK                         _______ _______ _______ _____ _____    ______ ____
ROOT
ATOM      1  O   UNL     1      34.938 -17.390 -21.927  0.00  0.00    -0.291 OA
ATOM      2  C   UNL     1      33.068  -9.284 -23.402  0.00  0.00    +0.031 C 
ATOM      3  C   UNL     1      32.797 -10.100 -22.120  0.00  0.00    +0.003 C 
ATOM      4  C   UNL     1      32.410 -11.561 -22.391  0.00  0.00    +0.003 C 
ATOM      5  C   UNL     1      33.577 -12.256 -23.164  0.00  0.00    +0.030 C 
ATOM      6  C   UNL     1      33.351  -7.894 -22.767  0.00  0.00    +0.140 C 
ATOM      7  C   UNL     1      34.254  -9.948 -24.131  0.00  0.00    +0.032 C 
ATOM      8  C   UNL     1      33.326 -13.801 -23.402  0.00  0.00    +0.018 C 
ATOM      9  C   UNL     1      34.023 -11.447 -24.422  0.00  0.00    +0.111 C 
ATOM     10  C   UNL     1      31.833  -9.215 -21.334  0.00  0.00    +0.003 C 
ATOM     11  C   UNL     1      32.309  -7.778 -21.630  0.00  0.00    +0.034 C 
ATOM     12  C   UNL     1      32.134 -12.295 -21.070  0.00  0.00    +0.004 C 
ATOM     13  C   UNL     1      31.832  -9.185 -24.338  0.00  0.00    +0.003 C 
ATOM     14  C   UNL     1      32.923 -14.456 -22.073  0.00  0.00    -0.042 C 
ATOM     15  C   UNL     1      31.829 -13.768 -21.294  0.00  0.00    +0.022 C 
ATOM     16  C   UNL     1      34.650 -14.432 -23.925  0.00  0.00    +0.012 C 
ATOM     17  C   UNL     1      32.196 -14.097 -24.415  0.00  0.00    +0.004 C 
ATOM     18  C   UNL     1      34.685 -15.948 -23.822  0.00  0.00    +0.069 C 
ATOM     19  C   UNL     1      33.455 -15.597 -21.603  0.00  0.00    +0.029 C 
ATOM     20  C   UNL     1      34.425 -16.379 -22.403  0.00  0.00    +0.173 C 
ENDROOT
BRANCH   6  21
ATOM     21  O   UNL     1      34.662  -7.839 -22.211  0.00  0.00    -0.380 OA
ATOM     22  H   UNL     1      34.603  -7.858 -21.242  0.00  0.00    +0.211 HD
ENDBRANCH   6  21
BRANCH   9  23
ATOM     23  O   UNL     1      33.090 -11.583 -25.484  0.00  0.00    -0.384 OA
ATOM     24  H   UNL     1      33.283 -12.392 -25.983  0.00  0.00    +0.210 HD
ENDBRANCH   9  23
BRANCH   6  26
ATOM     25  O   UNL     1      32.355  -5.968 -23.731  0.00  0.00    -0.293 OA
ATOM     26  C   UNL     1      33.299  -6.758 -23.744  0.00  0.00    +0.185 C 
BRANCH  26  27
ATOM     27  C   UNL     1      34.463  -6.668 -24.709  0.00  0.00    +0.120 C 
BRANCH  27  28
ATOM     28  S   UNL     1      34.124  -5.536 -26.076  0.00  0.00    -0.160 S 
ATOM     29  H   UNL     1      35.279  -4.930 -26.459  0.00  0.00    +0.103 HD
ENDBRANCH  27  28
ENDBRANCH  26  27
ENDBRANCH   6  26
TORSDOF 5
ENDMDL
