MODEL 1
REMARK VINA RESULT:      -7.1      0.000      0.000
REMARK  Name = 16122577
REMARK  7 active torsions:
REMARK  status: ('A' for Active; 'I' for Inactive)
REMARK    1  A    between atoms: C_1  and  C_2
REMARK    2  A    between atoms: C_1  and  C_10
REMARK    3  A    between atoms: C_2  and  C_3
REMARK    4  A    between atoms: C_3  and  C_4
REMARK    5  A    between atoms: C_4  and  N_5
REMARK    6  A    between atoms: C_10  and  C_11
REMARK    7  A    between atoms: C_11  and  N_12
REMARK                            x       y       z     vdW  Elec       q    Type
REMARK                         _______ _______ _______ _____ _____    ______ ____
ROOT
ATOM      1  C   UNL     1      34.655 -16.235 -20.830  0.00  0.00    +0.002 C 
ENDROOT
BRANCH   1   2
ATOM      2  C   UNL     1      35.318 -17.435 -21.511  0.00  0.00    +0.002 C 
BRANCH   2   3
ATOM      3  C   UNL     1      34.473 -18.700 -21.348  0.00  0.00    +0.022 C 
BRANCH   3   4
ATOM      4  C   UNL     1      35.280 -19.899 -20.844  0.00  0.00    +0.097 C 
BRANCH   4   5
ATOM      5  N   UNL     1      34.505 -20.837 -20.041  0.00  0.00    -0.268 N 
ATOM      6  N   UNL     1      32.754 -21.805 -19.111  0.00  0.00    -0.225 NA
ATOM      7  C   UNL     1      35.011 -21.863 -19.310  0.00  0.00    +0.087 C 
ATOM      8  C   UNL     1      33.155 -20.832 -19.899  0.00  0.00    +0.168 C 
ATOM      9  C   UNL     1      33.906 -22.451 -18.740  0.00  0.00    +0.117 C 
ENDBRANCH   4   5
ENDBRANCH   3   4
ENDBRANCH   2   3
ENDBRANCH   1   2
BRANCH   1  10
ATOM     10  C   UNL     1      33.627 -15.572 -21.751  0.00  0.00    +0.022 C 
BRANCH  10  11
ATOM     11  C   UNL     1      34.264 -14.677 -22.816  0.00  0.00    +0.097 C 
BRANCH  11  12
ATOM     12  N   UNL     1      33.890 -15.028 -24.181  0.00  0.00    -0.268 N 
ATOM     13  N   UNL     1      33.748 -16.192 -26.050  0.00  0.00    -0.225 NA
ATOM     14  C   UNL     1      33.136 -14.269 -25.018  0.00  0.00    +0.087 C 
ATOM     15  C   UNL     1      34.238 -16.169 -24.830  0.00  0.00    +0.168 C 
ATOM     16  C   UNL     1      33.060 -15.011 -26.173  0.00  0.00    +0.117 C 
ENDBRANCH  11  12
ENDBRANCH  10  11
ENDBRANCH   1  10
TORSDOF 7
ENDMDL
MODEL 2
REMARK VINA RESULT:      -7.0      0.567      7.137
REMARK  Name = 16122577
REMARK  7 active torsions:
REMARK  status: ('A' for Active; 'I' for Inactive)
REMARK    1  A    between atoms: C_1  and  C_2
REMARK    2  A    between atoms: C_1  and  C_10
REMARK    3  A    between atoms: C_2  and  C_3
REMARK    4  A    between atoms: C_3  and  C_4
REMARK    5  A    between atoms: C_4  and  N_5
REMARK    6  A    between atoms: C_10  and  C_11
REMARK    7  A    between atoms: C_11  and  N_12
REMARK                            x       y       z     vdW  Elec       q    Type
REMARK                         _______ _______ _______ _____ _____    ______ ____
ROOT
ATOM      1  C   UNL     1      34.651 -16.775 -21.190  0.00  0.00    +0.002 C 
ENDROOT
BRANCH   1   2
ATOM      2  C   UNL     1      33.334 -16.027 -20.974  0.00  0.00    +0.002 C 
BRANCH   2   3
ATOM      3  C   UNL     1      33.243 -14.794 -21.875  0.00  0.00    +0.022 C 
BRANCH   3   4
ATOM      4  C   UNL     1      34.343 -14.746 -22.938  0.00  0.00    +0.097 C 
BRANCH   4   5
ATOM      5  N   UNL     1      33.872 -15.026 -24.290  0.00  0.00    -0.268 N 
ATOM      6  N   UNL     1      33.553 -16.116 -26.181  0.00  0.00    -0.225 NA
ATOM      7  C   UNL     1      33.118 -14.198 -25.055  0.00  0.00    +0.087 C 
ATOM      8  C   UNL     1      34.113 -16.162 -24.993  0.00  0.00    +0.168 C 
ATOM      9  C   UNL     1      32.932 -14.893 -26.227  0.00  0.00    +0.117 C 
ENDBRANCH   4   5
ENDBRANCH   3   4
ENDBRANCH   2   3
ENDBRANCH   1   2
BRANCH   1  10
ATOM     10  C   UNL     1      34.405 -18.201 -21.691  0.00  0.00    +0.022 C 
BRANCH  10  11
ATOM     11  C   UNL     1      35.286 -19.242 -20.995  0.00  0.00    +0.097 C 
BRANCH  11  12
ATOM     12  N   UNL     1      34.536 -20.318 -20.360  0.00  0.00    -0.268 N 
ATOM     13  N   UNL     1      32.810 -21.526 -19.702  0.00  0.00    -0.225 NA
ATOM     14  C   UNL     1      35.070 -21.356 -19.666  0.00  0.00    +0.087 C 
ATOM     15  C   UNL     1      33.184 -20.451 -20.361  0.00  0.00    +0.168 C 
ATOM     16  C   UNL     1      33.981 -22.094 -19.266  0.00  0.00    +0.117 C 
ENDBRANCH  11  12
ENDBRANCH  10  11
ENDBRANCH   1  10
TORSDOF 7
ENDMDL
MODEL 3
REMARK VINA RESULT:      -6.9      1.394      2.348
REMARK  Name = 16122577
REMARK  7 active torsions:
REMARK  status: ('A' for Active; 'I' for Inactive)
REMARK    1  A    between atoms: C_1  and  C_2
REMARK    2  A    between atoms: C_1  and  C_10
REMARK    3  A    between atoms: C_2  and  C_3
REMARK    4  A    between atoms: C_3  and  C_4
REMARK    5  A    between atoms: C_4  and  N_5
REMARK    6  A    between atoms: C_10  and  C_11
REMARK    7  A    between atoms: C_11  and  N_12
REMARK                            x       y       z     vdW  Elec       q    Type
REMARK                         _______ _______ _______ _____ _____    ______ ____
ROOT
ATOM      1  C   UNL     1      34.583 -18.530 -24.626  0.00  0.00    +0.002 C 
ENDROOT
BRANCH   1   2
ATOM      2  C   UNL     1      35.322 -18.675 -23.294  0.00  0.00    +0.002 C 
BRANCH   2   3
ATOM      3  C   UNL     1      34.409 -19.257 -22.213  0.00  0.00    +0.022 C 
BRANCH   3   4
ATOM      4  C   UNL     1      35.161 -19.649 -20.939  0.00  0.00    +0.097 C 
BRANCH   4   5
ATOM      5  N   UNL     1      34.485 -20.668 -20.144  0.00  0.00    -0.268 N 
ATOM      6  N   UNL     1      32.843 -21.799 -19.201  0.00  0.00    -0.225 NA
ATOM      7  C   UNL     1      35.091 -21.667 -19.454  0.00  0.00    +0.087 C 
ATOM      8  C   UNL     1      33.143 -20.777 -19.971  0.00  0.00    +0.168 C 
ATOM      9  C   UNL     1      34.053 -22.357 -18.875  0.00  0.00    +0.117 C 
ENDBRANCH   4   5
ENDBRANCH   3   4
ENDBRANCH   2   3
ENDBRANCH   1   2
BRANCH   1  10
ATOM     10  C   UNL     1      34.328 -17.059 -24.964  0.00  0.00    +0.022 C 
BRANCH  10  11
ATOM     11  C   UNL     1      34.875 -16.097 -23.906  0.00  0.00    +0.097 C 
BRANCH  11  12
ATOM     12  N   UNL     1      33.861 -15.230 -23.317  0.00  0.00    -0.268 N 
ATOM     13  N   UNL     1      32.336 -14.501 -21.899  0.00  0.00    -0.225 NA
ATOM     14  C   UNL     1      33.435 -14.047 -23.829  0.00  0.00    +0.087 C 
ATOM     15  C   UNL     1      33.184 -15.470 -22.165  0.00  0.00    +0.168 C 
ATOM     16  C   UNL     1      32.487 -13.611 -22.933  0.00  0.00    +0.117 C 
ENDBRANCH  11  12
ENDBRANCH  10  11
ENDBRANCH   1  10
TORSDOF 7
ENDMDL
MODEL 4
REMARK VINA RESULT:      -6.8      1.492      7.137
REMARK  Name = 16122577
REMARK  7 active torsions:
REMARK  status: ('A' for Active; 'I' for Inactive)
REMARK    1  A    between atoms: C_1  and  C_2
REMARK    2  A    between atoms: C_1  and  C_10
REMARK    3  A    between atoms: C_2  and  C_3
REMARK    4  A    between atoms: C_3  and  C_4
REMARK    5  A    between atoms: C_4  and  N_5
REMARK    6  A    between atoms: C_10  and  C_11
REMARK    7  A    between atoms: C_11  and  N_12
REMARK                            x       y       z     vdW  Elec       q    Type
REMARK                         _______ _______ _______ _____ _____    ______ ____
ROOT
ATOM      1  C   UNL     1      35.419 -18.625 -23.465  0.00  0.00    +0.002 C 
ENDROOT
BRANCH   1   2
ATOM      2  C   UNL     1      34.613 -18.142 -24.673  0.00  0.00    +0.002 C 
BRANCH   2   3
ATOM      3  C   UNL     1      34.726 -16.626 -24.845  0.00  0.00    +0.022 C 
BRANCH   3   4
ATOM      4  C   UNL     1      34.987 -15.891 -23.527  0.00  0.00    +0.097 C 
BRANCH   4   5
ATOM      5  N   UNL     1      33.949 -14.932 -23.169  0.00  0.00    -0.268 N 
ATOM      6  N   UNL     1      32.278 -14.016 -22.058  0.00  0.00    -0.225 NA
ATOM      7  C   UNL     1      33.670 -13.781 -23.831  0.00  0.00    +0.087 C 
ATOM      8  C   UNL     1      33.099 -15.041 -22.116  0.00  0.00    +0.168 C 
ATOM      9  C   UNL     1      32.628 -13.227 -23.124  0.00  0.00    +0.117 C 
ENDBRANCH   4   5
ENDBRANCH   3   4
ENDBRANCH   2   3
ENDBRANCH   1   2
BRANCH   1  10
ATOM     10  C   UNL     1      34.531 -19.378 -22.470  0.00  0.00    +0.022 C 
BRANCH  10  11
ATOM     11  C   UNL     1      35.202 -19.593 -21.111  0.00  0.00    +0.097 C 
BRANCH  11  12
ATOM     12  N   UNL     1      34.544 -20.595 -20.281  0.00  0.00    -0.268 N 
ATOM     13  N   UNL     1      32.924 -21.702 -19.273  0.00  0.00    -0.225 NA
ATOM     14  C   UNL     1      35.165 -21.585 -19.590  0.00  0.00    +0.087 C 
ATOM     15  C   UNL     1      33.207 -20.694 -20.069  0.00  0.00    +0.168 C 
ATOM     16  C   UNL     1      34.140 -22.261 -18.970  0.00  0.00    +0.117 C 
ENDBRANCH  11  12
ENDBRANCH  10  11
ENDBRANCH   1  10
TORSDOF 7
ENDMDL
MODEL 5
REMARK VINA RESULT:      -6.7      1.783      8.009
REMARK  Name = 16122577
REMARK  7 active torsions:
REMARK  status: ('A' for Active; 'I' for Inactive)
REMARK    1  A    between atoms: C_1  and  C_2
REMARK    2  A    between atoms: C_1  and  C_10
REMARK    3  A    between atoms: C_2  and  C_3
REMARK    4  A    between atoms: C_3  and  C_4
REMARK    5  A    between atoms: C_4  and  N_5
REMARK    6  A    between atoms: C_10  and  C_11
REMARK    7  A    between atoms: C_11  and  N_12
REMARK                            x       y       z     vdW  Elec       q    Type
REMARK                         _______ _______ _______ _____ _____    ______ ____
ROOT
ATOM      1  C   UNL     1      33.358 -19.951 -20.757  0.00  0.00    +0.002 C 
ENDROOT
BRANCH   1   2
ATOM      2  C   UNL     1      34.656 -19.192 -21.041  0.00  0.00    +0.002 C 
BRANCH   2   3
ATOM      3  C   UNL     1      34.372 -17.793 -21.590  0.00  0.00    +0.022 C 
BRANCH   3   4
ATOM      4  C   UNL     1      35.348 -17.371 -22.691  0.00  0.00    +0.097 C 
BRANCH   4   5
ATOM      5  N   UNL     1      34.715 -16.688 -23.813  0.00  0.00    -0.268 N 
ATOM      6  N   UNL     1      34.099 -16.258 -25.887  0.00  0.00    -0.225 NA
ATOM      7  C   UNL     1      33.969 -15.558 -23.736  0.00  0.00    +0.087 C 
ATOM      8  C   UNL     1      34.772 -17.079 -25.112  0.00  0.00    +0.168 C 
ATOM      9  C   UNL     1      33.596 -15.307 -25.036  0.00  0.00    +0.117 C 
ENDBRANCH   4   5
ENDBRANCH   3   4
ENDBRANCH   2   3
ENDBRANCH   1   2
BRANCH   1  10
ATOM     10  C   UNL     1      33.584 -21.082 -19.750  0.00  0.00    +0.022 C 
BRANCH  10  11
ATOM     11  C   UNL     1      35.028 -21.589 -19.732  0.00  0.00    +0.097 C 
BRANCH  11  12
ATOM     12  N   UNL     1      35.492 -22.000 -18.412  0.00  0.00    -0.268 N 
ATOM     13  N   UNL     1      35.478 -22.947 -16.419  0.00  0.00    -0.225 NA
ATOM     14  C   UNL     1      36.700 -21.704 -17.868  0.00  0.00    +0.087 C 
ATOM     15  C   UNL     1      34.788 -22.743 -17.520  0.00  0.00    +0.168 C 
ATOM     16  C   UNL     1      36.670 -22.301 -16.630  0.00  0.00    +0.117 C 
ENDBRANCH  11  12
ENDBRANCH  10  11
ENDBRANCH   1  10
TORSDOF 7
ENDMDL
MODEL 6
REMARK VINA RESULT:      -6.6      5.027      8.317
REMARK  Name = 16122577
REMARK  7 active torsions:
REMARK  status: ('A' for Active; 'I' for Inactive)
REMARK    1  A    between atoms: C_1  and  C_2
REMARK    2  A    between atoms: C_1  and  C_10
REMARK    3  A    between atoms: C_2  and  C_3
REMARK    4  A    between atoms: C_3  and  C_4
REMARK    5  A    between atoms: C_4  and  N_5
REMARK    6  A    between atoms: C_10  and  C_11
REMARK    7  A    between atoms: C_11  and  N_12
REMARK                            x       y       z     vdW  Elec       q    Type
REMARK                         _______ _______ _______ _____ _____    ______ ____
ROOT
ATOM      1  C   UNL     1      33.326 -23.390 -15.344  0.00  0.00    +0.002 C 
ENDROOT
BRANCH   1   2
ATOM      2  C   UNL     1      31.863 -23.164 -15.732  0.00  0.00    +0.002 C 
BRANCH   2   3
ATOM      3  C   UNL     1      30.943 -23.278 -14.514  0.00  0.00    +0.022 C 
BRANCH   3   4
ATOM      4  C   UNL     1      29.716 -24.157 -14.769  0.00  0.00    +0.097 C 
BRANCH   4   5
ATOM      5  N   UNL     1      28.794 -23.612 -15.759  0.00  0.00    -0.268 N 
ATOM      6  N   UNL     1      27.539 -23.496 -17.569  0.00  0.00    -0.225 NA
ATOM      7  C   UNL     1      28.215 -22.386 -15.713  0.00  0.00    +0.087 C 
ATOM      8  C   UNL     1      28.368 -24.248 -16.880  0.00  0.00    +0.168 C 
ATOM      9  C   UNL     1      27.440 -22.334 -16.847  0.00  0.00    +0.117 C 
ENDBRANCH   4   5
ENDBRANCH   3   4
ENDBRANCH   2   3
ENDBRANCH   1   2
BRANCH   1  10
ATOM     10  C   UNL     1      34.254 -23.217 -16.549  0.00  0.00    +0.022 C 
BRANCH  10  11
ATOM     11  C   UNL     1      33.499 -23.100 -17.876  0.00  0.00    +0.097 C 
BRANCH  11  12
ATOM     12  N   UNL     1      34.076 -22.132 -18.800  0.00  0.00    -0.268 N 
ATOM     13  N   UNL     1      35.604 -20.998 -19.917  0.00  0.00    -0.225 NA
ATOM     14  C   UNL     1      33.379 -21.263 -19.576  0.00  0.00    +0.087 C 
ATOM     15  C   UNL     1      35.401 -21.946 -19.028  0.00  0.00    +0.168 C 
ATOM     16  C   UNL     1      34.348 -20.568 -20.262  0.00  0.00    +0.117 C 
ENDBRANCH  11  12
ENDBRANCH  10  11
ENDBRANCH   1  10
TORSDOF 7
ENDMDL
MODEL 7
REMARK VINA RESULT:      -6.6      4.280      8.007
REMARK  Name = 16122577
REMARK  7 active torsions:
REMARK  status: ('A' for Active; 'I' for Inactive)
REMARK    1  A    between atoms: C_1  and  C_2
REMARK    2  A    between atoms: C_1  and  C_10
REMARK    3  A    between atoms: C_2  and  C_3
REMARK    4  A    between atoms: C_3  and  C_4
REMARK    5  A    between atoms: C_4  and  N_5
REMARK    6  A    between atoms: C_10  and  C_11
REMARK    7  A    between atoms: C_11  and  N_12
REMARK                            x       y       z     vdW  Elec       q    Type
REMARK                         _______ _______ _______ _____ _____    ______ ____
ROOT
ATOM      1  C   UNL     1      33.006 -14.670 -20.608  0.00  0.00    +0.002 C 
ENDROOT
BRANCH   1   2
ATOM      2  C   UNL     1      32.391 -13.608 -21.521  0.00  0.00    +0.002 C 
BRANCH   2   3
ATOM      3  C   UNL     1      31.780 -12.464 -20.709  0.00  0.00    +0.022 C 
BRANCH   3   4
ATOM      4  C   UNL     1      31.372 -11.267 -21.571  0.00  0.00    +0.097 C 
BRANCH   4   5
ATOM      5  N   UNL     1      31.769  -9.978 -21.018  0.00  0.00    -0.268 N 
ATOM      6  N   UNL     1      32.290  -8.445 -19.519  0.00  0.00    -0.225 NA
ATOM      7  C   UNL     1      32.046  -8.859 -21.734  0.00  0.00    +0.087 C 
ATOM      8  C   UNL     1      31.925  -9.695 -19.699  0.00  0.00    +0.168 C 
ATOM      9  C   UNL     1      32.367  -7.919 -20.784  0.00  0.00    +0.117 C 
ENDBRANCH   4   5
ENDBRANCH   3   4
ENDBRANCH   2   3
ENDBRANCH   1   2
BRANCH   1  10
ATOM     10  C   UNL     1      34.112 -15.448 -21.326  0.00  0.00    +0.022 C 
BRANCH  10  11
ATOM     11  C   UNL     1      34.407 -14.913 -22.729  0.00  0.00    +0.097 C 
BRANCH  11  12
ATOM     12  N   UNL     1      34.393 -15.939 -23.766  0.00  0.00    -0.268 N 
ATOM     13  N   UNL     1      34.008 -16.904 -25.712  0.00  0.00    -0.225 NA
ATOM     14  C   UNL     1      34.902 -17.192 -23.649  0.00  0.00    +0.087 C 
ATOM     15  C   UNL     1      33.867 -15.801 -25.010  0.00  0.00    +0.168 C 
ATOM     16  C   UNL     1      34.652 -17.775 -24.869  0.00  0.00    +0.117 C 
ENDBRANCH  11  12
ENDBRANCH  10  11
ENDBRANCH   1  10
TORSDOF 7
ENDMDL
MODEL 8
REMARK VINA RESULT:      -6.6      4.435      7.410
REMARK  Name = 16122577
REMARK  7 active torsions:
REMARK  status: ('A' for Active; 'I' for Inactive)
REMARK    1  A    between atoms: C_1  and  C_2
REMARK    2  A    between atoms: C_1  and  C_10
REMARK    3  A    between atoms: C_2  and  C_3
REMARK    4  A    between atoms: C_3  and  C_4
REMARK    5  A    between atoms: C_4  and  N_5
REMARK    6  A    between atoms: C_10  and  C_11
REMARK    7  A    between atoms: C_11  and  N_12
REMARK                            x       y       z     vdW  Elec       q    Type
REMARK                         _______ _______ _______ _____ _____    ______ ____
ROOT
ATOM      1  C   UNL     1      36.706 -22.062 -17.043  0.00  0.00    +0.002 C 
ENDROOT
BRANCH   1   2
ATOM      2  C   UNL     1      35.404 -22.711 -16.568  0.00  0.00    +0.002 C 
BRANCH   2   3
ATOM      3  C   UNL     1      35.513 -23.174 -15.114  0.00  0.00    +0.022 C 
BRANCH   3   4
ATOM      4  C   UNL     1      35.421 -24.694 -14.960  0.00  0.00    +0.097 C 
BRANCH   4   5
ATOM      5  N   UNL     1      36.715 -25.358 -14.857  0.00  0.00    -0.268 N 
ATOM      6  N   UNL     1      38.211 -26.979 -14.859  0.00  0.00    -0.225 NA
ATOM      7  C   UNL     1      37.899 -24.750 -14.593  0.00  0.00    +0.087 C 
ATOM      8  C   UNL     1      36.938 -26.688 -15.010  0.00  0.00    +0.168 C 
ATOM      9  C   UNL     1      38.816 -25.775 -14.598  0.00  0.00    +0.117 C 
ENDBRANCH   4   5
ENDBRANCH   3   4
ENDBRANCH   2   3
ENDBRANCH   1   2
BRANCH   1  10
ATOM     10  C   UNL     1      36.552 -21.471 -18.447  0.00  0.00    +0.022 C 
BRANCH  10  11
ATOM     11  C   UNL     1      35.342 -22.024 -19.202  0.00  0.00    +0.097 C 
BRANCH  11  12
ATOM     12  N   UNL     1      34.573 -21.007 -19.910  0.00  0.00    -0.268 N 
ATOM     13  N   UNL     1      34.137 -19.280 -21.212  0.00  0.00    -0.225 NA
ATOM     14  C   UNL     1      33.224 -20.860 -19.867  0.00  0.00    +0.087 C 
ATOM     15  C   UNL     1      35.086 -20.048 -20.722  0.00  0.00    +0.168 C 
ATOM     16  C   UNL     1      32.974 -19.781 -20.682  0.00  0.00    +0.117 C 
ENDBRANCH  11  12
ENDBRANCH  10  11
ENDBRANCH   1  10
TORSDOF 7
ENDMDL
MODEL 9
REMARK VINA RESULT:      -6.6      4.150      6.366
REMARK  Name = 16122577
REMARK  7 active torsions:
REMARK  status: ('A' for Active; 'I' for Inactive)
REMARK    1  A    between atoms: C_1  and  C_2
REMARK    2  A    between atoms: C_1  and  C_10
REMARK    3  A    between atoms: C_2  and  C_3
REMARK    4  A    between atoms: C_3  and  C_4
REMARK    5  A    between atoms: C_4  and  N_5
REMARK    6  A    between atoms: C_10  and  C_11
REMARK    7  A    between atoms: C_11  and  N_12
REMARK                            x       y       z     vdW  Elec       q    Type
REMARK                         _______ _______ _______ _____ _____    ______ ____
ROOT
ATOM      1  C   UNL     1      32.365 -13.950 -21.718  0.00  0.00    +0.002 C 
ENDROOT
BRANCH   1   2
ATOM      2  C   UNL     1      32.646 -15.261 -20.980  0.00  0.00    +0.002 C 
BRANCH   2   3
ATOM      3  C   UNL     1      34.053 -15.778 -21.286  0.00  0.00    +0.022 C 
BRANCH   3   4
ATOM      4  C   UNL     1      34.575 -15.325 -22.652  0.00  0.00    +0.097 C 
BRANCH   4   5
ATOM      5  N   UNL     1      34.500 -16.352 -23.684  0.00  0.00    -0.268 N 
ATOM      6  N   UNL     1      34.137 -17.278 -25.653  0.00  0.00    -0.225 NA
ATOM      7  C   UNL     1      34.827 -17.659 -23.528  0.00  0.00    +0.087 C 
ATOM      8  C   UNL     1      34.092 -16.159 -24.965  0.00  0.00    +0.168 C 
ATOM      9  C   UNL     1      34.594 -18.217 -24.763  0.00  0.00    +0.117 C 
ENDBRANCH   4   5
ENDBRANCH   3   4
ENDBRANCH   2   3
ENDBRANCH   1   2
BRANCH   1  10
ATOM     10  C   UNL     1      32.187 -12.787 -20.738  0.00  0.00    +0.022 C 
BRANCH  10  11
ATOM     11  C   UNL     1      31.314 -11.660 -21.296  0.00  0.00    +0.097 C 
BRANCH  11  12
ATOM     12  N   UNL     1      31.729 -10.329 -20.873  0.00  0.00    -0.268 N 
ATOM     13  N   UNL     1      32.182  -8.633 -19.535  0.00  0.00    -0.225 NA
ATOM     14  C   UNL     1      32.148  -9.330 -21.692  0.00  0.00    +0.087 C 
ATOM     15  C   UNL     1      31.762  -9.878 -19.592  0.00  0.00    +0.168 C 
ATOM     16  C   UNL     1      32.424  -8.286 -20.841  0.00  0.00    +0.117 C 
ENDBRANCH  11  12
ENDBRANCH  10  11
ENDBRANCH   1  10
TORSDOF 7
ENDMDL
