MODEL 1
REMARK VINA RESULT:     -11.0      0.000      0.000
REMARK  Name = 11545694
REMARK  6 active torsions:
REMARK  status: ('A' for Active; 'I' for Inactive)
REMARK    1  A    between atoms: C_2  and  C_20
REMARK    2  A    between atoms: N_7  and  S_9
REMARK    3  A    between atoms: S_9  and  C_13
REMARK    4  A    between atoms: C_20  and  C_23
REMARK    5  A    between atoms: N_22  and  C_24
REMARK    6  A    between atoms: N_22  and  C_26
REMARK                            x       y       z     vdW  Elec       q    Type
REMARK                         _______ _______ _______ _____ _____    ______ ____
ROOT
ATOM      1  N   UNL     1      33.172 -23.425 -15.809  0.00  0.00    -0.394 NA
ATOM      2  C   UNL     1      32.902 -24.132 -14.696  0.00  0.00    +0.119 C 
ATOM      3  C   UNL     1      32.119 -23.187 -16.622  0.00  0.00    +0.179 C 
ATOM      4  C   UNL     1      31.662 -24.613 -14.341  0.00  0.00    +0.024 C 
ATOM      5  C   UNL     1      30.828 -23.621 -16.367  0.00  0.00    +0.102 C 
ATOM      6  C   UNL     1      30.604 -24.348 -15.203  0.00  0.00    -0.015 C 
ATOM      7  N   UNL     1      32.396 -22.441 -17.807  0.00  0.00    -0.192 N 
ATOM      8  H   UNL     1      31.744 -21.789 -18.153  0.00  0.00    +0.176 HD
ENDROOT
BRANCH   7   9
ATOM      9  S   UNL     1      33.892 -22.700 -18.621  0.00  0.00    +0.075 S 
ATOM     10  O   UNL     1      34.974 -22.615 -17.659  0.00  0.00    -0.150 OA
ATOM     11  O   UNL     1      33.790 -23.857 -19.491  0.00  0.00    -0.150 OA
BRANCH   9  13
ATOM     12 CL   UNL     1      36.792 -18.950 -21.352  0.00  0.00    -0.083 Cl
ATOM     13  C   UNL     1      34.003 -21.261 -19.647  0.00  0.00    +0.122 C 
ATOM     14  C   UNL     1      35.235 -20.759 -20.031  0.00  0.00    +0.008 C 
ATOM     15  C   UNL     1      32.820 -20.660 -20.047  0.00  0.00    +0.020 C 
ATOM     16  C   UNL     1      35.286 -19.624 -20.840  0.00  0.00    +0.055 C 
ATOM     17  C   UNL     1      36.498 -21.429 -19.586  0.00  0.00    +0.033 C 
ATOM     18  C   UNL     1      32.873 -19.524 -20.856  0.00  0.00    +0.002 C 
ATOM     19  C   UNL     1      34.106 -19.006 -21.252  0.00  0.00    +0.011 C 
ENDBRANCH   9  13
ENDBRANCH   7   9
BRANCH   2  20
ATOM     20  C   UNL     1      34.074 -24.400 -13.785  0.00  0.00    +0.144 C 
BRANCH  20  23
ATOM     21  O   UNL     1      35.394 -25.406 -15.518  0.00  0.00    -0.274 OA
ATOM     22  N   UNL     1      36.511 -24.017 -14.036  0.00  0.00    -0.279 N 
ATOM     23  C   UNL     1      35.373 -24.662 -14.533  0.00  0.00    +0.233 C 
BRANCH  22  24
ATOM     24  C   UNL     1      36.468 -23.142 -12.871  0.00  0.00    +0.093 C 
ATOM     25  C   UNL     1      37.655 -23.372 -11.960  0.00  0.00    +0.023 C 
ENDBRANCH  22  24
BRANCH  22  26
ATOM     26  C   UNL     1      37.829 -24.170 -14.647  0.00  0.00    +0.093 C 
ATOM     27  C   UNL     1      38.033 -23.184 -15.780  0.00  0.00    +0.023 C 
ENDBRANCH  22  26
ENDBRANCH  20  23
ENDBRANCH   2  20
TORSDOF 6
ENDMDL
MODEL 2
REMARK VINA RESULT:     -10.4      9.039     12.873
REMARK  Name = 11545694
REMARK  6 active torsions:
REMARK  status: ('A' for Active; 'I' for Inactive)
REMARK    1  A    between atoms: C_2  and  C_20
REMARK    2  A    between atoms: N_7  and  S_9
REMARK    3  A    between atoms: S_9  and  C_13
REMARK    4  A    between atoms: C_20  and  C_23
REMARK    5  A    between atoms: N_22  and  C_24
REMARK    6  A    between atoms: N_22  and  C_26
REMARK                            x       y       z     vdW  Elec       q    Type
REMARK                         _______ _______ _______ _____ _____    ______ ____
ROOT
ATOM      1  N   UNL     1      32.127 -12.337 -22.597  0.00  0.00    -0.394 NA
ATOM      2  C   UNL     1      31.806 -11.158 -22.034  0.00  0.00    +0.119 C 
ATOM      3  C   UNL     1      32.244 -13.381 -21.746  0.00  0.00    +0.179 C 
ATOM      4  C   UNL     1      31.595 -10.950 -20.689  0.00  0.00    +0.024 C 
ATOM      5  C   UNL     1      32.055 -13.290 -20.376  0.00  0.00    +0.102 C 
ATOM      6  C   UNL     1      31.724 -12.048 -19.846  0.00  0.00    -0.015 C 
ATOM      7  N   UNL     1      32.588 -14.636 -22.334  0.00  0.00    -0.192 N 
ATOM      8  H   UNL     1      32.203 -15.473 -21.988  0.00  0.00    +0.176 HD
ENDROOT
BRANCH   7   9
ATOM      9  S   UNL     1      33.688 -14.658 -23.660  0.00  0.00    +0.075 S 
ATOM     10  O   UNL     1      32.946 -14.481 -24.893  0.00  0.00    -0.150 OA
ATOM     11  O   UNL     1      34.826 -13.804 -23.375  0.00  0.00    -0.150 OA
BRANCH   9  13
ATOM     12 CL   UNL     1      35.797 -18.989 -21.066  0.00  0.00    -0.083 Cl
ATOM     13  C   UNL     1      34.252 -16.336 -23.636  0.00  0.00    +0.122 C 
ATOM     14  C   UNL     1      34.740 -16.902 -22.471  0.00  0.00    +0.008 C 
ATOM     15  C   UNL     1      34.189 -17.056 -24.819  0.00  0.00    +0.020 C 
ATOM     16  C   UNL     1      35.177 -18.226 -22.487  0.00  0.00    +0.055 C 
ATOM     17  C   UNL     1      34.797 -16.103 -21.206  0.00  0.00    +0.033 C 
ATOM     18  C   UNL     1      34.627 -18.381 -24.834  0.00  0.00    +0.002 C 
ATOM     19  C   UNL     1      35.121 -18.966 -23.668  0.00  0.00    +0.011 C 
ENDBRANCH   9  13
ENDBRANCH   7   9
BRANCH   2  20
ATOM     20  C   UNL     1      31.673  -9.990 -22.980  0.00  0.00    +0.144 C 
BRANCH  20  23
ATOM     21  O   UNL     1      33.731 -10.093 -24.208  0.00  0.00    -0.274 OA
ATOM     22  N   UNL     1      33.355  -8.169 -22.970  0.00  0.00    -0.279 N 
ATOM     23  C   UNL     1      33.011  -9.438 -23.449  0.00  0.00    +0.233 C 
BRANCH  22  24
ATOM     24  C   UNL     1      32.492  -7.410 -22.074  0.00  0.00    +0.093 C 
ATOM     25  C   UNL     1      32.941  -7.533 -20.633  0.00  0.00    +0.023 C 
ENDBRANCH  22  24
BRANCH  22  26
ATOM     26  C   UNL     1      34.607  -7.508 -23.331  0.00  0.00    +0.093 C 
ATOM     27  C   UNL     1      34.470  -6.730 -24.625  0.00  0.00    +0.023 C 
ENDBRANCH  22  26
ENDBRANCH  20  23
ENDBRANCH   2  20
TORSDOF 6
ENDMDL
MODEL 3
REMARK VINA RESULT:     -10.0      6.592     11.247
REMARK  Name = 11545694
REMARK  6 active torsions:
REMARK  status: ('A' for Active; 'I' for Inactive)
REMARK    1  A    between atoms: C_2  and  C_20
REMARK    2  A    between atoms: N_7  and  S_9
REMARK    3  A    between atoms: S_9  and  C_13
REMARK    4  A    between atoms: C_20  and  C_23
REMARK    5  A    between atoms: N_22  and  C_24
REMARK    6  A    between atoms: N_22  and  C_26
REMARK                            x       y       z     vdW  Elec       q    Type
REMARK                         _______ _______ _______ _____ _____    ______ ____
ROOT
ATOM      1  N   UNL     1      34.161 -15.037 -23.360  0.00  0.00    -0.394 NA
ATOM      2  C   UNL     1      33.644 -14.088 -24.162  0.00  0.00    +0.119 C 
ATOM      3  C   UNL     1      34.311 -16.258 -23.918  0.00  0.00    +0.179 C 
ATOM      4  C   UNL     1      33.269 -14.273 -25.474  0.00  0.00    +0.024 C 
ATOM      5  C   UNL     1      33.969 -16.561 -25.226  0.00  0.00    +0.102 C 
ATOM      6  C   UNL     1      33.438 -15.544 -26.012  0.00  0.00    -0.015 C 
ATOM      7  N   UNL     1      34.856 -17.273 -23.074  0.00  0.00    -0.192 N 
ATOM      8  H   UNL     1      35.470 -17.950 -23.438  0.00  0.00    +0.176 HD
ENDROOT
BRANCH   7   9
ATOM      9  S   UNL     1      34.419 -17.289 -21.407  0.00  0.00    +0.075 S 
ATOM     10  O   UNL     1      35.158 -16.250 -20.715  0.00  0.00    -0.150 OA
ATOM     11  O   UNL     1      32.976 -17.357 -21.272  0.00  0.00    -0.150 OA
BRANCH   9  13
ATOM     12 CL   UNL     1      33.822 -22.402 -19.557  0.00  0.00    -0.083 Cl
ATOM     13  C   UNL     1      35.087 -18.838 -20.871  0.00  0.00    +0.122 C 
ATOM     14  C   UNL     1      34.252 -19.870 -20.477  0.00  0.00    +0.008 C 
ATOM     15  C   UNL     1      36.466 -18.979 -20.859  0.00  0.00    +0.020 C 
ATOM     16  C   UNL     1      34.810 -21.078 -20.060  0.00  0.00    +0.055 C 
ATOM     17  C   UNL     1      32.766 -19.693 -20.501  0.00  0.00    +0.033 C 
ATOM     18  C   UNL     1      37.023 -20.188 -20.441  0.00  0.00    +0.002 C 
ATOM     19  C   UNL     1      36.196 -21.237 -20.042  0.00  0.00    +0.011 C 
ENDBRANCH   9  13
ENDBRANCH   7   9
BRANCH   2  20
ATOM     20  C   UNL     1      33.475 -12.722 -23.544  0.00  0.00    +0.144 C 
BRANCH  20  23
ATOM     21  O   UNL     1      31.944 -13.704 -21.980  0.00  0.00    -0.274 OA
ATOM     22  N   UNL     1      31.917 -11.392 -22.148  0.00  0.00    -0.279 N 
ATOM     23  C   UNL     1      32.381 -12.667 -22.489  0.00  0.00    +0.233 C 
BRANCH  22  24
ATOM     24  C   UNL     1      32.444 -10.179 -22.759  0.00  0.00    +0.093 C 
ATOM     25  C   UNL     1      31.353  -9.153 -22.988  0.00  0.00    +0.023 C 
ENDBRANCH  22  24
BRANCH  22  26
ATOM     26  C   UNL     1      30.869 -11.179 -21.152  0.00  0.00    +0.093 C 
ATOM     27  C   UNL     1      31.441 -11.120 -19.749  0.00  0.00    +0.023 C 
ENDBRANCH  22  26
ENDBRANCH  20  23
ENDBRANCH   2  20
TORSDOF 6
ENDMDL
MODEL 4
REMARK VINA RESULT:      -9.6     11.821     14.920
REMARK  Name = 11545694
REMARK  6 active torsions:
REMARK  status: ('A' for Active; 'I' for Inactive)
REMARK    1  A    between atoms: C_2  and  C_20
REMARK    2  A    between atoms: N_7  and  S_9
REMARK    3  A    between atoms: S_9  and  C_13
REMARK    4  A    between atoms: C_20  and  C_23
REMARK    5  A    between atoms: N_22  and  C_24
REMARK    6  A    between atoms: N_22  and  C_26
REMARK                            x       y       z     vdW  Elec       q    Type
REMARK                         _______ _______ _______ _____ _____    ______ ____
ROOT
ATOM      1  N   UNL     1      31.836  -9.816 -21.801  0.00  0.00    -0.394 NA
ATOM      2  C   UNL     1      31.693 -11.091 -21.395  0.00  0.00    +0.119 C 
ATOM      3  C   UNL     1      31.977  -8.900 -20.817  0.00  0.00    +0.179 C 
ATOM      4  C   UNL     1      31.682 -11.511 -20.083  0.00  0.00    +0.024 C 
ATOM      5  C   UNL     1      31.981  -9.206 -19.466  0.00  0.00    +0.102 C 
ATOM      6  C   UNL     1      31.829 -10.539 -19.100  0.00  0.00    -0.015 C 
ATOM      7  N   UNL     1      32.126  -7.543 -21.238  0.00  0.00    -0.192 N 
ATOM      8  H   UNL     1      32.725  -6.931 -20.753  0.00  0.00    +0.176 HD
ENDROOT
BRANCH   7   9
ATOM      9  S   UNL     1      31.240  -6.999 -22.612  0.00  0.00    +0.075 S 
ATOM     10  O   UNL     1      30.486  -8.110 -23.159  0.00  0.00    -0.150 OA
ATOM     11  O   UNL     1      30.565  -5.751 -22.305  0.00  0.00    -0.150 OA
BRANCH   9  13
ATOM     12 CL   UNL     1      33.184  -4.394 -27.013  0.00  0.00    -0.083 Cl
ATOM     13  C   UNL     1      32.537  -6.641 -23.763  0.00  0.00    +0.122 C 
ATOM     14  C   UNL     1      32.333  -5.752 -24.804  0.00  0.00    +0.008 C 
ATOM     15  C   UNL     1      33.754  -7.281 -23.586  0.00  0.00    +0.020 C 
ATOM     16  C   UNL     1      33.376  -5.493 -25.694  0.00  0.00    +0.055 C 
ATOM     17  C   UNL     1      31.010  -5.072 -24.973  0.00  0.00    +0.033 C 
ATOM     18  C   UNL     1      34.796  -7.022 -24.477  0.00  0.00    +0.002 C 
ATOM     19  C   UNL     1      34.607  -6.127 -25.531  0.00  0.00    +0.011 C 
ENDBRANCH   9  13
ENDBRANCH   7   9
BRANCH   2  20
ATOM     20  C   UNL     1      31.536 -12.118 -22.488  0.00  0.00    +0.144 C 
BRANCH  20  23
ATOM     21  O   UNL     1      33.560 -11.956 -23.767  0.00  0.00    -0.274 OA
ATOM     22  N   UNL     1      33.223 -13.931 -22.601  0.00  0.00    -0.279 N 
ATOM     23  C   UNL     1      32.862 -12.645 -23.017  0.00  0.00    +0.233 C 
BRANCH  22  24
ATOM     24  C   UNL     1      32.387 -14.730 -21.714  0.00  0.00    +0.093 C 
ATOM     25  C   UNL     1      33.061 -14.965 -20.378  0.00  0.00    +0.023 C 
ENDBRANCH  22  24
BRANCH  22  26
ATOM     26  C   UNL     1      34.466 -14.572 -23.025  0.00  0.00    +0.093 C 
ATOM     27  C   UNL     1      34.211 -15.647 -24.063  0.00  0.00    +0.023 C 
ENDBRANCH  22  26
ENDBRANCH  20  23
ENDBRANCH   2  20
TORSDOF 6
ENDMDL
MODEL 5
REMARK VINA RESULT:      -9.6      9.045     13.124
REMARK  Name = 11545694
REMARK  6 active torsions:
REMARK  status: ('A' for Active; 'I' for Inactive)
REMARK    1  A    between atoms: C_2  and  C_20
REMARK    2  A    between atoms: N_7  and  S_9
REMARK    3  A    between atoms: S_9  and  C_13
REMARK    4  A    between atoms: C_20  and  C_23
REMARK    5  A    between atoms: N_22  and  C_24
REMARK    6  A    between atoms: N_22  and  C_26
REMARK                            x       y       z     vdW  Elec       q    Type
REMARK                         _______ _______ _______ _____ _____    ______ ____
ROOT
ATOM      1  N   UNL     1      31.879 -11.804 -22.217  0.00  0.00    -0.394 NA
ATOM      2  C   UNL     1      31.594 -10.559 -21.792  0.00  0.00    +0.119 C 
ATOM      3  C   UNL     1      32.027 -12.734 -21.248  0.00  0.00    +0.179 C 
ATOM      4  C   UNL     1      31.448 -10.182 -20.476  0.00  0.00    +0.024 C 
ATOM      5  C   UNL     1      31.904 -12.470 -19.893  0.00  0.00    +0.102 C 
ATOM      6  C   UNL     1      31.609 -11.168 -19.508  0.00  0.00    -0.015 C 
ATOM      7  N   UNL     1      32.333 -14.057 -21.689  0.00  0.00    -0.192 N 
ATOM      8  H   UNL     1      31.958 -14.839 -21.223  0.00  0.00    +0.176 HD
ENDROOT
BRANCH   7   9
ATOM      9  S   UNL     1      33.369 -14.260 -23.051  0.00  0.00    +0.075 S 
ATOM     10  O   UNL     1      32.557 -14.398 -24.245  0.00  0.00    -0.150 OA
ATOM     11  O   UNL     1      34.436 -13.277 -23.015  0.00  0.00    -0.150 OA
BRANCH   9  13
ATOM     12 CL   UNL     1      35.186 -19.143 -24.719  0.00  0.00    -0.083 Cl
ATOM     13  C   UNL     1      34.085 -15.847 -22.731  0.00  0.00    +0.122 C 
ATOM     14  C   UNL     1      34.313 -16.742 -23.763  0.00  0.00    +0.008 C 
ATOM     15  C   UNL     1      34.405 -16.160 -21.419  0.00  0.00    +0.020 C 
ATOM     16  C   UNL     1      34.878 -17.984 -23.476  0.00  0.00    +0.055 C 
ATOM     17  C   UNL     1      33.959 -16.380 -25.171  0.00  0.00    +0.033 C 
ATOM     18  C   UNL     1      34.971 -17.403 -21.133  0.00  0.00    +0.002 C 
ATOM     19  C   UNL     1      35.207 -18.315 -22.162  0.00  0.00    +0.011 C 
ENDBRANCH   9  13
ENDBRANCH   7   9
BRANCH   2  20
ATOM     20  C   UNL     1      31.426  -9.516 -22.869  0.00  0.00    +0.144 C 
BRANCH  20  23
ATOM     21  O   UNL     1      32.329  -7.393 -22.214  0.00  0.00    -0.274 OA
ATOM     22  N   UNL     1      33.669  -8.720 -23.562  0.00  0.00    -0.279 N 
ATOM     23  C   UNL     1      32.502  -8.442 -22.842  0.00  0.00    +0.233 C 
BRANCH  22  24
ATOM     24  C   UNL     1      33.855  -9.964 -24.299  0.00  0.00    +0.093 C 
ATOM     25  C   UNL     1      35.247 -10.057 -24.888  0.00  0.00    +0.023 C 
ENDBRANCH  22  24
BRANCH  22  26
ATOM     26  C   UNL     1      34.790  -7.786 -23.630  0.00  0.00    +0.093 C 
ATOM     27  C   UNL     1      34.541  -6.694 -24.652  0.00  0.00    +0.023 C 
ENDBRANCH  22  26
ENDBRANCH  20  23
ENDBRANCH   2  20
TORSDOF 6
ENDMDL
MODEL 6
REMARK VINA RESULT:      -9.5      9.655     13.728
REMARK  Name = 11545694
REMARK  6 active torsions:
REMARK  status: ('A' for Active; 'I' for Inactive)
REMARK    1  A    between atoms: C_2  and  C_20
REMARK    2  A    between atoms: N_7  and  S_9
REMARK    3  A    between atoms: S_9  and  C_13
REMARK    4  A    between atoms: C_20  and  C_23
REMARK    5  A    between atoms: N_22  and  C_24
REMARK    6  A    between atoms: N_22  and  C_26
REMARK                            x       y       z     vdW  Elec       q    Type
REMARK                         _______ _______ _______ _____ _____    ______ ____
ROOT
ATOM      1  N   UNL     1      32.007 -11.818 -22.573  0.00  0.00    -0.394 NA
ATOM      2  C   UNL     1      31.752 -10.675 -21.911  0.00  0.00    +0.119 C 
ATOM      3  C   UNL     1      32.072 -12.933 -21.814  0.00  0.00    +0.179 C 
ATOM      4  C   UNL     1      31.559 -10.570 -20.551  0.00  0.00    +0.024 C 
ATOM      5  C   UNL     1      31.896 -12.948 -20.439  0.00  0.00    +0.102 C 
ATOM      6  C   UNL     1      31.635 -11.739 -19.804  0.00  0.00    -0.015 C 
ATOM      7  N   UNL     1      32.346 -14.151 -22.507  0.00  0.00    -0.192 N 
ATOM      8  H   UNL     1      31.919 -14.993 -22.228  0.00  0.00    +0.176 HD
ENDROOT
BRANCH   7   9
ATOM      9  S   UNL     1      33.436 -14.120 -23.841  0.00  0.00    +0.075 S 
ATOM     10  O   UNL     1      32.675 -14.023 -25.072  0.00  0.00    -0.150 OA
ATOM     11  O   UNL     1      34.511 -13.180 -23.582  0.00  0.00    -0.150 OA
BRANCH   9  13
ATOM     12 CL   UNL     1      35.846 -18.243 -21.172  0.00  0.00    -0.083 Cl
ATOM     13  C   UNL     1      34.122 -15.752 -23.789  0.00  0.00    +0.122 C 
ATOM     14  C   UNL     1      34.645 -16.262 -22.613  0.00  0.00    +0.008 C 
ATOM     15  C   UNL     1      34.116 -16.493 -24.960  0.00  0.00    +0.020 C 
ATOM     16  C   UNL     1      35.178 -17.551 -22.606  0.00  0.00    +0.055 C 
ATOM     17  C   UNL     1      34.638 -15.441 -21.361  0.00  0.00    +0.033 C 
ATOM     18  C   UNL     1      34.649 -17.782 -24.952  0.00  0.00    +0.002 C 
ATOM     19  C   UNL     1      35.180 -18.311 -23.775  0.00  0.00    +0.011 C 
ENDBRANCH   9  13
ENDBRANCH   7   9
BRANCH   2  20
ATOM     20  C   UNL     1      31.676  -9.426 -22.754  0.00  0.00    +0.144 C 
BRANCH  20  23
ATOM     21  O   UNL     1      32.364  -8.192 -20.815  0.00  0.00    -0.274 OA
ATOM     22  N   UNL     1      31.585  -6.953 -22.613  0.00  0.00    -0.279 N 
ATOM     23  C   UNL     1      31.911  -8.148 -21.963  0.00  0.00    +0.233 C 
BRANCH  22  24
ATOM     24  C   UNL     1      31.051  -6.920 -23.969  0.00  0.00    +0.093 C 
ATOM     25  C   UNL     1      31.878  -6.025 -24.869  0.00  0.00    +0.023 C 
ENDBRANCH  22  24
BRANCH  22  26
ATOM     26  C   UNL     1      31.755  -5.646 -21.982  0.00  0.00    +0.093 C 
ATOM     27  C   UNL     1      30.419  -5.019 -21.635  0.00  0.00    +0.023 C 
ENDBRANCH  22  26
ENDBRANCH  20  23
ENDBRANCH   2  20
TORSDOF 6
ENDMDL
MODEL 7
REMARK VINA RESULT:      -9.5     10.354     14.577
REMARK  Name = 11545694
REMARK  6 active torsions:
REMARK  status: ('A' for Active; 'I' for Inactive)
REMARK    1  A    between atoms: C_2  and  C_20
REMARK    2  A    between atoms: N_7  and  S_9
REMARK    3  A    between atoms: S_9  and  C_13
REMARK    4  A    between atoms: C_20  and  C_23
REMARK    5  A    between atoms: N_22  and  C_24
REMARK    6  A    between atoms: N_22  and  C_26
REMARK                            x       y       z     vdW  Elec       q    Type
REMARK                         _______ _______ _______ _____ _____    ______ ____
ROOT
ATOM      1  N   UNL     1      32.321 -10.879 -22.904  0.00  0.00    -0.394 NA
ATOM      2  C   UNL     1      32.341  -9.631 -22.401  0.00  0.00    +0.119 C 
ATOM      3  C   UNL     1      31.898 -11.845 -22.059  0.00  0.00    +0.179 C 
ATOM      4  C   UNL     1      31.970  -9.284 -21.121  0.00  0.00    +0.024 C 
ATOM      5  C   UNL     1      31.500 -11.614 -20.752  0.00  0.00    +0.102 C 
ATOM      6  C   UNL     1      31.540 -10.306 -20.282  0.00  0.00    -0.015 C 
ATOM      7  N   UNL     1      31.876 -13.173 -22.583  0.00  0.00    -0.192 N 
ATOM      8  H   UNL     1      31.161 -13.800 -22.330  0.00  0.00    +0.176 HD
ENDROOT
BRANCH   7   9
ATOM      9  S   UNL     1      33.124 -13.658 -23.668  0.00  0.00    +0.075 S 
ATOM     10  O   UNL     1      32.521 -14.243 -24.851  0.00  0.00    -0.150 OA
ATOM     11  O   UNL     1      34.101 -12.595 -23.808  0.00  0.00    -0.150 OA
BRANCH   9  13
ATOM     12 CL   UNL     1      35.605 -18.530 -23.474  0.00  0.00    -0.083 Cl
ATOM     13  C   UNL     1      33.889 -14.981 -22.775  0.00  0.00    +0.122 C 
ATOM     14  C   UNL     1      34.379 -16.093 -23.438  0.00  0.00    +0.008 C 
ATOM     15  C   UNL     1      33.978 -14.864 -21.396  0.00  0.00    +0.020 C 
ATOM     16  C   UNL     1      34.976 -17.118 -22.704  0.00  0.00    +0.055 C 
ATOM     17  C   UNL     1      34.271 -16.195 -24.928  0.00  0.00    +0.033 C 
ATOM     18  C   UNL     1      34.575 -15.890 -20.663  0.00  0.00    +0.002 C 
ATOM     19  C   UNL     1      35.074 -17.017 -21.317  0.00  0.00    +0.011 C 
ENDBRANCH   9  13
ENDBRANCH   7   9
BRANCH   2  20
ATOM     20  C   UNL     1      32.813  -8.549 -23.340  0.00  0.00    +0.144 C 
BRANCH  20  23
ATOM     21  O   UNL     1      30.551  -7.750 -23.388  0.00  0.00    -0.274 OA
ATOM     22  N   UNL     1      32.156  -6.386 -24.357  0.00  0.00    -0.279 N 
ATOM     23  C   UNL     1      31.730  -7.539 -23.689  0.00  0.00    +0.233 C 
BRANCH  22  24
ATOM     24  C   UNL     1      33.552  -6.153 -24.704  0.00  0.00    +0.093 C 
ATOM     25  C   UNL     1      33.685  -5.494 -26.061  0.00  0.00    +0.023 C 
ENDBRANCH  22  24
BRANCH  22  26
ATOM     26  C   UNL     1      31.233  -5.326 -24.758  0.00  0.00    +0.093 C 
ATOM     27  C   UNL     1      31.224  -4.189 -23.756  0.00  0.00    +0.023 C 
ENDBRANCH  22  26
ENDBRANCH  20  23
ENDBRANCH   2  20
TORSDOF 6
ENDMDL
MODEL 8
REMARK VINA RESULT:      -9.5     10.097     14.477
REMARK  Name = 11545694
REMARK  6 active torsions:
REMARK  status: ('A' for Active; 'I' for Inactive)
REMARK    1  A    between atoms: C_2  and  C_20
REMARK    2  A    between atoms: N_7  and  S_9
REMARK    3  A    between atoms: S_9  and  C_13
REMARK    4  A    between atoms: C_20  and  C_23
REMARK    5  A    between atoms: N_22  and  C_24
REMARK    6  A    between atoms: N_22  and  C_26
REMARK                            x       y       z     vdW  Elec       q    Type
REMARK                         _______ _______ _______ _____ _____    ______ ____
ROOT
ATOM      1  N   UNL     1      33.071 -11.181 -23.402  0.00  0.00    -0.394 NA
ATOM      2  C   UNL     1      32.843  -9.855 -23.392  0.00  0.00    +0.119 C 
ATOM      3  C   UNL     1      34.192 -11.579 -24.043  0.00  0.00    +0.179 C 
ATOM      4  C   UNL     1      33.653  -8.905 -23.974  0.00  0.00    +0.024 C 
ATOM      5  C   UNL     1      35.079 -10.714 -24.664  0.00  0.00    +0.102 C 
ATOM      6  C   UNL     1      34.797  -9.353 -24.624  0.00  0.00    -0.015 C 
ATOM      7  N   UNL     1      34.440 -12.985 -24.062  0.00  0.00    -0.192 N 
ATOM      8  H   UNL     1      35.358 -13.333 -23.992  0.00  0.00    +0.176 HD
ENDROOT
BRANCH   7   9
ATOM      9  S   UNL     1      33.103 -14.062 -24.209  0.00  0.00    +0.075 S 
ATOM     10  O   UNL     1      32.246 -13.912 -23.048  0.00  0.00    -0.150 OA
ATOM     11  O   UNL     1      32.535 -13.970 -25.541  0.00  0.00    -0.150 OA
BRANCH   9  13
ATOM     12 CL   UNL     1      35.665 -17.913 -21.286  0.00  0.00    -0.083 Cl
ATOM     13  C   UNL     1      33.891 -15.641 -24.065  0.00  0.00    +0.122 C 
ATOM     14  C   UNL     1      34.398 -16.071 -22.851  0.00  0.00    +0.008 C 
ATOM     15  C   UNL     1      33.981 -16.425 -25.205  0.00  0.00    +0.020 C 
ATOM     16  C   UNL     1      35.012 -17.321 -22.772  0.00  0.00    +0.055 C 
ATOM     17  C   UNL     1      34.286 -15.206 -21.634  0.00  0.00    +0.033 C 
ATOM     18  C   UNL     1      34.596 -17.675 -25.125  0.00  0.00    +0.002 C 
ATOM     19  C   UNL     1      35.112 -18.122 -23.909  0.00  0.00    +0.011 C 
ENDBRANCH   9  13
ENDBRANCH   7   9
BRANCH   2  20
ATOM     20  C   UNL     1      31.593  -9.405 -22.677  0.00  0.00    +0.144 C 
BRANCH  20  23
ATOM     21  O   UNL     1      32.309  -8.271 -20.688  0.00  0.00    -0.274 OA
ATOM     22  N   UNL     1      31.395  -6.954 -22.362  0.00  0.00    -0.279 N 
ATOM     23  C   UNL     1      31.804  -8.173 -21.810  0.00  0.00    +0.233 C 
BRANCH  22  24
ATOM     24  C   UNL     1      30.800  -6.857 -23.690  0.00  0.00    +0.093 C 
ATOM     25  C   UNL     1      31.629  -5.981 -24.606  0.00  0.00    +0.023 C 
ENDBRANCH  22  24
BRANCH  22  26
ATOM     26  C   UNL     1      31.532  -5.685 -21.651  0.00  0.00    +0.093 C 
ATOM     27  C   UNL     1      30.193  -4.996 -21.481  0.00  0.00    +0.023 C 
ENDBRANCH  22  26
ENDBRANCH  20  23
ENDBRANCH   2  20
TORSDOF 6
ENDMDL
MODEL 9
REMARK VINA RESULT:      -9.3      5.802     10.471
REMARK  Name = 11545694
REMARK  6 active torsions:
REMARK  status: ('A' for Active; 'I' for Inactive)
REMARK    1  A    between atoms: C_2  and  C_20
REMARK    2  A    between atoms: N_7  and  S_9
REMARK    3  A    between atoms: S_9  and  C_13
REMARK    4  A    between atoms: C_20  and  C_23
REMARK    5  A    between atoms: N_22  and  C_24
REMARK    6  A    between atoms: N_22  and  C_26
REMARK                            x       y       z     vdW  Elec       q    Type
REMARK                         _______ _______ _______ _____ _____    ______ ____
ROOT
ATOM      1  N   UNL     1      35.217 -16.449 -23.187  0.00  0.00    -0.394 NA
ATOM      2  C   UNL     1      34.443 -15.582 -23.865  0.00  0.00    +0.119 C 
ATOM      3  C   UNL     1      35.256 -17.708 -23.676  0.00  0.00    +0.179 C 
ATOM      4  C   UNL     1      33.710 -15.884 -24.991  0.00  0.00    +0.024 C 
ATOM      5  C   UNL     1      34.561 -18.125 -24.801  0.00  0.00    +0.102 C 
ATOM      6  C   UNL     1      33.776 -17.189 -25.465  0.00  0.00    -0.015 C 
ATOM      7  N   UNL     1      36.072 -18.636 -22.961  0.00  0.00    -0.192 N 
ATOM      8  H   UNL     1      36.585 -19.325 -23.441  0.00  0.00    +0.176 HD
ENDROOT
BRANCH   7   9
ATOM      9  S   UNL     1      36.143 -18.527 -21.243  0.00  0.00    +0.075 S 
ATOM     10  O   UNL     1      37.372 -19.142 -20.781  0.00  0.00    -0.150 OA
ATOM     11  O   UNL     1      35.806 -17.181 -20.817  0.00  0.00    -0.150 OA
BRANCH   9  13
ATOM     12 CL   UNL     1      34.253 -23.022 -18.764  0.00  0.00    -0.083 Cl
ATOM     13  C   UNL     1      34.819 -19.595 -20.756  0.00  0.00    +0.122 C 
ATOM     14  C   UNL     1      35.070 -20.750 -20.033  0.00  0.00    +0.008 C 
ATOM     15  C   UNL     1      33.530 -19.238 -21.122  0.00  0.00    +0.020 C 
ATOM     16  C   UNL     1      34.004 -21.570 -19.665  0.00  0.00    +0.055 C 
ATOM     17  C   UNL     1      36.470 -21.113 -19.649  0.00  0.00    +0.033 C 
ATOM     18  C   UNL     1      32.465 -20.059 -20.753  0.00  0.00    +0.002 C 
ATOM     19  C   UNL     1      32.701 -21.225 -20.025  0.00  0.00    +0.011 C 
ENDBRANCH   9  13
ENDBRANCH   7   9
BRANCH   2  20
ATOM     20  C   UNL     1      34.396 -14.175 -23.323  0.00  0.00    +0.144 C 
BRANCH  20  23
ATOM     21  O   UNL     1      32.394 -14.698 -22.109  0.00  0.00    -0.274 OA
ATOM     22  N   UNL     1      32.687 -12.483 -22.724  0.00  0.00    -0.279 N 
ATOM     23  C   UNL     1      33.071 -13.826 -22.662  0.00  0.00    +0.233 C 
BRANCH  22  24
ATOM     24  C   UNL     1      33.499 -11.466 -23.380  0.00  0.00    +0.093 C 
ATOM     25  C   UNL     1      32.746 -10.160 -23.524  0.00  0.00    +0.023 C 
ENDBRANCH  22  24
BRANCH  22  26
ATOM     26  C   UNL     1      31.441 -11.995 -22.135  0.00  0.00    +0.093 C 
ATOM     27  C   UNL     1      31.581 -11.781 -20.641  0.00  0.00    +0.023 C 
ENDBRANCH  22  26
ENDBRANCH  20  23
ENDBRANCH   2  20
TORSDOF 6
ENDMDL
