MODEL 1
REMARK VINA RESULT:     -11.8      0.000      0.000
REMARK  Name = 68488178
REMARK  9 active torsions:
REMARK  status: ('A' for Active; 'I' for Inactive)
REMARK    1  A    between atoms: N_1  and  C_10
REMARK    2  A    between atoms: N_2  and  C_29
REMARK    3  A    between atoms: C_10  and  C_11
REMARK    4  A    between atoms: C_16  and  O_17
REMARK    5  A    between atoms: O_17  and  C_18
REMARK    6  A    between atoms: C_23  and  C_26
REMARK    7  A    between atoms: C_29  and  C_30
REMARK    8  A    between atoms: C_35  and  C_37
REMARK    9  A    between atoms: C_37  and  O_38
REMARK                            x       y       z     vdW  Elec       q    Type
REMARK                         _______ _______ _______ _____ _____    ______ ____
ROOT
ATOM      1  N   UNL     1      33.648 -12.413 -23.607  0.00  0.00    +0.388 N 
ATOM      2  N   UNL     1      34.385  -9.711 -23.699  0.00  0.00    +0.388 N 
ATOM      3  C   UNL     1      34.145 -11.764 -24.844  0.00  0.00    -0.081 C 
ATOM      4  C   UNL     1      32.987 -10.165 -23.902  0.00  0.00    -0.081 C 
ATOM      5  C   UNL     1      33.012 -10.843 -25.260  0.00  0.00    -0.046 C 
ATOM      6  C   UNL     1      32.788 -11.380 -22.977  0.00  0.00    -0.098 C 
ATOM      7  C   UNL     1      35.201 -10.736 -24.398  0.00  0.00    -0.098 C 
ATOM      8  H   UNL     1      34.412 -12.709 -22.998  0.00  0.00    -0.079 HD
ATOM      9  H   UNL     1      34.621  -9.633 -22.709  0.00  0.00    -0.079 HD
ENDROOT
BRANCH   1  10
ATOM     10  C   UNL     1      32.918 -13.646 -23.875  0.00  0.00    -0.050 C 
BRANCH  10  11
ATOM     11  C   UNL     1      33.738 -14.866 -23.549  0.00  0.00    -0.043 C 
ATOM     12  C   UNL     1      34.077 -15.768 -24.558  0.00  0.00    -0.003 C 
ATOM     13  C   UNL     1      34.158 -15.095 -22.238  0.00  0.00    -0.003 C 
ATOM     14  C   UNL     1      34.837 -16.898 -24.257  0.00  0.00    +0.037 C 
ATOM     15  C   UNL     1      34.917 -16.225 -21.937  0.00  0.00    +0.037 C 
ATOM     16  C   UNL     1      35.257 -17.127 -22.946  0.00  0.00    +0.145 C 
BRANCH  16  17
ATOM     17  O   UNL     1      35.997 -18.231 -22.652  0.00  0.00    -0.453 OA
BRANCH  17  18
ATOM     18  C   UNL     1      35.486 -19.120 -21.722  0.00  0.00    +0.145 C 
ATOM     19  C   UNL     1      34.108 -19.320 -21.633  0.00  0.00    +0.038 C 
ATOM     20  C   UNL     1      36.348 -19.815 -20.873  0.00  0.00    +0.038 C 
ATOM     21  C   UNL     1      33.593 -20.213 -20.694  0.00  0.00    +0.008 C 
ATOM     22  C   UNL     1      35.832 -20.707 -19.934  0.00  0.00    +0.008 C 
ATOM     23  C   UNL     1      34.454 -20.908 -19.844  0.00  0.00    +0.054 C 
BRANCH  23  26
ATOM     24  O   UNL     1      34.846 -22.423 -18.069  0.00  0.00    -0.431 OA
ATOM     25  N   UNL     1      32.674 -22.181 -18.653  0.00  0.00    -0.206 NA
ATOM     26  C   UNL     1      33.921 -21.831 -18.873  0.00  0.00    +0.230 C 
ATOM     27  C   UNL     1      34.098 -23.228 -17.263  0.00  0.00    +0.202 C 
ATOM     28  C   UNL     1      32.782 -23.078 -17.621  0.00  0.00    +0.143 C 
ENDBRANCH  23  26
ENDBRANCH  17  18
ENDBRANCH  16  17
ENDBRANCH  10  11
ENDBRANCH   1  10
BRANCH   2  29
ATOM     29  C   UNL     1      34.622  -8.371 -24.222  0.00  0.00    -0.050 C 
BRANCH  29  30
ATOM     30  C   UNL     1      33.611  -7.381 -23.708  0.00  0.00    -0.043 C 
ATOM     31  C   UNL     1      33.073  -6.423 -24.568  0.00  0.00    -0.006 C 
ATOM     32  C   UNL     1      33.213  -7.422 -22.371  0.00  0.00    -0.006 C 
ATOM     33  C   UNL     1      32.137  -5.507 -24.091  0.00  0.00    +0.006 C 
ATOM     34  C   UNL     1      32.277  -6.504 -21.895  0.00  0.00    +0.006 C 
ATOM     35  C   UNL     1      31.737  -5.547 -22.755  0.00  0.00    +0.075 C 
BRANCH  35  37
ATOM     36  O   UNL     1      30.355  -3.598 -22.870  0.00  0.00    -0.245 OA
ATOM     37  C   UNL     1      30.761  -4.591 -22.258  0.00  0.00    +0.338 C 
BRANCH  37  38
ATOM     38  O   UNL     1      30.317  -4.902 -21.009  0.00  0.00    -0.477 OA
ATOM     39  H   UNL     1      30.688  -4.477 -20.261  0.00  0.00    +0.295 HD
ENDBRANCH  37  38
ENDBRANCH  35  37
ENDBRANCH  29  30
ENDBRANCH   2  29
TORSDOF 9
ENDMDL
MODEL 2
REMARK VINA RESULT:     -11.4      2.322     12.983
REMARK  Name = 68488178
REMARK  9 active torsions:
REMARK  status: ('A' for Active; 'I' for Inactive)
REMARK    1  A    between atoms: N_1  and  C_10
REMARK    2  A    between atoms: N_2  and  C_29
REMARK    3  A    between atoms: C_10  and  C_11
REMARK    4  A    between atoms: C_16  and  O_17
REMARK    5  A    between atoms: O_17  and  C_18
REMARK    6  A    between atoms: C_23  and  C_26
REMARK    7  A    between atoms: C_29  and  C_30
REMARK    8  A    between atoms: C_35  and  C_37
REMARK    9  A    between atoms: C_37  and  O_38
REMARK                            x       y       z     vdW  Elec       q    Type
REMARK                         _______ _______ _______ _____ _____    ______ ____
ROOT
ATOM      1  N   UNL     1      33.500 -15.844 -23.916  0.00  0.00    +0.388 N 
ATOM      2  N   UNL     1      34.731 -17.798 -22.328  0.00  0.00    +0.388 N 
ATOM      3  C   UNL     1      34.427 -16.858 -24.475  0.00  0.00    -0.081 C 
ATOM      4  C   UNL     1      35.305 -16.443 -22.515  0.00  0.00    -0.081 C 
ATOM      5  C   UNL     1      35.790 -16.442 -23.953  0.00  0.00    -0.046 C 
ATOM      6  C   UNL     1      34.110 -15.476 -22.613  0.00  0.00    -0.098 C 
ATOM      7  C   UNL     1      34.193 -18.148 -23.667  0.00  0.00    -0.098 C 
ATOM      8  H   UNL     1      32.552 -16.209 -23.813  0.00  0.00    -0.079 HD
ATOM      9  H   UNL     1      34.012 -17.812 -21.604  0.00  0.00    -0.079 HD
ENDROOT
BRANCH   1  10
ATOM     10  C   UNL     1      33.338 -14.689 -24.791  0.00  0.00    -0.050 C 
BRANCH  10  11
ATOM     11  C   UNL     1      33.065 -13.430 -24.013  0.00  0.00    -0.043 C 
ATOM     12  C   UNL     1      32.182 -13.455 -22.933  0.00  0.00    -0.003 C 
ATOM     13  C   UNL     1      33.694 -12.237 -24.373  0.00  0.00    -0.003 C 
ATOM     14  C   UNL     1      31.928 -12.288 -22.212  0.00  0.00    +0.037 C 
ATOM     15  C   UNL     1      33.440 -11.070 -23.652  0.00  0.00    +0.037 C 
ATOM     16  C   UNL     1      32.557 -11.096 -22.572  0.00  0.00    +0.145 C 
BRANCH  16  17
ATOM     17  O   UNL     1      32.309  -9.957 -21.869  0.00  0.00    -0.453 OA
BRANCH  17  18
ATOM     18  C   UNL     1      32.182  -8.776 -22.581  0.00  0.00    +0.145 C 
ATOM     19  C   UNL     1      33.206  -7.829 -22.550  0.00  0.00    +0.038 C 
ATOM     20  C   UNL     1      31.030  -8.532 -23.329  0.00  0.00    +0.038 C 
ATOM     21  C   UNL     1      33.077  -6.639 -23.265  0.00  0.00    +0.008 C 
ATOM     22  C   UNL     1      30.900  -7.342 -24.043  0.00  0.00    +0.008 C 
ATOM     23  C   UNL     1      31.925  -6.394 -24.012  0.00  0.00    +0.054 C 
BRANCH  23  26
ATOM     24  O   UNL     1      30.733  -4.384 -24.392  0.00  0.00    -0.431 OA
ATOM     25  N   UNL     1      32.541  -4.685 -25.718  0.00  0.00    -0.206 NA
ATOM     26  C   UNL     1      31.791  -5.163 -24.751  0.00  0.00    +0.230 C 
ATOM     27  C   UNL     1      30.833  -3.309 -25.222  0.00  0.00    +0.202 C 
ATOM     28  C   UNL     1      31.931  -3.495 -26.024  0.00  0.00    +0.143 C 
ENDBRANCH  23  26
ENDBRANCH  17  18
ENDBRANCH  16  17
ENDBRANCH  10  11
ENDBRANCH   1  10
BRANCH   2  29
ATOM     29  C   UNL     1      35.716 -18.766 -21.862  0.00  0.00    -0.050 C 
BRANCH  29  30
ATOM     30  C   UNL     1      35.109 -19.781 -20.931  0.00  0.00    -0.043 C 
ATOM     31  C   UNL     1      33.726 -19.815 -20.744  0.00  0.00    -0.006 C 
ATOM     32  C   UNL     1      35.927 -20.686 -20.254  0.00  0.00    -0.006 C 
ATOM     33  C   UNL     1      33.164 -20.755 -19.881  0.00  0.00    +0.006 C 
ATOM     34  C   UNL     1      35.364 -21.624 -19.391  0.00  0.00    +0.006 C 
ATOM     35  C   UNL     1      33.982 -21.660 -19.204  0.00  0.00    +0.075 C 
BRANCH  35  37
ATOM     36  O   UNL     1      33.992 -23.592 -17.794  0.00  0.00    -0.245 OA
ATOM     37  C   UNL     1      33.395 -22.639 -18.305  0.00  0.00    +0.338 C 
BRANCH  37  38
ATOM     38  O   UNL     1      32.076 -22.401 -18.066  0.00  0.00    -0.477 OA
ATOM     39  H   UNL     1      31.541 -23.068 -17.680  0.00  0.00    +0.295 HD
ENDBRANCH  37  38
ENDBRANCH  35  37
ENDBRANCH  29  30
ENDBRANCH   2  29
TORSDOF 9
ENDMDL
MODEL 3
REMARK VINA RESULT:     -11.4      2.331     12.926
REMARK  Name = 68488178
REMARK  9 active torsions:
REMARK  status: ('A' for Active; 'I' for Inactive)
REMARK    1  A    between atoms: N_1  and  C_10
REMARK    2  A    between atoms: N_2  and  C_29
REMARK    3  A    between atoms: C_10  and  C_11
REMARK    4  A    between atoms: C_16  and  O_17
REMARK    5  A    between atoms: O_17  and  C_18
REMARK    6  A    between atoms: C_23  and  C_26
REMARK    7  A    between atoms: C_29  and  C_30
REMARK    8  A    between atoms: C_35  and  C_37
REMARK    9  A    between atoms: C_37  and  O_38
REMARK                            x       y       z     vdW  Elec       q    Type
REMARK                         _______ _______ _______ _____ _____    ______ ____
ROOT
ATOM      1  N   UNL     1      35.603 -19.196 -20.571  0.00  0.00    +0.388 N 
ATOM      2  N   UNL     1      34.488 -21.405 -19.257  0.00  0.00    +0.388 N 
ATOM      3  C   UNL     1      34.629 -20.103 -21.224  0.00  0.00    -0.081 C 
ATOM      4  C   UNL     1      35.786 -21.473 -19.971  0.00  0.00    -0.081 C 
ATOM      5  C   UNL     1      35.406 -21.389 -21.439  0.00  0.00    -0.046 C 
ATOM      6  C   UNL     1      36.462 -20.104 -19.771  0.00  0.00    -0.098 C 
ATOM      7  C   UNL     1      33.645 -20.543 -20.124  0.00  0.00    -0.098 C 
ATOM      8  H   UNL     1      35.142 -18.489 -19.997  0.00  0.00    -0.079 HD
ATOM      9  H   UNL     1      34.590 -21.028 -18.314  0.00  0.00    -0.079 HD
ENDROOT
BRANCH   1  10
ATOM     10  C   UNL     1      36.374 -18.416 -21.532  0.00  0.00    -0.050 C 
BRANCH  10  11
ATOM     11  C   UNL     1      35.505 -17.464 -22.309  0.00  0.00    -0.043 C 
ATOM     12  C   UNL     1      35.352 -17.626 -23.687  0.00  0.00    -0.003 C 
ATOM     13  C   UNL     1      34.852 -16.421 -21.653  0.00  0.00    -0.003 C 
ATOM     14  C   UNL     1      34.546 -16.745 -24.407  0.00  0.00    +0.037 C 
ATOM     15  C   UNL     1      34.047 -15.539 -22.373  0.00  0.00    +0.037 C 
ATOM     16  C   UNL     1      33.894 -15.701 -23.751  0.00  0.00    +0.145 C 
BRANCH  16  17
ATOM     17  O   UNL     1      33.108 -14.840 -24.454  0.00  0.00    -0.453 OA
BRANCH  17  18
ATOM     18  C   UNL     1      33.046 -13.525 -24.021  0.00  0.00    +0.145 C 
ATOM     19  C   UNL     1      32.227 -13.184 -22.945  0.00  0.00    +0.038 C 
ATOM     20  C   UNL     1      33.802 -12.544 -24.662  0.00  0.00    +0.038 C 
ATOM     21  C   UNL     1      32.162 -11.860 -22.512  0.00  0.00    +0.008 C 
ATOM     22  C   UNL     1      33.737 -11.220 -24.229  0.00  0.00    +0.008 C 
ATOM     23  C   UNL     1      32.917 -10.877 -23.152  0.00  0.00    +0.054 C 
BRANCH  23  26
ATOM     24  O   UNL     1      31.862  -9.241 -21.806  0.00  0.00    -0.431 OA
ATOM     25  N   UNL     1      33.602  -8.484 -23.037  0.00  0.00    -0.206 NA
ATOM     26  C   UNL     1      32.849  -9.508 -22.704  0.00  0.00    +0.230 C 
ATOM     27  C   UNL     1      32.013  -7.911 -21.553  0.00  0.00    +0.202 C 
ATOM     28  C   UNL     1      33.070  -7.456 -22.301  0.00  0.00    +0.143 C 
ENDBRANCH  23  26
ENDBRANCH  17  18
ENDBRANCH  16  17
ENDBRANCH  10  11
ENDBRANCH   1  10
BRANCH   2  29
ATOM     29  C   UNL     1      33.893 -22.720 -19.046  0.00  0.00    -0.050 C 
BRANCH  29  30
ATOM     30  C   UNL     1      33.506 -22.936 -17.608  0.00  0.00    -0.043 C 
ATOM     31  C   UNL     1      32.159 -22.970 -17.246  0.00  0.00    -0.006 C 
ATOM     32  C   UNL     1      34.494 -23.100 -16.636  0.00  0.00    -0.006 C 
ATOM     33  C   UNL     1      31.801 -23.170 -15.913  0.00  0.00    +0.006 C 
ATOM     34  C   UNL     1      34.136 -23.298 -15.304  0.00  0.00    +0.006 C 
ATOM     35  C   UNL     1      32.788 -23.335 -14.941  0.00  0.00    +0.075 C 
BRANCH  35  37
ATOM     36  O   UNL     1      31.270 -23.760 -13.143  0.00  0.00    -0.245 OA
ATOM     37  C   UNL     1      32.415 -23.543 -13.552  0.00  0.00    +0.338 C 
BRANCH  37  38
ATOM     38  O   UNL     1      33.482 -23.475 -12.710  0.00  0.00    -0.477 OA
ATOM     39  H   UNL     1      33.696 -22.666 -12.289  0.00  0.00    +0.295 HD
ENDBRANCH  37  38
ENDBRANCH  35  37
ENDBRANCH  29  30
ENDBRANCH   2  29
TORSDOF 9
ENDMDL
MODEL 4
REMARK VINA RESULT:     -11.2      5.045     14.731
REMARK  Name = 68488178
REMARK  9 active torsions:
REMARK  status: ('A' for Active; 'I' for Inactive)
REMARK    1  A    between atoms: N_1  and  C_10
REMARK    2  A    between atoms: N_2  and  C_29
REMARK    3  A    between atoms: C_10  and  C_11
REMARK    4  A    between atoms: C_16  and  O_17
REMARK    5  A    between atoms: O_17  and  C_18
REMARK    6  A    between atoms: C_23  and  C_26
REMARK    7  A    between atoms: C_29  and  C_30
REMARK    8  A    between atoms: C_35  and  C_37
REMARK    9  A    between atoms: C_37  and  O_38
REMARK                            x       y       z     vdW  Elec       q    Type
REMARK                         _______ _______ _______ _____ _____    ______ ____
ROOT
ATOM      1  N   UNL     1      33.252 -23.417 -17.257  0.00  0.00    +0.388 N 
ATOM      2  N   UNL     1      34.294 -24.765 -15.032  0.00  0.00    +0.388 N 
ATOM      3  C   UNL     1      34.305 -22.833 -16.392  0.00  0.00    -0.081 C 
ATOM      4  C   UNL     1      33.070 -23.930 -14.958  0.00  0.00    -0.081 C 
ATOM      5  C   UNL     1      33.583 -22.508 -15.096  0.00  0.00    -0.046 C 
ATOM      6  C   UNL     1      32.344 -24.106 -16.305  0.00  0.00    -0.098 C 
ATOM      7  C   UNL     1      35.192 -24.007 -15.939  0.00  0.00    -0.098 C 
ATOM      8  H   UNL     1      33.641 -24.053 -17.955  0.00  0.00    -0.079 HD
ATOM      9  H   UNL     1      34.095 -25.705 -15.376  0.00  0.00    -0.079 HD
ENDROOT
BRANCH   1  10
ATOM     10  C   UNL     1      32.555 -22.412 -18.049  0.00  0.00    -0.050 C 
BRANCH  10  11
ATOM     11  C   UNL     1      33.486 -21.690 -18.986  0.00  0.00    -0.043 C 
ATOM     12  C   UNL     1      33.000 -20.671 -19.805  0.00  0.00    -0.003 C 
ATOM     13  C   UNL     1      34.836 -22.041 -19.035  0.00  0.00    -0.003 C 
ATOM     14  C   UNL     1      33.863 -20.002 -20.673  0.00  0.00    +0.037 C 
ATOM     15  C   UNL     1      35.699 -21.373 -19.903  0.00  0.00    +0.037 C 
ATOM     16  C   UNL     1      35.213 -20.353 -20.723  0.00  0.00    +0.145 C 
BRANCH  16  17
ATOM     17  O   UNL     1      36.055 -19.701 -21.570  0.00  0.00    -0.453 OA
BRANCH  17  18
ATOM     18  C   UNL     1      35.512 -18.735 -22.401  0.00  0.00    +0.145 C 
ATOM     19  C   UNL     1      35.096 -19.076 -23.688  0.00  0.00    +0.038 C 
ATOM     20  C   UNL     1      35.382 -17.421 -21.951  0.00  0.00    +0.038 C 
ATOM     21  C   UNL     1      34.552 -18.102 -24.525  0.00  0.00    +0.008 C 
ATOM     22  C   UNL     1      34.838 -16.448 -22.788  0.00  0.00    +0.008 C 
ATOM     23  C   UNL     1      34.422 -16.788 -24.076  0.00  0.00    +0.054 C 
BRANCH  23  26
ATOM     24  O   UNL     1      33.531 -14.610 -24.331  0.00  0.00    -0.431 OA
ATOM     25  N   UNL     1      33.620 -15.831 -26.233  0.00  0.00    -0.206 NA
ATOM     26  C   UNL     1      33.860 -15.781 -24.942  0.00  0.00    +0.230 C 
ATOM     27  C   UNL     1      33.033 -13.850 -25.346  0.00  0.00    +0.202 C 
ATOM     28  C   UNL     1      33.090 -14.595 -26.498  0.00  0.00    +0.143 C 
ENDBRANCH  23  26
ENDBRANCH  17  18
ENDBRANCH  16  17
ENDBRANCH  10  11
ENDBRANCH   1  10
BRANCH   2  29
ATOM     29  C   UNL     1      34.898 -24.992 -13.724  0.00  0.00    -0.050 C 
BRANCH  29  30
ATOM     30  C   UNL     1      36.384 -25.214 -13.824  0.00  0.00    -0.043 C 
ATOM     31  C   UNL     1      36.881 -26.261 -14.600  0.00  0.00    -0.006 C 
ATOM     32  C   UNL     1      37.263 -24.374 -13.140  0.00  0.00    -0.006 C 
ATOM     33  C   UNL     1      38.257 -26.467 -14.692  0.00  0.00    +0.006 C 
ATOM     34  C   UNL     1      38.639 -24.581 -13.232  0.00  0.00    +0.006 C 
ATOM     35  C   UNL     1      39.137 -25.627 -14.009  0.00  0.00    +0.075 C 
BRANCH  35  37
ATOM     36  O   UNL     1      41.162 -26.883 -13.801  0.00  0.00    -0.245 OA
ATOM     37  C   UNL     1      40.571 -25.842 -14.105  0.00  0.00    +0.338 C 
BRANCH  37  38
ATOM     38  O   UNL     1      41.230 -24.750 -14.582  0.00  0.00    -0.477 OA
ATOM     39  H   UNL     1      41.452 -24.697 -15.491  0.00  0.00    +0.295 HD
ENDBRANCH  37  38
ENDBRANCH  35  37
ENDBRANCH  29  30
ENDBRANCH   2  29
TORSDOF 9
ENDMDL
MODEL 5
REMARK VINA RESULT:     -11.2      2.603     13.162
REMARK  Name = 68488178
REMARK  9 active torsions:
REMARK  status: ('A' for Active; 'I' for Inactive)
REMARK    1  A    between atoms: N_1  and  C_10
REMARK    2  A    between atoms: N_2  and  C_29
REMARK    3  A    between atoms: C_10  and  C_11
REMARK    4  A    between atoms: C_16  and  O_17
REMARK    5  A    between atoms: O_17  and  C_18
REMARK    6  A    between atoms: C_23  and  C_26
REMARK    7  A    between atoms: C_29  and  C_30
REMARK    8  A    between atoms: C_35  and  C_37
REMARK    9  A    between atoms: C_37  and  O_38
REMARK                            x       y       z     vdW  Elec       q    Type
REMARK                         _______ _______ _______ _____ _____    ______ ____
ROOT
ATOM      1  N   UNL     1      34.355 -17.361 -21.710  0.00  0.00    +0.388 N 
ATOM      2  N   UNL     1      35.182 -19.791 -20.585  0.00  0.00    +0.388 N 
ATOM      3  C   UNL     1      34.239 -18.653 -22.429  0.00  0.00    -0.081 C 
ATOM      4  C   UNL     1      36.109 -18.894 -21.319  0.00  0.00    -0.081 C 
ATOM      5  C   UNL     1      35.673 -19.019 -22.768  0.00  0.00    -0.046 C 
ATOM      6  C   UNL     1      35.658 -17.456 -21.005  0.00  0.00    -0.098 C 
ATOM      7  C   UNL     1      33.918 -19.714 -21.360  0.00  0.00    -0.098 C 
ATOM      8  H   UNL     1      33.575 -17.210 -21.069  0.00  0.00    -0.079 HD
ATOM      9  H   UNL     1      35.061 -19.502 -19.613  0.00  0.00    -0.079 HD
ENDROOT
BRANCH   1  10
ATOM     10  C   UNL     1      34.298 -16.213 -22.607  0.00  0.00    -0.050 C 
BRANCH  10  11
ATOM     11  C   UNL     1      33.523 -15.071 -22.007  0.00  0.00    -0.043 C 
ATOM     12  C   UNL     1      32.971 -14.092 -22.835  0.00  0.00    -0.003 C 
ATOM     13  C   UNL     1      33.357 -14.990 -20.624  0.00  0.00    -0.003 C 
ATOM     14  C   UNL     1      32.253 -13.033 -22.280  0.00  0.00    +0.037 C 
ATOM     15  C   UNL     1      32.639 -13.931 -20.069  0.00  0.00    +0.037 C 
ATOM     16  C   UNL     1      32.087 -12.952 -20.897  0.00  0.00    +0.145 C 
BRANCH  16  17
ATOM     17  O   UNL     1      31.387 -11.918 -20.355  0.00  0.00    -0.453 OA
BRANCH  17  18
ATOM     18  C   UNL     1      31.485 -10.681 -20.970  0.00  0.00    +0.145 C 
ATOM     19  C   UNL     1      31.924  -9.574 -20.244  0.00  0.00    +0.038 C 
ATOM     20  C   UNL     1      31.145 -10.543 -22.316  0.00  0.00    +0.038 C 
ATOM     21  C   UNL     1      32.019  -8.328 -20.863  0.00  0.00    +0.008 C 
ATOM     22  C   UNL     1      31.241  -9.297 -22.935  0.00  0.00    +0.008 C 
ATOM     23  C   UNL     1      31.679  -8.189 -22.209  0.00  0.00    +0.054 C 
BRANCH  23  26
ATOM     24  O   UNL     1      31.494  -5.834 -22.051  0.00  0.00    -0.431 OA
ATOM     25  N   UNL     1      32.101  -6.607 -24.088  0.00  0.00    -0.206 NA
ATOM     26  C   UNL     1      31.777  -6.900 -22.849  0.00  0.00    +0.230 C 
ATOM     27  C   UNL     1      31.657  -4.764 -22.879  0.00  0.00    +0.202 C 
ATOM     28  C   UNL     1      32.025  -5.239 -24.113  0.00  0.00    +0.143 C 
ENDBRANCH  23  26
ENDBRANCH  17  18
ENDBRANCH  16  17
ENDBRANCH  10  11
ENDBRANCH   1  10
BRANCH   2  29
ATOM     29  C   UNL     1      35.683 -21.157 -20.485  0.00  0.00    -0.050 C 
BRANCH  29  30
ATOM     30  C   UNL     1      35.448 -21.741 -19.118  0.00  0.00    -0.043 C 
ATOM     31  C   UNL     1      36.443 -21.657 -18.143  0.00  0.00    -0.006 C 
ATOM     32  C   UNL     1      34.236 -22.369 -18.826  0.00  0.00    -0.006 C 
ATOM     33  C   UNL     1      36.225 -22.199 -16.878  0.00  0.00    +0.006 C 
ATOM     34  C   UNL     1      34.020 -22.911 -17.560  0.00  0.00    +0.006 C 
ATOM     35  C   UNL     1      35.013 -22.826 -16.584  0.00  0.00    +0.075 C 
BRANCH  35  37
ATOM     36  O   UNL     1      35.398 -24.349 -14.781  0.00  0.00    -0.245 OA
ATOM     37  C   UNL     1      34.787 -23.391 -15.265  0.00  0.00    +0.338 C 
BRANCH  37  38
ATOM     38  O   UNL     1      33.803 -22.742 -14.583  0.00  0.00    -0.477 OA
ATOM     39  H   UNL     1      33.730 -22.846 -13.654  0.00  0.00    +0.295 HD
ENDBRANCH  37  38
ENDBRANCH  35  37
ENDBRANCH  29  30
ENDBRANCH   2  29
TORSDOF 9
ENDMDL
MODEL 6
REMARK VINA RESULT:     -11.1      4.039     12.723
REMARK  Name = 68488178
REMARK  9 active torsions:
REMARK  status: ('A' for Active; 'I' for Inactive)
REMARK    1  A    between atoms: N_1  and  C_10
REMARK    2  A    between atoms: N_2  and  C_29
REMARK    3  A    between atoms: C_10  and  C_11
REMARK    4  A    between atoms: C_16  and  O_17
REMARK    5  A    between atoms: O_17  and  C_18
REMARK    6  A    between atoms: C_23  and  C_26
REMARK    7  A    between atoms: C_29  and  C_30
REMARK    8  A    between atoms: C_35  and  C_37
REMARK    9  A    between atoms: C_37  and  O_38
REMARK                            x       y       z     vdW  Elec       q    Type
REMARK                         _______ _______ _______ _____ _____    ______ ____
ROOT
ATOM      1  N   UNL     1      34.646 -21.998 -17.959  0.00  0.00    +0.388 N 
ATOM      2  N   UNL     1      32.672 -23.022 -16.253  0.00  0.00    +0.388 N 
ATOM      3  C   UNL     1      33.622 -22.968 -18.416  0.00  0.00    -0.081 C 
ATOM      4  C   UNL     1      34.021 -23.630 -16.370  0.00  0.00    -0.081 C 
ATOM      5  C   UNL     1      34.020 -24.271 -17.746  0.00  0.00    -0.046 C 
ATOM      6  C   UNL     1      35.002 -22.465 -16.596  0.00  0.00    -0.098 C 
ATOM      7  C   UNL     1      32.333 -22.631 -17.645  0.00  0.00    -0.098 C 
ATOM      8  H   UNL     1      34.293 -21.040 -17.963  0.00  0.00    -0.079 HD
ATOM      9  H   UNL     1      32.666 -22.227 -15.612  0.00  0.00    -0.079 HD
ENDROOT
BRANCH   1  10
ATOM     10  C   UNL     1      35.805 -21.947 -18.842  0.00  0.00    -0.050 C 
BRANCH  10  11
ATOM     11  C   UNL     1      35.697 -20.830 -19.846  0.00  0.00    -0.043 C 
ATOM     12  C   UNL     1      34.466 -20.538 -20.434  0.00  0.00    -0.003 C 
ATOM     13  C   UNL     1      36.827 -20.087 -20.187  0.00  0.00    -0.003 C 
ATOM     14  C   UNL     1      34.365 -19.503 -21.364  0.00  0.00    +0.037 C 
ATOM     15  C   UNL     1      36.727 -19.052 -21.117  0.00  0.00    +0.037 C 
ATOM     16  C   UNL     1      35.496 -18.760 -21.706  0.00  0.00    +0.145 C 
BRANCH  16  17
ATOM     17  O   UNL     1      35.398 -17.751 -22.614  0.00  0.00    -0.453 OA
BRANCH  17  18
ATOM     18  C   UNL     1      34.655 -16.637 -22.261  0.00  0.00    +0.145 C 
ATOM     19  C   UNL     1      34.011 -15.888 -23.246  0.00  0.00    +0.038 C 
ATOM     20  C   UNL     1      34.551 -16.264 -20.921  0.00  0.00    +0.038 C 
ATOM     21  C   UNL     1      33.265 -14.765 -22.891  0.00  0.00    +0.008 C 
ATOM     22  C   UNL     1      33.804 -15.140 -20.566  0.00  0.00    +0.008 C 
ATOM     23  C   UNL     1      33.160 -14.390 -21.551  0.00  0.00    +0.054 C 
BRANCH  23  26
ATOM     24  O   UNL     1      31.880 -12.518 -22.228  0.00  0.00    -0.431 OA
ATOM     25  N   UNL     1      32.108 -12.758 -19.990  0.00  0.00    -0.206 NA
ATOM     26  C   UNL     1      32.389 -13.228 -21.184  0.00  0.00    +0.230 C 
ATOM     27  C   UNL     1      31.212 -11.497 -21.622  0.00  0.00    +0.202 C 
ATOM     28  C   UNL     1      31.352 -11.647 -20.265  0.00  0.00    +0.143 C 
ENDBRANCH  23  26
ENDBRANCH  17  18
ENDBRANCH  16  17
ENDBRANCH  10  11
ENDBRANCH   1  10
BRANCH   2  29
ATOM     29  C   UNL     1      31.691 -23.938 -15.685  0.00  0.00    -0.050 C 
BRANCH  29  30
ATOM     30  C   UNL     1      30.284 -23.428 -15.855  0.00  0.00    -0.043 C 
ATOM     31  C   UNL     1      29.474 -23.942 -16.867  0.00  0.00    -0.006 C 
ATOM     32  C   UNL     1      29.792 -22.441 -15.000  0.00  0.00    -0.006 C 
ATOM     33  C   UNL     1      28.172 -23.469 -17.024  0.00  0.00    +0.006 C 
ATOM     34  C   UNL     1      28.490 -21.968 -15.157  0.00  0.00    +0.006 C 
ATOM     35  C   UNL     1      27.678 -22.483 -16.169  0.00  0.00    +0.075 C 
BRANCH  35  37
ATOM     36  O   UNL     1      25.841 -21.546 -17.381  0.00  0.00    -0.245 OA
ATOM     37  C   UNL     1      26.321 -21.990 -16.333  0.00  0.00    +0.338 C 
BRANCH  37  38
ATOM     38  O   UNL     1      25.597 -22.067 -15.183  0.00  0.00    -0.477 OA
ATOM     39  H   UNL     1      25.694 -22.807 -14.616  0.00  0.00    +0.295 HD
ENDBRANCH  37  38
ENDBRANCH  35  37
ENDBRANCH  29  30
ENDBRANCH   2  29
TORSDOF 9
ENDMDL
MODEL 7
REMARK VINA RESULT:     -11.0      3.055      6.097
REMARK  Name = 68488178
REMARK  9 active torsions:
REMARK  status: ('A' for Active; 'I' for Inactive)
REMARK    1  A    between atoms: N_1  and  C_10
REMARK    2  A    between atoms: N_2  and  C_29
REMARK    3  A    between atoms: C_10  and  C_11
REMARK    4  A    between atoms: C_16  and  O_17
REMARK    5  A    between atoms: O_17  and  C_18
REMARK    6  A    between atoms: C_23  and  C_26
REMARK    7  A    between atoms: C_29  and  C_30
REMARK    8  A    between atoms: C_35  and  C_37
REMARK    9  A    between atoms: C_37  and  O_38
REMARK                            x       y       z     vdW  Elec       q    Type
REMARK                         _______ _______ _______ _____ _____    ______ ____
ROOT
ATOM      1  N   UNL     1      34.663 -17.816 -22.222  0.00  0.00    +0.388 N 
ATOM      2  N   UNL     1      33.573 -15.793 -23.826  0.00  0.00    +0.388 N 
ATOM      3  C   UNL     1      35.346 -16.519 -22.443  0.00  0.00    -0.081 C 
ATOM      4  C   UNL     1      34.401 -16.892 -24.380  0.00  0.00    -0.081 C 
ATOM      5  C   UNL     1      35.804 -16.583 -23.889  0.00  0.00    -0.046 C 
ATOM      6  C   UNL     1      34.073 -18.144 -23.545  0.00  0.00    -0.098 C 
ATOM      7  C   UNL     1      34.236 -15.457 -22.540  0.00  0.00    -0.098 C 
ATOM      8  H   UNL     1      33.958 -17.756 -21.486  0.00  0.00    -0.079 HD
ATOM      9  H   UNL     1      32.600 -16.073 -23.701  0.00  0.00    -0.079 HD
ENDROOT
BRANCH   1  10
ATOM     10  C   UNL     1      35.570 -18.856 -21.753  0.00  0.00    -0.050 C 
BRANCH  10  11
ATOM     11  C   UNL     1      34.863 -19.876 -20.902  0.00  0.00    -0.043 C 
ATOM     12  C   UNL     1      35.573 -20.954 -20.371  0.00  0.00    -0.003 C 
ATOM     13  C   UNL     1      33.498 -19.745 -20.644  0.00  0.00    -0.003 C 
ATOM     14  C   UNL     1      34.917 -21.900 -19.582  0.00  0.00    +0.037 C 
ATOM     15  C   UNL     1      32.843 -20.691 -19.856  0.00  0.00    +0.037 C 
ATOM     16  C   UNL     1      33.553 -21.768 -19.325  0.00  0.00    +0.145 C 
BRANCH  16  17
ATOM     17  O   UNL     1      32.913 -22.691 -18.556  0.00  0.00    -0.453 OA
BRANCH  17  18
ATOM     18  C   UNL     1      33.432 -22.953 -17.299  0.00  0.00    +0.145 C 
ATOM     19  C   UNL     1      34.800 -22.817 -17.067  0.00  0.00    +0.038 C 
ATOM     20  C   UNL     1      32.586 -23.353 -16.264  0.00  0.00    +0.038 C 
ATOM     21  C   UNL     1      35.323 -23.084 -15.802  0.00  0.00    +0.008 C 
ATOM     22  C   UNL     1      33.109 -23.620 -14.999  0.00  0.00    +0.008 C 
ATOM     23  C   UNL     1      34.479 -23.485 -14.767  0.00  0.00    +0.054 C 
BRANCH  23  26
ATOM     24  O   UNL     1      36.263 -23.257 -13.229  0.00  0.00    -0.431 OA
ATOM     25  N   UNL     1      34.486 -24.427 -12.460  0.00  0.00    -0.206 NA
ATOM     26  C   UNL     1      35.020 -23.761 -13.459  0.00  0.00    +0.230 C 
ATOM     27  C   UNL     1      36.534 -23.651 -11.953  0.00  0.00    +0.202 C 
ATOM     28  C   UNL     1      35.454 -24.359 -11.491  0.00  0.00    +0.143 C 
ENDBRANCH  23  26
ENDBRANCH  17  18
ENDBRANCH  16  17
ENDBRANCH  10  11
ENDBRANCH   1  10
BRANCH   2  29
ATOM     29  C   UNL     1      33.495 -14.643 -24.720  0.00  0.00    -0.050 C 
BRANCH  29  30
ATOM     30  C   UNL     1      33.114 -13.386 -23.984  0.00  0.00    -0.043 C 
ATOM     31  C   UNL     1      32.214 -13.447 -22.920  0.00  0.00    -0.006 C 
ATOM     32  C   UNL     1      33.661 -12.161 -24.367  0.00  0.00    -0.006 C 
ATOM     33  C   UNL     1      31.861 -12.282 -22.240  0.00  0.00    +0.006 C 
ATOM     34  C   UNL     1      33.308 -10.997 -23.686  0.00  0.00    +0.006 C 
ATOM     35  C   UNL     1      32.408 -11.056 -22.621  0.00  0.00    +0.075 C 
BRANCH  35  37
ATOM     36  O   UNL     1      31.943  -9.732 -20.685  0.00  0.00    -0.245 OA
ATOM     37  C   UNL     1      32.040  -9.843 -21.911  0.00  0.00    +0.338 C 
BRANCH  37  38
ATOM     38  O   UNL     1      31.804  -8.799 -22.752  0.00  0.00    -0.477 OA
ATOM     39  H   UNL     1      30.952  -8.680 -23.124  0.00  0.00    +0.295 HD
ENDBRANCH  37  38
ENDBRANCH  35  37
ENDBRANCH  29  30
ENDBRANCH   2  29
TORSDOF 9
ENDMDL
MODEL 8
REMARK VINA RESULT:     -10.7      2.024      2.753
REMARK  Name = 68488178
REMARK  9 active torsions:
REMARK  status: ('A' for Active; 'I' for Inactive)
REMARK    1  A    between atoms: N_1  and  C_10
REMARK    2  A    between atoms: N_2  and  C_29
REMARK    3  A    between atoms: C_10  and  C_11
REMARK    4  A    between atoms: C_16  and  O_17
REMARK    5  A    between atoms: O_17  and  C_18
REMARK    6  A    between atoms: C_23  and  C_26
REMARK    7  A    between atoms: C_29  and  C_30
REMARK    8  A    between atoms: C_35  and  C_37
REMARK    9  A    between atoms: C_37  and  O_38
REMARK                            x       y       z     vdW  Elec       q    Type
REMARK                         _______ _______ _______ _____ _____    ______ ____
ROOT
ATOM      1  N   UNL     1      32.505 -11.636 -22.198  0.00  0.00    +0.388 N 
ATOM      2  N   UNL     1      32.826  -8.910 -21.635  0.00  0.00    +0.388 N 
ATOM      3  C   UNL     1      32.189 -10.576 -23.185  0.00  0.00    -0.081 C 
ATOM      4  C   UNL     1      31.590  -9.656 -21.292  0.00  0.00    -0.081 C 
ATOM      5  C   UNL     1      30.934  -9.921 -22.636  0.00  0.00    -0.046 C 
ATOM      6  C   UNL     1      32.036 -11.078 -20.905  0.00  0.00    -0.098 C 
ATOM      7  C   UNL     1      33.220  -9.455 -22.959  0.00  0.00    -0.098 C 
ATOM      8  H   UNL     1      33.500 -11.863 -22.187  0.00  0.00    -0.079 HD
ATOM      9  H   UNL     1      33.554  -9.034 -20.930  0.00  0.00    -0.079 HD
ENDROOT
BRANCH   1  10
ATOM     10  C   UNL     1      31.861 -12.906 -22.513  0.00  0.00    -0.050 C 
BRANCH  10  11
ATOM     11  C   UNL     1      32.839 -14.050 -22.497  0.00  0.00    -0.043 C 
ATOM     12  C   UNL     1      33.298 -14.558 -21.281  0.00  0.00    -0.003 C 
ATOM     13  C   UNL     1      33.286 -14.603 -23.698  0.00  0.00    -0.003 C 
ATOM     14  C   UNL     1      34.204 -15.619 -21.266  0.00  0.00    +0.037 C 
ATOM     15  C   UNL     1      34.193 -15.663 -23.682  0.00  0.00    +0.037 C 
ATOM     16  C   UNL     1      34.652 -16.171 -22.467  0.00  0.00    +0.145 C 
BRANCH  16  17
ATOM     17  O   UNL     1      35.537 -17.205 -22.452  0.00  0.00    -0.453 OA
BRANCH  17  18
ATOM     18  C   UNL     1      35.232 -18.302 -21.664  0.00  0.00    +0.145 C 
ATOM     19  C   UNL     1      33.905 -18.702 -21.509  0.00  0.00    +0.038 C 
ATOM     20  C   UNL     1      36.252 -19.007 -21.024  0.00  0.00    +0.038 C 
ATOM     21  C   UNL     1      33.597 -19.805 -20.713  0.00  0.00    +0.008 C 
ATOM     22  C   UNL     1      35.944 -20.109 -20.228  0.00  0.00    +0.008 C 
ATOM     23  C   UNL     1      34.616 -20.510 -20.072  0.00  0.00    +0.054 C 
BRANCH  23  26
ATOM     24  O   UNL     1      35.244 -21.980 -18.327  0.00  0.00    -0.431 OA
ATOM     25  N   UNL     1      33.230 -22.414 -19.259  0.00  0.00    -0.206 NA
ATOM     26  C   UNL     1      34.298 -21.650 -19.248  0.00  0.00    +0.230 C 
ATOM     27  C   UNL     1      34.711 -23.064 -17.697  0.00  0.00    +0.202 C 
ATOM     28  C   UNL     1      33.489 -23.323 -18.266  0.00  0.00    +0.143 C 
ENDBRANCH  23  26
ENDBRANCH  17  18
ENDBRANCH  16  17
ENDBRANCH  10  11
ENDBRANCH   1  10
BRANCH   2  29
ATOM     29  C   UNL     1      32.619  -7.467 -21.674  0.00  0.00    -0.050 C 
BRANCH  29  30
ATOM     30  C   UNL     1      32.983  -6.885 -23.013  0.00  0.00    -0.043 C 
ATOM     31  C   UNL     1      34.253  -7.107 -23.548  0.00  0.00    -0.006 C 
ATOM     32  C   UNL     1      32.052  -6.123 -23.720  0.00  0.00    -0.006 C 
ATOM     33  C   UNL     1      34.590  -6.566 -24.788  0.00  0.00    +0.006 C 
ATOM     34  C   UNL     1      32.390  -5.583 -24.959  0.00  0.00    +0.006 C 
ATOM     35  C   UNL     1      33.659  -5.805 -25.495  0.00  0.00    +0.075 C 
BRANCH  35  37
ATOM     36  O   UNL     1      33.209  -4.847 -27.640  0.00  0.00    -0.245 OA
ATOM     37  C   UNL     1      34.011  -5.243 -26.788  0.00  0.00    +0.338 C 
BRANCH  37  38
ATOM     38  O   UNL     1      35.358  -5.188 -26.983  0.00  0.00    -0.477 OA
ATOM     39  H   UNL     1      35.759  -5.728 -27.636  0.00  0.00    +0.295 HD
ENDBRANCH  37  38
ENDBRANCH  35  37
ENDBRANCH  29  30
ENDBRANCH   2  29
TORSDOF 9
ENDMDL
MODEL 9
REMARK VINA RESULT:     -10.7      2.883      4.221
REMARK  Name = 68488178
REMARK  9 active torsions:
REMARK  status: ('A' for Active; 'I' for Inactive)
REMARK    1  A    between atoms: N_1  and  C_10
REMARK    2  A    between atoms: N_2  and  C_29
REMARK    3  A    between atoms: C_10  and  C_11
REMARK    4  A    between atoms: C_16  and  O_17
REMARK    5  A    between atoms: O_17  and  C_18
REMARK    6  A    between atoms: C_23  and  C_26
REMARK    7  A    between atoms: C_29  and  C_30
REMARK    8  A    between atoms: C_35  and  C_37
REMARK    9  A    between atoms: C_37  and  O_38
REMARK                            x       y       z     vdW  Elec       q    Type
REMARK                         _______ _______ _______ _____ _____    ______ ____
ROOT
ATOM      1  N   UNL     1      31.971 -10.064 -23.015  0.00  0.00    +0.388 N 
ATOM      2  N   UNL     1      32.327  -7.460 -23.987  0.00  0.00    +0.388 N 
ATOM      3  C   UNL     1      31.066  -8.947 -22.652  0.00  0.00    -0.081 C 
ATOM      4  C   UNL     1      33.014  -7.959 -22.770  0.00  0.00    -0.081 C 
ATOM      5  C   UNL     1      31.905  -8.071 -21.739  0.00  0.00    -0.046 C 
ATOM      6  C   UNL     1      33.321  -9.446 -23.025  0.00  0.00    -0.098 C 
ATOM      7  C   UNL     1      30.967  -8.049 -23.899  0.00  0.00    -0.098 C 
ATOM      8  H   UNL     1      31.724 -10.478 -23.914  0.00  0.00    -0.079 HD
ATOM      9  H   UNL     1      32.816  -7.733 -24.840  0.00  0.00    -0.079 HD
ENDROOT
BRANCH   1  10
ATOM     10  C   UNL     1      31.886 -11.180 -22.081  0.00  0.00    -0.050 C 
BRANCH  10  11
ATOM     11  C   UNL     1      32.530 -12.424 -22.633  0.00  0.00    -0.043 C 
ATOM     12  C   UNL     1      32.285 -13.660 -22.035  0.00  0.00    -0.003 C 
ATOM     13  C   UNL     1      33.373 -12.340 -23.742  0.00  0.00    -0.003 C 
ATOM     14  C   UNL     1      32.882 -14.813 -22.546  0.00  0.00    +0.037 C 
ATOM     15  C   UNL     1      33.970 -13.492 -24.253  0.00  0.00    +0.037 C 
ATOM     16  C   UNL     1      33.725 -14.729 -23.655  0.00  0.00    +0.145 C 
BRANCH  16  17
ATOM     17  O   UNL     1      34.308 -15.853 -24.154  0.00  0.00    -0.453 OA
BRANCH  17  18
ATOM     18  C   UNL     1      34.602 -16.874 -23.265  0.00  0.00    +0.145 C 
ATOM     19  C   UNL     1      34.460 -18.204 -23.660  0.00  0.00    +0.038 C 
ATOM     20  C   UNL     1      35.038 -16.572 -21.975  0.00  0.00    +0.038 C 
ATOM     21  C   UNL     1      34.753 -19.232 -22.764  0.00  0.00    +0.008 C 
ATOM     22  C   UNL     1      35.331 -17.600 -21.079  0.00  0.00    +0.008 C 
ATOM     23  C   UNL     1      35.189 -18.931 -21.474  0.00  0.00    +0.054 C 
BRANCH  23  26
ATOM     24  O   UNL     1      34.461 -20.843 -20.283  0.00  0.00    -0.431 OA
ATOM     25  N   UNL     1      36.616 -20.261 -19.923  0.00  0.00    -0.206 NA
ATOM     26  C   UNL     1      35.492 -19.994 -20.547  0.00  0.00    +0.230 C 
ATOM     27  C   UNL     1      34.998 -21.731 -19.401  0.00  0.00    +0.202 C 
ATOM     28  C   UNL     1      36.305 -21.375 -19.187  0.00  0.00    +0.143 C 
ENDBRANCH  23  26
ENDBRANCH  17  18
ENDBRANCH  16  17
ENDBRANCH  10  11
ENDBRANCH   1  10
BRANCH   2  29
ATOM     29  C   UNL     1      32.291  -6.004 -24.054  0.00  0.00    -0.050 C 
BRANCH  29  30
ATOM     30  C   UNL     1      32.999  -5.482 -25.276  0.00  0.00    -0.043 C 
ATOM     31  C   UNL     1      34.269  -5.958 -25.602  0.00  0.00    -0.006 C 
ATOM     32  C   UNL     1      32.385  -4.521 -26.081  0.00  0.00    -0.006 C 
ATOM     33  C   UNL     1      34.925  -5.473 -26.733  0.00  0.00    +0.006 C 
ATOM     34  C   UNL     1      33.042  -4.037 -27.211  0.00  0.00    +0.006 C 
ATOM     35  C   UNL     1      34.312  -4.514 -27.539  0.00  0.00    +0.075 C 
BRANCH  35  37
ATOM     36  O   UNL     1      34.795  -4.384 -29.878  0.00  0.00    -0.245 OA
ATOM     37  C   UNL     1      34.996  -4.010 -28.718  0.00  0.00    +0.338 C 
BRANCH  37  38
ATOM     38  O   UNL     1      35.913  -3.049 -28.418  0.00  0.00    -0.477 OA
ATOM     39  H   UNL     1      35.804  -2.521 -27.651  0.00  0.00    +0.295 HD
ENDBRANCH  37  38
ENDBRANCH  35  37
ENDBRANCH  29  30
ENDBRANCH   2  29
TORSDOF 9
ENDMDL
