MODEL 1
REMARK VINA RESULT:      -9.2      0.000      0.000
REMARK  Name = 101970
REMARK  5 active torsions:
REMARK  status: ('A' for Active; 'I' for Inactive)
REMARK    1  A    between atoms: C_6  and  O_23
REMARK    2  A    between atoms: C_6  and  C_26
REMARK    3  A    between atoms: C_26  and  C_27
REMARK    4  A    between atoms: C_27  and  O_28
REMARK    5  A    between atoms: O_28  and  C_30
REMARK                            x       y       z     vdW  Elec       q    Type
REMARK                         _______ _______ _______ _____ _____    ______ ____
ROOT
ATOM      1  O   UNL     1      34.774 -24.458 -11.674  0.00  0.00    -0.296 OA
ATOM      2  O   UNL     1      40.606 -26.288 -14.087  0.00  0.00    -0.287 OA
ATOM      3  C   UNL     1      32.700 -23.876 -14.399  0.00  0.00    +0.036 C 
ATOM      4  C   UNL     1      33.753 -23.834 -15.535  0.00  0.00    +0.004 C 
ATOM      5  C   UNL     1      35.147 -23.398 -15.051  0.00  0.00    +0.008 C 
ATOM      6  C   UNL     1      31.423 -24.222 -15.221  0.00  0.00    +0.143 C 
ATOM      7  C   UNL     1      35.652 -24.403 -13.966  0.00  0.00    +0.065 C 
ATOM      8  C   UNL     1      33.071 -22.995 -16.610  0.00  0.00    +0.003 C 
ATOM      9  C   UNL     1      31.599 -23.477 -16.581  0.00  0.00    +0.032 C 
ATOM     10  C   UNL     1      33.167 -24.921 -13.377  0.00  0.00    +0.067 C 
ATOM     11  C   UNL     1      37.100 -24.073 -13.457  0.00  0.00    +0.040 C 
ATOM     12  C   UNL     1      36.138 -23.308 -16.221  0.00  0.00    +0.005 C 
ATOM     13  C   UNL     1      34.562 -24.559 -12.880  0.00  0.00    +0.151 C 
ATOM     14  C   UNL     1      32.528 -22.512 -13.672  0.00  0.00    +0.003 C 
ATOM     15  C   UNL     1      37.541 -22.952 -15.746  0.00  0.00    +0.022 C 
ATOM     16  C   UNL     1      38.001 -23.927 -14.692  0.00  0.00    -0.038 C 
ATOM     17  C   UNL     1      30.650 -22.311 -16.845  0.00  0.00    +0.003 C 
ATOM     18  C   UNL     1      37.164 -22.760 -12.646  0.00  0.00    +0.009 C 
ATOM     19  C   UNL     1      37.605 -25.184 -12.544  0.00  0.00    -0.019 C 
ATOM     20  C   UNL     1      39.120 -24.643 -14.889  0.00  0.00    +0.034 C 
ATOM     21  C   UNL     1      38.716 -25.901 -12.738  0.00  0.00    +0.038 C 
ATOM     22  C   UNL     1      39.567 -25.659 -13.916  0.00  0.00    +0.195 C 
ENDROOT
BRANCH   6  23
ATOM     23  O   UNL     1      31.396 -25.631 -15.485  0.00  0.00    -0.380 OA
ATOM     24  H   UNL     1      31.771 -25.803 -16.363  0.00  0.00    +0.211 HD
ENDBRANCH   6  23
BRANCH   6  26
ATOM     25  O   UNL     1      30.085 -23.407 -13.424  0.00  0.00    -0.290 OA
ATOM     26  C   UNL     1      30.128 -24.017 -14.491  0.00  0.00    +0.218 C 
BRANCH  26  27
ATOM     27  C   UNL     1      28.893 -24.603 -15.141  0.00  0.00    +0.274 C 
BRANCH  27  28
ATOM     28  O   UNL     1      27.926 -23.599 -15.369  0.00  0.00    -0.440 OA
BRANCH  28  30
ATOM     29  O   UNL     1      27.746 -24.152 -17.605  0.00  0.00    -0.250 OA
ATOM     30  C   UNL     1      27.590 -23.368 -16.678  0.00  0.00    +0.318 C 
ATOM     31  C   UNL     1      26.995 -22.000 -16.829  0.00  0.00    +0.121 C 
ENDBRANCH  28  30
ENDBRANCH  27  28
ENDBRANCH  26  27
ENDBRANCH   6  26
TORSDOF 5
ENDMDL
MODEL 2
REMARK VINA RESULT:      -8.7     13.985     16.794
REMARK  Name = 101970
REMARK  5 active torsions:
REMARK  status: ('A' for Active; 'I' for Inactive)
REMARK    1  A    between atoms: C_6  and  O_23
REMARK    2  A    between atoms: C_6  and  C_26
REMARK    3  A    between atoms: C_26  and  C_27
REMARK    4  A    between atoms: C_27  and  O_28
REMARK    5  A    between atoms: O_28  and  C_30
REMARK                            x       y       z     vdW  Elec       q    Type
REMARK                         _______ _______ _______ _____ _____    ______ ____
ROOT
ATOM      1  O   UNL     1      35.030  -9.639 -24.897  0.00  0.00    -0.296 OA
ATOM      2  O   UNL     1      30.676  -4.751 -24.312  0.00  0.00    -0.287 OA
ATOM      3  C   UNL     1      33.540 -12.474 -23.551  0.00  0.00    +0.036 C 
ATOM      4  C   UNL     1      32.348 -11.823 -22.805  0.00  0.00    +0.004 C 
ATOM      5  C   UNL     1      32.621 -10.370 -22.381  0.00  0.00    +0.008 C 
ATOM      6  C   UNL     1      32.998 -13.924 -23.723  0.00  0.00    +0.143 C 
ATOM      7  C   UNL     1      32.917  -9.510 -23.652  0.00  0.00    +0.065 C 
ATOM      8  C   UNL     1      32.022 -12.840 -21.716  0.00  0.00    +0.003 C 
ATOM      9  C   UNL     1      32.176 -14.208 -22.427  0.00  0.00    +0.032 C 
ATOM     10  C   UNL     1      33.773 -11.668 -24.836  0.00  0.00    +0.067 C 
ATOM     11  C   UNL     1      33.147  -7.993 -23.322  0.00  0.00    +0.040 C 
ATOM     12  C   UNL     1      31.439  -9.791 -21.589  0.00  0.00    +0.005 C 
ATOM     13  C   UNL     1      34.022 -10.206 -24.483  0.00  0.00    +0.151 C 
ATOM     14  C   UNL     1      34.854 -12.477 -22.721  0.00  0.00    +0.003 C 
ATOM     15  C   UNL     1      31.663  -8.327 -21.229  0.00  0.00    +0.022 C 
ATOM     16  C   UNL     1      31.960  -7.522 -22.469  0.00  0.00    -0.038 C 
ATOM     17  C   UNL     1      32.756 -15.245 -21.469  0.00  0.00    +0.003 C 
ATOM     18  C   UNL     1      34.449  -7.744 -22.529  0.00  0.00    +0.009 C 
ATOM     19  C   UNL     1      33.248  -7.182 -24.608  0.00  0.00    -0.019 C 
ATOM     20  C   UNL     1      31.170  -6.485 -22.795  0.00  0.00    +0.034 C 
ATOM     21  C   UNL     1      32.462  -6.152 -24.937  0.00  0.00    +0.038 C 
ATOM     22  C   UNL     1      31.382  -5.715 -24.036  0.00  0.00    +0.195 C 
ENDROOT
BRANCH   6  23
ATOM     23  O   UNL     1      32.099 -13.966 -24.839  0.00  0.00    -0.380 OA
ATOM     24  H   UNL     1      31.996 -13.074 -25.205  0.00  0.00    +0.211 HD
ENDBRANCH   6  23
BRANCH   6  26
ATOM     25  O   UNL     1      35.025 -15.143 -23.422  0.00  0.00    -0.290 OA
ATOM     26  C   UNL     1      34.030 -14.941 -24.116  0.00  0.00    +0.218 C 
BRANCH  26  27
ATOM     27  C   UNL     1      33.773 -15.691 -25.405  0.00  0.00    +0.274 C 
BRANCH  27  28
ATOM     28  O   UNL     1      34.724 -16.720 -25.581  0.00  0.00    -0.440 OA
BRANCH  28  30
ATOM     29  O   UNL     1      33.421 -18.626 -25.641  0.00  0.00    -0.250 OA
ATOM     30  C   UNL     1      34.344 -17.973 -25.173  0.00  0.00    +0.318 C 
ATOM     31  C   UNL     1      35.224 -18.446 -24.056  0.00  0.00    +0.121 C 
ENDBRANCH  28  30
ENDBRANCH  27  28
ENDBRANCH  26  27
ENDBRANCH   6  26
TORSDOF 5
ENDMDL
MODEL 3
REMARK VINA RESULT:      -8.4      3.159      6.631
REMARK  Name = 101970
REMARK  5 active torsions:
REMARK  status: ('A' for Active; 'I' for Inactive)
REMARK    1  A    between atoms: C_6  and  O_23
REMARK    2  A    between atoms: C_6  and  C_26
REMARK    3  A    between atoms: C_26  and  C_27
REMARK    4  A    between atoms: C_27  and  O_28
REMARK    5  A    between atoms: O_28  and  C_30
REMARK                            x       y       z     vdW  Elec       q    Type
REMARK                         _______ _______ _______ _____ _____    ______ ____
ROOT
ATOM      1  O   UNL     1      32.723 -23.547 -17.557  0.00  0.00    -0.296 OA
ATOM      2  O   UNL     1      33.710 -18.362 -21.472  0.00  0.00    -0.287 OA
ATOM      3  C   UNL     1      35.401 -23.659 -15.348  0.00  0.00    +0.036 C 
ATOM      4  C   UNL     1      36.371 -22.675 -16.050  0.00  0.00    +0.004 C 
ATOM      5  C   UNL     1      36.152 -22.593 -17.570  0.00  0.00    +0.008 C 
ATOM      6  C   UNL     1      35.952 -23.596 -13.892  0.00  0.00    +0.143 C 
ATOM      7  C   UNL     1      34.692 -22.111 -17.854  0.00  0.00    +0.065 C 
ATOM      8  C   UNL     1      37.740 -23.117 -15.544  0.00  0.00    +0.003 C 
ATOM      9  C   UNL     1      37.498 -23.440 -14.049  0.00  0.00    +0.032 C 
ATOM     10  C   UNL     1      33.975 -23.134 -15.567  0.00  0.00    +0.067 C 
ATOM     11  C   UNL     1      34.396 -21.936 -19.386  0.00  0.00    +0.040 C 
ATOM     12  C   UNL     1      37.177 -21.658 -18.229  0.00  0.00    +0.005 C 
ATOM     13  C   UNL     1      33.706 -23.002 -17.062  0.00  0.00    +0.151 C 
ATOM     14  C   UNL     1      35.489 -25.108 -15.903  0.00  0.00    +0.003 C 
ATOM     15  C   UNL     1      36.924 -21.507 -19.725  0.00  0.00    +0.022 C 
ATOM     16  C   UNL     1      35.507 -21.054 -19.973  0.00  0.00    -0.038 C 
ATOM     17  C   UNL     1      38.348 -24.632 -13.616  0.00  0.00    +0.003 C 
ATOM     18  C   UNL     1      34.380 -23.279 -20.149  0.00  0.00    +0.009 C 
ATOM     19  C   UNL     1      33.028 -21.294 -19.589  0.00  0.00    -0.019 C 
ATOM     20  C   UNL     1      35.280 -19.909 -20.637  0.00  0.00    +0.034 C 
ATOM     21  C   UNL     1      32.798 -20.153 -20.246  0.00  0.00    +0.038 C 
ATOM     22  C   UNL     1      33.912 -19.393 -20.840  0.00  0.00    +0.195 C 
ENDROOT
BRANCH   6  23
ATOM     23  O   UNL     1      35.450 -22.421 -13.244  0.00  0.00    -0.380 OA
ATOM     24  H   UNL     1      36.180 -21.954 -12.809  0.00  0.00    +0.211 HD
ENDBRANCH   6  23
BRANCH   6  26
ATOM     25  O   UNL     1      36.136 -25.695 -12.777  0.00  0.00    -0.290 OA
ATOM     26  C   UNL     1      35.463 -24.687 -12.985  0.00  0.00    +0.218 C 
BRANCH  26  27
ATOM     27  C   UNL     1      34.106 -24.471 -12.349  0.00  0.00    +0.274 C 
BRANCH  27  28
ATOM     28  O   UNL     1      33.094 -25.098 -13.109  0.00  0.00    -0.440 OA
BRANCH  28  30
ATOM     29  O   UNL     1      31.727 -23.252 -12.866  0.00  0.00    -0.250 OA
ATOM     30  C   UNL     1      31.951 -24.369 -13.314  0.00  0.00    +0.318 C 
ATOM     31  C   UNL     1      30.994 -25.134 -14.177  0.00  0.00    +0.121 C 
ENDBRANCH  28  30
ENDBRANCH  27  28
ENDBRANCH  26  27
ENDBRANCH   6  26
TORSDOF 5
ENDMDL
MODEL 4
REMARK VINA RESULT:      -8.2     15.258     17.366
REMARK  Name = 101970
REMARK  5 active torsions:
REMARK  status: ('A' for Active; 'I' for Inactive)
REMARK    1  A    between atoms: C_6  and  O_23
REMARK    2  A    between atoms: C_6  and  C_26
REMARK    3  A    between atoms: C_26  and  C_27
REMARK    4  A    between atoms: C_27  and  O_28
REMARK    5  A    between atoms: O_28  and  C_30
REMARK                            x       y       z     vdW  Elec       q    Type
REMARK                         _______ _______ _______ _____ _____    ______ ____
ROOT
ATOM      1  O   UNL     1      33.932 -11.926 -25.310  0.00  0.00    -0.296 OA
ATOM      2  O   UNL     1      34.858 -16.612 -20.797  0.00  0.00    -0.287 OA
ATOM      3  C   UNL     1      33.222  -8.997 -23.582  0.00  0.00    +0.036 C 
ATOM      4  C   UNL     1      32.934  -9.578 -22.175  0.00  0.00    +0.004 C 
ATOM      5  C   UNL     1      32.426 -11.029 -22.212  0.00  0.00    +0.008 C 
ATOM      6  C   UNL     1      33.588  -7.531 -23.205  0.00  0.00    +0.143 C 
ATOM      7  C   UNL     1      33.504 -11.934 -22.893  0.00  0.00    +0.065 C 
ATOM      8  C   UNL     1      32.038  -8.520 -21.539  0.00  0.00    +0.003 C 
ATOM      9  C   UNL     1      32.664  -7.179 -21.996  0.00  0.00    +0.032 C 
ATOM     10  C   UNL     1      34.336  -9.846 -24.210  0.00  0.00    +0.067 C 
ATOM     11  C   UNL     1      33.098 -13.450 -22.919  0.00  0.00    +0.040 C 
ATOM     12  C   UNL     1      32.092 -11.538 -20.802  0.00  0.00    +0.005 C 
ATOM     13  C   UNL     1      33.902 -11.307 -24.249  0.00  0.00    +0.151 C 
ATOM     14  C   UNL     1      31.984  -9.026 -24.522  0.00  0.00    +0.003 C 
ATOM     15  C   UNL     1      31.661 -13.000 -20.816  0.00  0.00    +0.022 C 
ATOM     16  C   UNL     1      32.710 -13.849 -21.487  0.00  0.00    -0.038 C 
ATOM     17  C   UNL     1      31.574  -6.142 -22.254  0.00  0.00    +0.003 C 
ATOM     18  C   UNL     1      31.897 -13.732 -23.849  0.00  0.00    +0.009 C 
ATOM     19  C   UNL     1      34.259 -14.299 -23.423  0.00  0.00    -0.019 C 
ATOM     20  C   UNL     1      33.281 -14.861 -20.813  0.00  0.00    +0.034 C 
ATOM     21  C   UNL     1      34.832 -15.304 -22.754  0.00  0.00    +0.038 C 
ATOM     22  C   UNL     1      34.362 -15.672 -21.407  0.00  0.00    +0.195 C 
ENDROOT
BRANCH   6  23
ATOM     23  O   UNL     1      34.948  -7.482 -22.755  0.00  0.00    -0.380 OA
ATOM     24  H   UNL     1      35.477  -6.960 -23.378  0.00  0.00    +0.211 HD
ENDBRANCH   6  23
BRANCH   6  26
ATOM     25  O   UNL     1      34.646  -6.315 -24.961  0.00  0.00    -0.290 OA
ATOM     26  C   UNL     1      33.605  -6.569 -24.356  0.00  0.00    +0.218 C 
BRANCH  26  27
ATOM     27  C   UNL     1      32.280  -5.936 -24.721  0.00  0.00    +0.274 C 
BRANCH  27  28
ATOM     28  O   UNL     1      32.479  -4.760 -25.476  0.00  0.00    -0.440 OA
BRANCH  28  30
ATOM     29  O   UNL     1      30.474  -3.845 -24.782  0.00  0.00    -0.250 OA
ATOM     30  C   UNL     1      31.606  -3.730 -25.235  0.00  0.00    +0.318 C 
ATOM     31  C   UNL     1      32.231  -2.420 -25.607  0.00  0.00    +0.121 C 
ENDBRANCH  28  30
ENDBRANCH  27  28
ENDBRANCH  26  27
ENDBRANCH   6  26
TORSDOF 5
ENDMDL
MODEL 5
REMARK VINA RESULT:      -7.9     15.210     17.366
REMARK  Name = 101970
REMARK  5 active torsions:
REMARK  status: ('A' for Active; 'I' for Inactive)
REMARK    1  A    between atoms: C_6  and  O_23
REMARK    2  A    between atoms: C_6  and  C_26
REMARK    3  A    between atoms: C_26  and  C_27
REMARK    4  A    between atoms: C_27  and  O_28
REMARK    5  A    between atoms: O_28  and  C_30
REMARK                            x       y       z     vdW  Elec       q    Type
REMARK                         _______ _______ _______ _____ _____    ______ ____
ROOT
ATOM      1  O   UNL     1      33.831 -11.803 -25.263  0.00  0.00    -0.296 OA
ATOM      2  O   UNL     1      34.934 -16.661 -20.977  0.00  0.00    -0.287 OA
ATOM      3  C   UNL     1      33.098  -8.967 -23.395  0.00  0.00    +0.036 C 
ATOM      4  C   UNL     1      32.849  -9.614 -22.009  0.00  0.00    +0.004 C 
ATOM      5  C   UNL     1      32.368 -11.072 -22.101  0.00  0.00    +0.008 C 
ATOM      6  C   UNL     1      33.443  -7.511 -22.961  0.00  0.00    +0.143 C 
ATOM      7  C   UNL     1      33.450 -11.925 -22.840  0.00  0.00    +0.065 C 
ATOM      8  C   UNL     1      31.945  -8.603 -21.312  0.00  0.00    +0.003 C 
ATOM      9  C   UNL     1      32.536  -7.230 -21.721  0.00  0.00    +0.032 C 
ATOM     10  C   UNL     1      34.216  -9.765 -24.080  0.00  0.00    +0.067 C 
ATOM     11  C   UNL     1      33.073 -13.446 -22.925  0.00  0.00    +0.040 C 
ATOM     12  C   UNL     1      32.071 -11.648 -20.709  0.00  0.00    +0.005 C 
ATOM     13  C   UNL     1      33.810 -11.231 -24.175  0.00  0.00    +0.151 C 
ATOM     14  C   UNL     1      31.844  -8.980 -24.313  0.00  0.00    +0.003 C 
ATOM     15  C   UNL     1      31.668 -13.116 -20.779  0.00  0.00    +0.022 C 
ATOM     16  C   UNL     1      32.720 -13.915 -21.506  0.00  0.00    -0.038 C 
ATOM     17  C   UNL     1      31.422  -6.205 -21.913  0.00  0.00    +0.003 C 
ATOM     18  C   UNL     1      31.860 -13.711 -23.845  0.00  0.00    +0.009 C 
ATOM     19  C   UNL     1      34.240 -14.249 -23.488  0.00  0.00    -0.019 C 
ATOM     20  C   UNL     1      33.324 -14.943 -20.887  0.00  0.00    +0.034 C 
ATOM     21  C   UNL     1      34.845 -15.270 -22.874  0.00  0.00    +0.038 C 
ATOM     22  C   UNL     1      34.408 -15.705 -21.537  0.00  0.00    +0.195 C 
ENDROOT
BRANCH   6  23
ATOM     23  O   UNL     1      34.810  -7.454 -22.534  0.00  0.00    -0.380 OA
ATOM     24  H   UNL     1      34.862  -7.013 -21.672  0.00  0.00    +0.211 HD
ENDBRANCH   6  23
BRANCH   6  26
ATOM     25  O   UNL     1      32.444  -5.773 -24.250  0.00  0.00    -0.290 OA
ATOM     26  C   UNL     1      33.420  -6.500 -24.069  0.00  0.00    +0.218 C 
BRANCH  26  27
ATOM     27  C   UNL     1      34.657  -6.431 -24.939  0.00  0.00    +0.274 C 
BRANCH  27  28
ATOM     28  O   UNL     1      34.304  -6.226 -26.291  0.00  0.00    -0.440 OA
BRANCH  28  30
ATOM     29  O   UNL     1      35.908  -4.847 -27.219  0.00  0.00    -0.250 OA
ATOM     30  C   UNL     1      34.757  -5.067 -26.866  0.00  0.00    +0.318 C 
ATOM     31  C   UNL     1      33.634  -4.083 -27.007  0.00  0.00    +0.121 C 
ENDBRANCH  28  30
ENDBRANCH  27  28
ENDBRANCH  26  27
ENDBRANCH   6  26
TORSDOF 5
ENDMDL
MODEL 6
REMARK VINA RESULT:      -7.6     10.633     13.312
REMARK  Name = 101970
REMARK  5 active torsions:
REMARK  status: ('A' for Active; 'I' for Inactive)
REMARK    1  A    between atoms: C_6  and  O_23
REMARK    2  A    between atoms: C_6  and  C_26
REMARK    3  A    between atoms: C_26  and  C_27
REMARK    4  A    between atoms: C_27  and  O_28
REMARK    5  A    between atoms: O_28  and  C_30
REMARK                            x       y       z     vdW  Elec       q    Type
REMARK                         _______ _______ _______ _____ _____    ______ ____
ROOT
ATOM      1  O   UNL     1      33.593 -13.969 -21.079  0.00  0.00    -0.296 OA
ATOM      2  O   UNL     1      34.737  -9.392 -25.654  0.00  0.00    -0.287 OA
ATOM      3  C   UNL     1      34.634 -17.002 -22.414  0.00  0.00    +0.036 C 
ATOM      4  C   UNL     1      34.781 -16.604 -23.905  0.00  0.00    +0.004 C 
ATOM      5  C   UNL     1      33.867 -15.436 -24.311  0.00  0.00    +0.008 C 
ATOM      6  C   UNL     1      35.571 -18.246 -22.368  0.00  0.00    +0.143 C 
ATOM      7  C   UNL     1      34.218 -14.183 -23.444  0.00  0.00    +0.065 C 
ATOM      8  C   UNL     1      34.617 -17.932 -24.637  0.00  0.00    +0.003 C 
ATOM      9  C   UNL     1      35.392 -18.942 -23.755  0.00  0.00    +0.032 C 
ATOM     10  C   UNL     1      35.055 -15.791 -21.572  0.00  0.00    +0.067 C 
ATOM     11  C   UNL     1      33.376 -12.917 -23.833  0.00  0.00    +0.040 C 
ATOM     12  C   UNL     1      33.999 -15.121 -25.809  0.00  0.00    +0.005 C 
ATOM     13  C   UNL     1      34.202 -14.586 -21.950  0.00  0.00    +0.151 C 
ATOM     14  C   UNL     1      33.182 -17.398 -22.026  0.00  0.00    +0.003 C 
ATOM     15  C   UNL     1      33.157 -13.916 -26.209  0.00  0.00    +0.022 C 
ATOM     16  C   UNL     1      33.504 -12.726 -25.352  0.00  0.00    -0.038 C 
ATOM     17  C   UNL     1      34.688 -20.296 -23.748  0.00  0.00    +0.003 C 
ATOM     18  C   UNL     1      31.878 -13.065 -23.484  0.00  0.00    +0.009 C 
ATOM     19  C   UNL     1      33.887 -11.692 -23.086  0.00  0.00    -0.019 C 
ATOM     20  C   UNL     1      33.945 -11.595 -25.927  0.00  0.00    +0.034 C 
ATOM     21  C   UNL     1      34.330 -10.566 -23.655  0.00  0.00    +0.038 C 
ATOM     22  C   UNL     1      34.364 -10.431 -25.121  0.00  0.00    +0.195 C 
ENDROOT
BRANCH   6  23
ATOM     23  O   UNL     1      36.933 -17.811 -22.262  0.00  0.00    -0.380 OA
ATOM     24  H   UNL     1      37.498 -18.566 -22.038  0.00  0.00    +0.211 HD
ENDBRANCH   6  23
BRANCH   6  26
ATOM     25  O   UNL     1      34.313 -19.360 -20.678  0.00  0.00    -0.290 OA
ATOM     26  C   UNL     1      35.421 -19.104 -21.147  0.00  0.00    +0.218 C 
BRANCH  26  27
ATOM     27  C   UNL     1      36.703 -19.628 -20.535  0.00  0.00    +0.274 C 
BRANCH  27  28
ATOM     28  O   UNL     1      36.584 -21.001 -20.228  0.00  0.00    -0.440 OA
BRANCH  28  30
ATOM     29  O   UNL     1      36.944 -20.940 -17.947  0.00  0.00    -0.250 OA
ATOM     30  C   UNL     1      36.302 -21.308 -18.922  0.00  0.00    +0.318 C 
ATOM     31  C   UNL     1      35.078 -22.171 -18.844  0.00  0.00    +0.121 C 
ENDBRANCH  28  30
ENDBRANCH  27  28
ENDBRANCH  26  27
ENDBRANCH   6  26
TORSDOF 5
ENDMDL
MODEL 7
REMARK VINA RESULT:      -7.4      1.520      7.883
REMARK  Name = 101970
REMARK  5 active torsions:
REMARK  status: ('A' for Active; 'I' for Inactive)
REMARK    1  A    between atoms: C_6  and  O_23
REMARK    2  A    between atoms: C_6  and  C_26
REMARK    3  A    between atoms: C_26  and  C_27
REMARK    4  A    between atoms: C_27  and  O_28
REMARK    5  A    between atoms: O_28  and  C_30
REMARK                            x       y       z     vdW  Elec       q    Type
REMARK                         _______ _______ _______ _____ _____    ______ ____
ROOT
ATOM      1  O   UNL     1      32.331 -25.320 -12.999  0.00  0.00    -0.296 OA
ATOM      2  O   UNL     1      27.570 -21.691 -15.710  0.00  0.00    -0.287 OA
ATOM      3  C   UNL     1      35.349 -23.972 -14.065  0.00  0.00    +0.036 C 
ATOM      4  C   UNL     1      34.847 -23.063 -15.216  0.00  0.00    +0.004 C 
ATOM      5  C   UNL     1      33.535 -23.559 -15.848  0.00  0.00    +0.008 C 
ATOM      6  C   UNL     1      36.707 -23.280 -13.742  0.00  0.00    +0.143 C 
ATOM      7  C   UNL     1      32.421 -23.604 -14.752  0.00  0.00    +0.065 C 
ATOM      8  C   UNL     1      36.072 -22.932 -16.115  0.00  0.00    +0.003 C 
ATOM      9  C   UNL     1      37.250 -22.785 -15.119  0.00  0.00    +0.032 C 
ATOM     10  C   UNL     1      34.283 -23.947 -12.961  0.00  0.00    +0.067 C 
ATOM     11  C   UNL     1      31.024 -24.039 -15.320  0.00  0.00    +0.040 C 
ATOM     12  C   UNL     1      33.112 -22.666 -17.024  0.00  0.00    +0.005 C 
ATOM     13  C   UNL     1      32.946 -24.402 -13.535  0.00  0.00    +0.151 C 
ATOM     14  C   UNL     1      35.578 -25.446 -14.503  0.00  0.00    +0.003 C 
ATOM     15  C   UNL     1      31.774 -23.100 -17.610  0.00  0.00    +0.022 C 
ATOM     16  C   UNL     1      30.721 -23.147 -16.533  0.00  0.00    -0.038 C 
ATOM     17  C   UNL     1      38.492 -23.492 -15.654  0.00  0.00    +0.003 C 
ATOM     18  C   UNL     1      30.998 -25.514 -15.778  0.00  0.00    +0.009 C 
ATOM     19  C   UNL     1      29.949 -23.887 -14.251  0.00  0.00    -0.019 C 
ATOM     20  C   UNL     1      29.614 -22.395 -16.648  0.00  0.00    +0.034 C 
ATOM     21  C   UNL     1      28.847 -23.137 -14.361  0.00  0.00    +0.038 C 
ATOM     22  C   UNL     1      28.592 -22.357 -15.584  0.00  0.00    +0.195 C 
ENDROOT
BRANCH   6  23
ATOM     23  O   UNL     1      36.470 -22.131 -12.918  0.00  0.00    -0.380 OA
ATOM     24  H   UNL     1      37.317 -21.723 -12.680  0.00  0.00    +0.211 HD
ENDBRANCH   6  23
BRANCH   6  26
ATOM     25  O   UNL     1      38.542 -23.555 -12.246  0.00  0.00    -0.290 OA
ATOM     26  C   UNL     1      37.640 -24.089 -12.889  0.00  0.00    +0.218 C 
BRANCH  26  27
ATOM     27  C   UNL     1      37.405 -25.584 -12.872  0.00  0.00    +0.274 C 
BRANCH  27  28
ATOM     28  O   UNL     1      38.632 -26.282 -12.922  0.00  0.00    -0.440 OA
BRANCH  28  30
ATOM     29  O   UNL     1      38.568 -27.000 -15.116  0.00  0.00    -0.250 OA
ATOM     30  C   UNL     1      39.157 -26.494 -14.170  0.00  0.00    +0.318 C 
ATOM     31  C   UNL     1      40.577 -26.015 -14.225  0.00  0.00    +0.121 C 
ENDBRANCH  28  30
ENDBRANCH  27  28
ENDBRANCH  26  27
ENDBRANCH   6  26
TORSDOF 5
ENDMDL
MODEL 8
REMARK VINA RESULT:      -7.2      1.667      7.666
REMARK  Name = 101970
REMARK  5 active torsions:
REMARK  status: ('A' for Active; 'I' for Inactive)
REMARK    1  A    between atoms: C_6  and  O_23
REMARK    2  A    between atoms: C_6  and  C_26
REMARK    3  A    between atoms: C_26  and  C_27
REMARK    4  A    between atoms: C_27  and  O_28
REMARK    5  A    between atoms: O_28  and  C_30
REMARK                            x       y       z     vdW  Elec       q    Type
REMARK                         _______ _______ _______ _____ _____    ______ ____
ROOT
ATOM      1  O   UNL     1      32.433 -25.580 -13.360  0.00  0.00    -0.296 OA
ATOM      2  O   UNL     1      27.540 -21.682 -15.374  0.00  0.00    -0.287 OA
ATOM      3  C   UNL     1      35.392 -24.100 -14.416  0.00  0.00    +0.036 C 
ATOM      4  C   UNL     1      34.831 -23.065 -15.424  0.00  0.00    +0.004 C 
ATOM      5  C   UNL     1      33.487 -23.490 -16.041  0.00  0.00    +0.008 C 
ATOM      6  C   UNL     1      36.766 -23.444 -14.085  0.00  0.00    +0.143 C 
ATOM      7  C   UNL     1      32.433 -23.669 -14.901  0.00  0.00    +0.065 C 
ATOM      8  C   UNL     1      36.008 -22.823 -16.364  0.00  0.00    +0.003 C 
ATOM      9  C   UNL     1      37.236 -22.787 -15.421  0.00  0.00    +0.032 C 
ATOM     10  C   UNL     1      34.385 -24.211 -13.263  0.00  0.00    +0.067 C 
ATOM     11  C   UNL     1      31.007 -24.042 -15.443  0.00  0.00    +0.040 C 
ATOM     12  C   UNL     1      33.005 -22.467 -17.080  0.00  0.00    +0.005 C 
ATOM     13  C   UNL     1      33.019 -24.602 -13.816  0.00  0.00    +0.151 C 
ATOM     14  C   UNL     1      35.596 -25.511 -15.035  0.00  0.00    +0.003 C 
ATOM     15  C   UNL     1      31.638 -22.836 -17.643  0.00  0.00    +0.022 C 
ATOM     16  C   UNL     1      30.642 -23.015 -16.525  0.00  0.00    -0.038 C 
ATOM     17  C   UNL     1      38.448 -23.421 -16.099  0.00  0.00    +0.003 C 
ATOM     18  C   UNL     1      30.956 -25.453 -16.070  0.00  0.00    +0.009 C 
ATOM     19  C   UNL     1      29.989 -24.022 -14.309  0.00  0.00    -0.019 C 
ATOM     20  C   UNL     1      29.532 -22.260 -16.494  0.00  0.00    +0.034 C 
ATOM     21  C   UNL     1      28.885 -23.270 -14.273  0.00  0.00    +0.038 C 
ATOM     22  C   UNL     1      28.566 -22.353 -15.381  0.00  0.00    +0.195 C 
ENDROOT
BRANCH   6  23
ATOM     23  O   UNL     1      36.574 -22.401 -13.120  0.00  0.00    -0.380 OA
ATOM     24  H   UNL     1      35.825 -22.625 -12.546  0.00  0.00    +0.211 HD
ENDBRANCH   6  23
BRANCH   6  26
ATOM     25  O   UNL     1      38.132 -25.388 -13.900  0.00  0.00    -0.290 OA
ATOM     26  C   UNL     1      37.741 -24.342 -13.383  0.00  0.00    +0.218 C 
BRANCH  26  27
ATOM     27  C   UNL     1      38.207 -23.888 -12.016  0.00  0.00    +0.274 C 
BRANCH  27  28
ATOM     28  O   UNL     1      37.498 -24.562 -10.998  0.00  0.00    -0.440 OA
BRANCH  28  30
ATOM     29  O   UNL     1      36.727 -22.663  -9.934  0.00  0.00    -0.250 OA
ATOM     30  C   UNL     1      36.576 -23.818 -10.308  0.00  0.00    +0.318 C 
ATOM     31  C   UNL     1      35.333 -24.623 -10.068  0.00  0.00    +0.121 C 
ENDBRANCH  28  30
ENDBRANCH  27  28
ENDBRANCH  26  27
ENDBRANCH   6  26
TORSDOF 5
ENDMDL
MODEL 9
REMARK VINA RESULT:      -7.2      3.342      7.549
REMARK  Name = 101970
REMARK  5 active torsions:
REMARK  status: ('A' for Active; 'I' for Inactive)
REMARK    1  A    between atoms: C_6  and  O_23
REMARK    2  A    between atoms: C_6  and  C_26
REMARK    3  A    between atoms: C_26  and  C_27
REMARK    4  A    between atoms: C_27  and  O_28
REMARK    5  A    between atoms: O_28  and  C_30
REMARK                            x       y       z     vdW  Elec       q    Type
REMARK                         _______ _______ _______ _____ _____    ______ ____
ROOT
ATOM      1  O   UNL     1      32.712 -23.424 -17.760  0.00  0.00    -0.296 OA
ATOM      2  O   UNL     1      33.606 -18.099 -21.506  0.00  0.00    -0.287 OA
ATOM      3  C   UNL     1      35.428 -23.597 -15.601  0.00  0.00    +0.036 C 
ATOM      4  C   UNL     1      36.381 -22.584 -16.285  0.00  0.00    +0.004 C 
ATOM      5  C   UNL     1      36.136 -22.450 -17.798  0.00  0.00    +0.008 C 
ATOM      6  C   UNL     1      36.005 -23.583 -14.154  0.00  0.00    +0.143 C 
ATOM      7  C   UNL     1      34.669 -21.967 -18.040  0.00  0.00    +0.065 C 
ATOM      8  C   UNL     1      37.761 -23.036 -15.819  0.00  0.00    +0.003 C 
ATOM      9  C   UNL     1      37.547 -23.413 -14.332  0.00  0.00    +0.032 C 
ATOM     10  C   UNL     1      33.997 -23.074 -15.778  0.00  0.00    +0.067 C 
ATOM     11  C   UNL     1      34.345 -21.740 -19.559  0.00  0.00    +0.040 C 
ATOM     12  C   UNL     1      37.145 -21.487 -18.441  0.00  0.00    +0.005 C 
ATOM     13  C   UNL     1      33.701 -22.891 -17.263  0.00  0.00    +0.151 C 
ATOM     14  C   UNL     1      35.514 -25.026 -16.209  0.00  0.00    +0.003 C 
ATOM     15  C   UNL     1      36.865 -21.285 -19.926  0.00  0.00    +0.022 C 
ATOM     16  C   UNL     1      35.442 -20.832 -20.134  0.00  0.00    -0.038 C 
ATOM     17  C   UNL     1      38.410 -24.614 -13.956  0.00  0.00    +0.003 C 
ATOM     18  C   UNL     1      34.323 -23.055 -20.369  0.00  0.00    +0.009 C 
ATOM     19  C   UNL     1      32.971 -21.099 -19.716  0.00  0.00    -0.019 C 
ATOM     20  C   UNL     1      35.197 -19.665 -20.752  0.00  0.00    +0.034 C 
ATOM     21  C   UNL     1      32.724 -19.936 -20.328  0.00  0.00    +0.038 C 
ATOM     22  C   UNL     1      33.823 -19.150 -20.914  0.00  0.00    +0.195 C 
ENDROOT
BRANCH   6  23
ATOM     23  O   UNL     1      35.508 -22.434 -13.456  0.00  0.00    -0.380 OA
ATOM     24  H   UNL     1      34.586 -22.586 -13.197  0.00  0.00    +0.211 HD
ENDBRANCH   6  23
BRANCH   6  26
ATOM     25  O   UNL     1      34.339 -24.927 -13.106  0.00  0.00    -0.290 OA
ATOM     26  C   UNL     1      35.537 -24.707 -13.277  0.00  0.00    +0.218 C 
BRANCH  26  27
ATOM     27  C   UNL     1      36.617 -25.542 -12.625  0.00  0.00    +0.274 C 
BRANCH  27  28
ATOM     28  O   UNL     1      36.504 -25.492 -11.218  0.00  0.00    -0.440 OA
BRANCH  28  30
ATOM     29  O   UNL     1      37.287 -23.351 -10.844  0.00  0.00    -0.250 OA
ATOM     30  C   UNL     1      36.468 -24.241 -10.657  0.00  0.00    +0.318 C 
ATOM     31  C   UNL     1      35.269 -24.105  -9.768  0.00  0.00    +0.121 C 
ENDBRANCH  28  30
ENDBRANCH  27  28
ENDBRANCH  26  27
ENDBRANCH   6  26
TORSDOF 5
ENDMDL
