MODEL 1
REMARK VINA RESULT:      -6.1      0.000      0.000
REMARK  Name = 3082729
REMARK  8 active torsions:
REMARK  status: ('A' for Active; 'I' for Inactive)
REMARK    1  A    between atoms: C_1  and  N_2
REMARK    2  A    between atoms: C_1  and  C_7
REMARK    3  A    between atoms: C_1  and  C_10
REMARK    4  A    between atoms: C_7  and  O_8
REMARK    5  A    between atoms: C_10  and  S_11
REMARK    6  A    between atoms: S_11  and  P_12
REMARK    7  A    between atoms: P_12  and  O_14
REMARK    8  A    between atoms: P_12  and  O_16
REMARK                            x       y       z     vdW  Elec       q    Type
REMARK                         _______ _______ _______ _____ _____    ______ ____
ROOT
ATOM      1  C   UNK     1      36.733 -23.484 -11.931  0.00  0.00    +0.047 C 
ENDROOT
BRANCH   1   2
ATOM      2  N   UNK     1      38.093 -24.009 -11.795  0.00  0.00    +0.389 N 
ATOM      3  H   UNK     1      38.053 -24.968 -11.450  0.00  0.00    -0.088 HD
ATOM      4  H   UNK     1      38.615 -23.432 -11.136  0.00  0.00    -0.088 HD
ATOM      5  H   UNK     1      38.556 -23.992 -12.703  0.00  0.00    -0.088 HD
ENDBRANCH   1   2
BRANCH   1   7
ATOM      6  O   UNK     1      35.960 -24.249  -9.772  0.00  0.00    -0.253 OA
ATOM      7  C   UNK     1      35.841 -24.272 -10.991  0.00  0.00    +0.294 C 
BRANCH   7   8
ATOM      8  O   UNK     1      34.915 -25.036 -11.625  0.00  0.00    -0.482 OA
ATOM      9  H   UNK     1      34.701 -25.885 -11.292  0.00  0.00    +0.295 HD
ENDBRANCH   7   8
ENDBRANCH   1   7
BRANCH   1  10
ATOM     10  C   UNK     1      36.276 -23.588 -13.388  0.00  0.00    +0.058 C 
BRANCH  10  11
ATOM     11  S   UNK     1      37.588 -24.241 -14.468  0.00  0.00    -0.033 S 
BRANCH  11  12
ATOM     12  P   UNK     1      37.228 -26.301 -14.564  0.00  0.00    +0.387 P 
ATOM     13  O   UNK     1      36.217 -26.635 -15.628  0.00  0.00    -0.246 OA
BRANCH  12  14
ATOM     14  O   UNK     1      36.794 -26.840 -13.096  0.00  0.00    -0.316 OA
ATOM     15  H   UNK     1      36.548 -27.776 -13.155  0.00  0.00    +0.221 HD
ENDBRANCH  12  14
BRANCH  12  16
ATOM     16  O   UNK     1      38.642 -27.064 -14.784  0.00  0.00    -0.316 OA
ATOM     17  H   UNK     1      38.803 -27.179 -15.733  0.00  0.00    +0.221 HD
ENDBRANCH  12  16
ENDBRANCH  11  12
ENDBRANCH  10  11
ENDBRANCH   1  10
TORSDOF 8
ENDMDL
MODEL 2
REMARK VINA RESULT:      -6.1      3.103      4.992
REMARK  Name = 3082729
REMARK  8 active torsions:
REMARK  status: ('A' for Active; 'I' for Inactive)
REMARK    1  A    between atoms: C_1  and  N_2
REMARK    2  A    between atoms: C_1  and  C_7
REMARK    3  A    between atoms: C_1  and  C_10
REMARK    4  A    between atoms: C_7  and  O_8
REMARK    5  A    between atoms: C_10  and  S_11
REMARK    6  A    between atoms: S_11  and  P_12
REMARK    7  A    between atoms: P_12  and  O_14
REMARK    8  A    between atoms: P_12  and  O_16
REMARK                            x       y       z     vdW  Elec       q    Type
REMARK                         _______ _______ _______ _____ _____    ______ ____
ROOT
ATOM      1  C   UNK     1      38.978 -25.070 -14.425  0.00  0.00    +0.047 C 
ENDROOT
BRANCH   1   2
ATOM      2  N   UNK     1      37.887 -25.588 -15.252  0.00  0.00    +0.389 N 
ATOM      3  H   UNK     1      38.252 -25.863 -16.164  0.00  0.00    -0.088 HD
ATOM      4  H   UNK     1      37.180 -24.863 -15.373  0.00  0.00    -0.088 HD
ATOM      5  H   UNK     1      37.469 -26.397 -14.794  0.00  0.00    -0.088 HD
ENDBRANCH   1   2
BRANCH   1   7
ATOM      6  O   UNK     1      40.938 -26.382 -13.888  0.00  0.00    -0.253 OA
ATOM      7  C   UNK     1      40.220 -25.880 -14.746  0.00  0.00    +0.294 C 
BRANCH   7   8
ATOM      8  O   UNK     1      40.487 -25.972 -16.073  0.00  0.00    -0.482 OA
ATOM      9  H   UNK     1      39.882 -25.622 -16.698  0.00  0.00    +0.295 HD
ENDBRANCH   7   8
ENDBRANCH   1   7
BRANCH   1  10
ATOM     10  C   UNK     1      38.599 -25.153 -12.945  0.00  0.00    +0.058 C 
BRANCH  10  11
ATOM     11  S   UNK     1      36.862 -25.650 -12.715  0.00  0.00    -0.033 S 
BRANCH  11  12
ATOM     12  P   UNK     1      36.066 -24.225 -11.403  0.00  0.00    +0.387 P 
ATOM     13  O   UNK     1      37.115 -23.245 -10.953  0.00  0.00    -0.246 OA
BRANCH  12  14
ATOM     14  O   UNK     1      35.340 -24.981 -10.165  0.00  0.00    -0.316 OA
ATOM     15  H   UNK     1      35.803 -24.768  -9.340  0.00  0.00    +0.221 HD
ENDBRANCH  12  14
BRANCH  12  16
ATOM     16  O   UNK     1      34.805 -23.505 -12.126  0.00  0.00    -0.316 OA
ATOM     17  H   UNK     1      34.163 -24.177 -12.403  0.00  0.00    +0.221 HD
ENDBRANCH  12  16
ENDBRANCH  11  12
ENDBRANCH  10  11
ENDBRANCH   1  10
TORSDOF 8
ENDMDL
MODEL 3
REMARK VINA RESULT:      -5.9      0.302      1.620
REMARK  Name = 3082729
REMARK  8 active torsions:
REMARK  status: ('A' for Active; 'I' for Inactive)
REMARK    1  A    between atoms: C_1  and  N_2
REMARK    2  A    between atoms: C_1  and  C_7
REMARK    3  A    between atoms: C_1  and  C_10
REMARK    4  A    between atoms: C_7  and  O_8
REMARK    5  A    between atoms: C_10  and  S_11
REMARK    6  A    between atoms: S_11  and  P_12
REMARK    7  A    between atoms: P_12  and  O_14
REMARK    8  A    between atoms: P_12  and  O_16
REMARK                            x       y       z     vdW  Elec       q    Type
REMARK                         _______ _______ _______ _____ _____    ______ ____
ROOT
ATOM      1  C   UNK     1      36.650 -23.310 -11.955  0.00  0.00    +0.047 C 
ENDROOT
BRANCH   1   2
ATOM      2  N   UNK     1      38.070 -23.564 -11.700  0.00  0.00    +0.389 N 
ATOM      3  H   UNK     1      38.565 -22.676 -11.624  0.00  0.00    -0.088 HD
ATOM      4  H   UNK     1      38.461 -24.107 -12.468  0.00  0.00    -0.088 HD
ATOM      5  H   UNK     1      38.169 -24.085 -10.829  0.00  0.00    -0.088 HD
ENDBRANCH   1   2
BRANCH   1   7
ATOM      6  O   UNK     1      34.943 -24.937 -11.423  0.00  0.00    -0.253 OA
ATOM      7  C   UNK     1      35.850 -24.211 -11.034  0.00  0.00    +0.294 C 
BRANCH   7   8
ATOM      8  O   UNK     1      36.208 -24.116  -9.728  0.00  0.00    -0.482 OA
ATOM      9  H   UNK     1      36.134 -23.296  -9.280  0.00  0.00    +0.295 HD
ENDBRANCH   7   8
ENDBRANCH   1   7
BRANCH   1  10
ATOM     10  C   UNK     1      36.331 -23.560 -13.431  0.00  0.00    +0.058 C 
BRANCH  10  11
ATOM     11  S   UNK     1      37.727 -24.337 -14.306  0.00  0.00    -0.033 S 
BRANCH  11  12
ATOM     12  P   UNK     1      37.289 -26.385 -14.301  0.00  0.00    +0.387 P 
ATOM     13  O   UNK     1      38.447 -27.197 -14.816  0.00  0.00    -0.246 OA
BRANCH  12  14
ATOM     14  O   UNK     1      35.922 -26.644 -15.134  0.00  0.00    -0.316 OA
ATOM     15  H   UNK     1      36.087 -27.297 -15.832  0.00  0.00    +0.221 HD
ENDBRANCH  12  14
BRANCH  12  16
ATOM     16  O   UNK     1      36.841 -26.814 -12.803  0.00  0.00    -0.316 OA
ATOM     17  H   UNK     1      36.358 -27.654 -12.837  0.00  0.00    +0.221 HD
ENDBRANCH  12  16
ENDBRANCH  11  12
ENDBRANCH  10  11
ENDBRANCH   1  10
TORSDOF 8
ENDMDL
MODEL 4
REMARK VINA RESULT:      -5.9      2.124      2.579
REMARK  Name = 3082729
REMARK  8 active torsions:
REMARK  status: ('A' for Active; 'I' for Inactive)
REMARK    1  A    between atoms: C_1  and  N_2
REMARK    2  A    between atoms: C_1  and  C_7
REMARK    3  A    between atoms: C_1  and  C_10
REMARK    4  A    between atoms: C_7  and  O_8
REMARK    5  A    between atoms: C_10  and  S_11
REMARK    6  A    between atoms: S_11  and  P_12
REMARK    7  A    between atoms: P_12  and  O_14
REMARK    8  A    between atoms: P_12  and  O_16
REMARK                            x       y       z     vdW  Elec       q    Type
REMARK                         _______ _______ _______ _____ _____    ______ ____
ROOT
ATOM      1  C   UNK     1      36.934 -24.586 -12.394  0.00  0.00    +0.047 C 
ENDROOT
BRANCH   1   2
ATOM      2  N   UNK     1      37.950 -23.922 -11.573  0.00  0.00    +0.389 N 
ATOM      3  H   UNK     1      38.852 -23.969 -12.045  0.00  0.00    -0.088 HD
ATOM      4  H   UNK     1      38.013 -24.389 -10.669  0.00  0.00    -0.088 HD
ATOM      5  H   UNK     1      37.688 -22.946 -11.434  0.00  0.00    -0.088 HD
ENDBRANCH   1   2
BRANCH   1   7
ATOM      6  O   UNK     1      35.365 -25.207 -10.662  0.00  0.00    -0.253 OA
ATOM      7  C   UNK     1      35.619 -24.515 -11.642  0.00  0.00    +0.294 C 
BRANCH   7   8
ATOM      8  O   UNK     1      34.731 -23.637 -12.172  0.00  0.00    -0.482 OA
ATOM      9  H   UNK     1      33.811 -23.764 -12.040  0.00  0.00    +0.295 HD
ENDBRANCH   7   8
ENDBRANCH   1   7
BRANCH   1  10
ATOM     10  C   UNK     1      37.358 -26.027 -12.687  0.00  0.00    +0.058 C 
BRANCH  10  11
ATOM     11  S   UNK     1      37.687 -26.293 -14.458  0.00  0.00    -0.033 S 
BRANCH  11  12
ATOM     12  P   UNK     1      39.407 -25.169 -14.859  0.00  0.00    +0.387 P 
ATOM     13  O   UNK     1      40.172 -24.866 -13.599  0.00  0.00    -0.246 OA
BRANCH  12  14
ATOM     14  O   UNK     1      38.995 -23.832 -15.680  0.00  0.00    -0.316 OA
ATOM     15  H   UNK     1      39.067 -23.060 -15.098  0.00  0.00    +0.221 HD
ENDBRANCH  12  14
BRANCH  12  16
ATOM     16  O   UNK     1      40.298 -25.962 -15.958  0.00  0.00    -0.316 OA
ATOM     17  H   UNK     1      39.827 -25.980 -16.805  0.00  0.00    +0.221 HD
ENDBRANCH  12  16
ENDBRANCH  11  12
ENDBRANCH  10  11
ENDBRANCH   1  10
TORSDOF 8
ENDMDL
MODEL 5
REMARK VINA RESULT:      -5.6      3.156      5.057
REMARK  Name = 3082729
REMARK  8 active torsions:
REMARK  status: ('A' for Active; 'I' for Inactive)
REMARK    1  A    between atoms: C_1  and  N_2
REMARK    2  A    between atoms: C_1  and  C_7
REMARK    3  A    between atoms: C_1  and  C_10
REMARK    4  A    between atoms: C_7  and  O_8
REMARK    5  A    between atoms: C_10  and  S_11
REMARK    6  A    between atoms: S_11  and  P_12
REMARK    7  A    between atoms: P_12  and  O_14
REMARK    8  A    between atoms: P_12  and  O_16
REMARK                            x       y       z     vdW  Elec       q    Type
REMARK                         _______ _______ _______ _____ _____    ______ ____
ROOT
ATOM      1  C   UNK     1      38.707 -25.649 -14.772  0.00  0.00    +0.047 C 
ENDROOT
BRANCH   1   2
ATOM      2  N   UNK     1      38.131 -26.957 -14.454  0.00  0.00    +0.389 N 
ATOM      3  H   UNK     1      37.645 -26.905 -13.559  0.00  0.00    -0.088 HD
ATOM      4  H   UNK     1      38.875 -27.651 -14.398  0.00  0.00    -0.088 HD
ATOM      5  H   UNK     1      37.471 -27.223 -15.185  0.00  0.00    -0.088 HD
ENDBRANCH   1   2
BRANCH   1   7
ATOM      6  O   UNK     1      40.836 -26.795 -14.794  0.00  0.00    -0.253 OA
ATOM      7  C   UNK     1      40.211 -25.758 -14.604  0.00  0.00    +0.294 C 
BRANCH   7   8
ATOM      8  O   UNK     1      40.801 -24.609 -14.189  0.00  0.00    -0.482 OA
ATOM      9  H   UNK     1      41.037 -23.951 -14.814  0.00  0.00    +0.295 HD
ENDBRANCH   7   8
ENDBRANCH   1   7
BRANCH   1  10
ATOM     10  C   UNK     1      38.100 -24.575 -13.867  0.00  0.00    +0.058 C 
BRANCH  10  11
ATOM     11  S   UNK     1      37.619 -25.245 -12.243  0.00  0.00    -0.033 S 
BRANCH  11  12
ATOM     12  P   UNK     1      36.515 -23.715 -11.336  0.00  0.00    +0.387 P 
ATOM     13  O   UNK     1      36.159 -24.061  -9.915  0.00  0.00    -0.246 OA
BRANCH  12  14
ATOM     14  O   UNK     1      35.214 -23.380 -12.245  0.00  0.00    -0.316 OA
ATOM     15  H   UNK     1      34.415 -23.695 -11.795  0.00  0.00    +0.221 HD
ENDBRANCH  12  14
BRANCH  12  16
ATOM     16  O   UNK     1      37.356 -22.333 -11.452  0.00  0.00    -0.316 OA
ATOM     17  H   UNK     1      38.247 -22.523 -11.784  0.00  0.00    +0.221 HD
ENDBRANCH  12  16
ENDBRANCH  11  12
ENDBRANCH  10  11
ENDBRANCH   1  10
TORSDOF 8
ENDMDL
MODEL 6
REMARK VINA RESULT:      -5.6      1.966      2.639
REMARK  Name = 3082729
REMARK  8 active torsions:
REMARK  status: ('A' for Active; 'I' for Inactive)
REMARK    1  A    between atoms: C_1  and  N_2
REMARK    2  A    between atoms: C_1  and  C_7
REMARK    3  A    between atoms: C_1  and  C_10
REMARK    4  A    between atoms: C_7  and  O_8
REMARK    5  A    between atoms: C_10  and  S_11
REMARK    6  A    between atoms: S_11  and  P_12
REMARK    7  A    between atoms: P_12  and  O_14
REMARK    8  A    between atoms: P_12  and  O_16
REMARK                            x       y       z     vdW  Elec       q    Type
REMARK                         _______ _______ _______ _____ _____    ______ ____
ROOT
ATOM      1  C   UNK     1      36.548 -24.991 -12.829  0.00  0.00    +0.047 C 
ENDROOT
BRANCH   1   2
ATOM      2  N   UNK     1      35.872 -25.663 -13.940  0.00  0.00    +0.389 N 
ATOM      3  H   UNK     1      36.437 -26.451 -14.255  0.00  0.00    -0.088 HD
ATOM      4  H   UNK     1      35.747 -25.005 -14.709  0.00  0.00    -0.088 HD
ATOM      5  H   UNK     1      34.961 -26.000 -13.630  0.00  0.00    -0.088 HD
ENDBRANCH   1   2
BRANCH   1   7
ATOM      6  O   UNK     1      35.363 -25.135 -10.726  0.00  0.00    -0.253 OA
ATOM      7  C   UNK     1      35.487 -24.595 -11.819  0.00  0.00    +0.294 C 
BRANCH   7   8
ATOM      8  O   UNK     1      34.660 -23.609 -12.250  0.00  0.00    -0.482 OA
ATOM      9  H   UNK     1      34.626 -22.793 -11.791  0.00  0.00    +0.295 HD
ENDBRANCH   7   8
ENDBRANCH   1   7
BRANCH   1  10
ATOM     10  C   UNK     1      37.333 -23.784 -13.346  0.00  0.00    +0.058 C 
BRANCH  10  11
ATOM     11  S   UNK     1      37.986 -24.065 -15.023  0.00  0.00    -0.033 S 
BRANCH  11  12
ATOM     12  P   UNK     1      39.546 -25.438 -14.768  0.00  0.00    +0.387 P 
ATOM     13  O   UNK     1      40.537 -24.961 -13.739  0.00  0.00    -0.246 OA
BRANCH  12  14
ATOM     14  O   UNK     1      40.233 -25.744 -16.205  0.00  0.00    -0.316 OA
ATOM     15  H   UNK     1      40.137 -26.686 -16.415  0.00  0.00    +0.221 HD
ENDBRANCH  12  14
BRANCH  12  16
ATOM     16  O   UNK     1      38.908 -26.883 -14.399  0.00  0.00    -0.316 OA
ATOM     17  H   UNK     1      38.248 -26.775 -13.696  0.00  0.00    +0.221 HD
ENDBRANCH  12  16
ENDBRANCH  11  12
ENDBRANCH  10  11
ENDBRANCH   1  10
TORSDOF 8
ENDMDL
MODEL 7
REMARK VINA RESULT:      -5.6      2.547      4.282
REMARK  Name = 3082729
REMARK  8 active torsions:
REMARK  status: ('A' for Active; 'I' for Inactive)
REMARK    1  A    between atoms: C_1  and  N_2
REMARK    2  A    between atoms: C_1  and  C_7
REMARK    3  A    between atoms: C_1  and  C_10
REMARK    4  A    between atoms: C_7  and  O_8
REMARK    5  A    between atoms: C_10  and  S_11
REMARK    6  A    between atoms: S_11  and  P_12
REMARK    7  A    between atoms: P_12  and  O_14
REMARK    8  A    between atoms: P_12  and  O_16
REMARK                            x       y       z     vdW  Elec       q    Type
REMARK                         _______ _______ _______ _____ _____    ______ ____
ROOT
ATOM      1  C   UNK     1      37.941 -24.546 -14.743  0.00  0.00    +0.047 C 
ENDROOT
BRANCH   1   2
ATOM      2  N   UNK     1      38.301 -23.628 -15.826  0.00  0.00    +0.389 N 
ATOM      3  H   UNK     1      39.140 -23.109 -15.567  0.00  0.00    -0.088 HD
ATOM      4  H   UNK     1      37.534 -22.976 -15.988  0.00  0.00    -0.088 HD
ATOM      5  H   UNK     1      38.479 -24.161 -16.677  0.00  0.00    -0.088 HD
ENDBRANCH   1   2
BRANCH   1   7
ATOM      6  O   UNK     1      38.410 -26.901 -14.465  0.00  0.00    -0.253 OA
ATOM      7  C   UNK     1      38.741 -25.820 -14.939  0.00  0.00    +0.294 C 
BRANCH   7   8
ATOM      8  O   UNK     1      39.878 -25.649 -15.659  0.00  0.00    -0.482 OA
ATOM      9  H   UNK     1      39.862 -25.753 -16.591  0.00  0.00    +0.295 HD
ENDBRANCH   7   8
ENDBRANCH   1   7
BRANCH   1  10
ATOM     10  C   UNK     1      36.433 -24.801 -14.753  0.00  0.00    +0.058 C 
BRANCH  10  11
ATOM     11  S   UNK     1      35.592 -23.964 -13.370  0.00  0.00    -0.033 S 
BRANCH  11  12
ATOM     12  P   UNK     1      36.308 -24.919 -11.651  0.00  0.00    +0.387 P 
ATOM     13  O   UNK     1      35.280 -24.916 -10.551  0.00  0.00    -0.246 OA
BRANCH  12  14
ATOM     14  O   UNK     1      37.709 -24.238 -11.201  0.00  0.00    -0.316 OA
ATOM     15  H   UNK     1      37.822 -23.394 -11.665  0.00  0.00    +0.221 HD
ENDBRANCH  12  14
BRANCH  12  16
ATOM     16  O   UNK     1      36.789 -26.415 -12.053  0.00  0.00    -0.316 OA
ATOM     17  H   UNK     1      37.746 -26.414 -12.216  0.00  0.00    +0.221 HD
ENDBRANCH  12  16
ENDBRANCH  11  12
ENDBRANCH  10  11
ENDBRANCH   1  10
TORSDOF 8
ENDMDL
MODEL 8
REMARK VINA RESULT:      -5.5      2.460      4.343
REMARK  Name = 3082729
REMARK  8 active torsions:
REMARK  status: ('A' for Active; 'I' for Inactive)
REMARK    1  A    between atoms: C_1  and  N_2
REMARK    2  A    between atoms: C_1  and  C_7
REMARK    3  A    between atoms: C_1  and  C_10
REMARK    4  A    between atoms: C_7  and  O_8
REMARK    5  A    between atoms: C_10  and  S_11
REMARK    6  A    between atoms: S_11  and  P_12
REMARK    7  A    between atoms: P_12  and  O_14
REMARK    8  A    between atoms: P_12  and  O_16
REMARK                            x       y       z     vdW  Elec       q    Type
REMARK                         _______ _______ _______ _____ _____    ______ ____
ROOT
ATOM      1  C   UNK     1      38.393 -25.247 -14.626  0.00  0.00    +0.047 C 
ENDROOT
BRANCH   1   2
ATOM      2  N   UNK     1      37.689 -24.198 -15.367  0.00  0.00    +0.389 N 
ATOM      3  H   UNK     1      36.780 -24.547 -15.668  0.00  0.00    -0.088 HD
ATOM      4  H   UNK     1      38.239 -23.932 -16.183  0.00  0.00    -0.088 HD
ATOM      5  H   UNK     1      37.560 -23.385 -14.764  0.00  0.00    -0.088 HD
ENDBRANCH   1   2
BRANCH   1   7
ATOM      6  O   UNK     1      37.246 -27.175 -13.722  0.00  0.00    -0.253 OA
ATOM      7  C   UNK     1      37.550 -26.506 -14.704  0.00  0.00    +0.294 C 
BRANCH   7   8
ATOM      8  O   UNK     1      37.189 -26.847 -15.967  0.00  0.00    -0.482 OA
ATOM      9  H   UNK     1      36.856 -27.706 -16.143  0.00  0.00    +0.295 HD
ENDBRANCH   7   8
ENDBRANCH   1   7
BRANCH   1  10
ATOM     10  C   UNK     1      38.631 -24.798 -13.182  0.00  0.00    +0.058 C 
BRANCH  10  11
ATOM     11  S   UNK     1      37.602 -23.363 -12.737  0.00  0.00    -0.033 S 
BRANCH  11  12
ATOM     12  P   UNK     1      36.168 -24.122 -11.414  0.00  0.00    +0.387 P 
ATOM     13  O   UNK     1      36.477 -23.742  -9.990  0.00  0.00    -0.246 OA
BRANCH  12  14
ATOM     14  O   UNK     1      36.040 -25.725 -11.622  0.00  0.00    -0.316 OA
ATOM     15  H   UNK     1      36.506 -26.183 -10.905  0.00  0.00    +0.221 HD
ENDBRANCH  12  14
BRANCH  12  16
ATOM     16  O   UNK     1      34.703 -23.615 -11.893  0.00  0.00    -0.316 OA
ATOM     17  H   UNK     1      34.286 -23.109 -11.178  0.00  0.00    +0.221 HD
ENDBRANCH  12  16
ENDBRANCH  11  12
ENDBRANCH  10  11
ENDBRANCH   1  10
TORSDOF 8
ENDMDL
MODEL 9
REMARK VINA RESULT:      -5.5      1.944      2.452
REMARK  Name = 3082729
REMARK  8 active torsions:
REMARK  status: ('A' for Active; 'I' for Inactive)
REMARK    1  A    between atoms: C_1  and  N_2
REMARK    2  A    between atoms: C_1  and  C_7
REMARK    3  A    between atoms: C_1  and  C_10
REMARK    4  A    between atoms: C_7  and  O_8
REMARK    5  A    between atoms: C_10  and  S_11
REMARK    6  A    between atoms: S_11  and  P_12
REMARK    7  A    between atoms: P_12  and  O_14
REMARK    8  A    between atoms: P_12  and  O_16
REMARK                            x       y       z     vdW  Elec       q    Type
REMARK                         _______ _______ _______ _____ _____    ______ ____
ROOT
ATOM      1  C   UNK     1      35.911 -24.628 -13.095  0.00  0.00    +0.047 C 
ENDROOT
BRANCH   1   2
ATOM      2  N   UNK     1      35.901 -23.174 -12.924  0.00  0.00    +0.389 N 
ATOM      3  H   UNK     1      36.859 -22.833 -12.854  0.00  0.00    -0.088 HD
ATOM      4  H   UNK     1      35.392 -22.936 -12.073  0.00  0.00    -0.088 HD
ATOM      5  H   UNK     1      35.443 -22.741 -13.726  0.00  0.00    -0.088 HD
ENDBRANCH   1   2
BRANCH   1   7
ATOM      6  O   UNK     1      37.487 -24.518 -11.264  0.00  0.00    -0.253 OA
ATOM      7  C   UNK     1      36.830 -25.208 -12.036  0.00  0.00    +0.294 C 
BRANCH   7   8
ATOM      8  O   UNK     1      36.886 -26.564 -12.042  0.00  0.00    -0.482 OA
ATOM      9  H   UNK     1      37.612 -27.003 -11.644  0.00  0.00    +0.295 HD
ENDBRANCH   7   8
ENDBRANCH   1   7
BRANCH   1  10
ATOM     10  C   UNK     1      36.362 -24.985 -14.513  0.00  0.00    +0.058 C 
BRANCH  10  11
ATOM     11  S   UNK     1      37.892 -24.114 -14.980  0.00  0.00    -0.033 S 
BRANCH  11  12
ATOM     12  P   UNK     1      39.407 -25.546 -14.782  0.00  0.00    +0.387 P 
ATOM     13  O   UNK     1      38.851 -26.880 -14.360  0.00  0.00    -0.246 OA
BRANCH  12  14
ATOM     14  O   UNK     1      40.543 -24.990 -13.767  0.00  0.00    -0.316 OA
ATOM     15  H   UNK     1      41.115 -24.362 -14.235  0.00  0.00    +0.221 HD
ENDBRANCH  12  14
BRANCH  12  16
ATOM     16  O   UNK     1      40.229 -25.624 -16.178  0.00  0.00    -0.316 OA
ATOM     17  H   UNK     1      40.495 -24.731 -16.447  0.00  0.00    +0.221 HD
ENDBRANCH  12  16
ENDBRANCH  11  12
ENDBRANCH  10  11
ENDBRANCH   1  10
TORSDOF 8
ENDMDL
