MODEL 1
REMARK VINA RESULT:      -9.8      0.000      0.000
REMARK  Name = 24967599
REMARK  2 active torsions:
REMARK  status: ('A' for Active; 'I' for Inactive)
REMARK    1  A    between atoms: N_2  and  C_16
REMARK    2  A    between atoms: C_9  and  N_22
REMARK                            x       y       z     vdW  Elec       q    Type
REMARK                         _______ _______ _______ _____ _____    ______ ____
ROOT
ATOM      1  O   UNL     1      34.811 -17.080 -20.612  0.00  0.00    -0.269 OA
ATOM      2  N   UNL     1      34.821 -18.358 -22.551  0.00  0.00    -0.227 N 
ATOM      3  N   UNL     1      34.338 -17.364 -24.657  0.00  0.00    -0.395 NA
ATOM      4  C   UNL     1      34.650 -18.394 -23.934  0.00  0.00    +0.166 C 
ATOM      5  C   UNL     1      34.667 -17.166 -21.828  0.00  0.00    +0.258 C 
ATOM      6  C   UNL     1      34.312 -15.980 -22.636  0.00  0.00    +0.092 C 
ATOM      7  C   UNL     1      34.162 -16.130 -24.017  0.00  0.00    +0.120 C 
ATOM      8  C   UNL     1      34.834 -19.716 -24.642  0.00  0.00    +0.084 C 
ATOM      9  C   UNL     1      34.130 -14.733 -22.027  0.00  0.00    +0.048 C 
ATOM     10  C   UNL     1      33.825 -15.011 -24.786  0.00  0.00    +0.085 C 
ATOM     11  C   UNL     1      33.795 -13.626 -22.806  0.00  0.00    +0.010 C 
ATOM     12  C   UNL     1      33.642 -13.764 -24.185  0.00  0.00    -0.017 C 
ENDROOT
BRANCH   2  16
ATOM     13  O   UNL     1      37.420 -18.673 -21.778  0.00  0.00    -0.273 OA
ATOM     14  O   UNL     1      36.282 -21.568 -18.383  0.00  0.00    -0.275 OA
ATOM     15  N   UNL     1      36.806 -20.100 -20.081  0.00  0.00    -0.254 N 
ATOM     16  C   UNL     1      35.168 -19.551 -21.824  0.00  0.00    +0.159 C 
ATOM     17  C   UNL     1      34.145 -19.843 -20.738  0.00  0.00    +0.039 C 
ATOM     18  C   UNL     1      34.560 -21.088 -19.976  0.00  0.00    +0.088 C 
ATOM     19  C   UNL     1      36.556 -19.363 -21.237  0.00  0.00    +0.247 C 
ATOM     20  C   UNL     1      35.942 -20.939 -19.385  0.00  0.00    +0.228 C 
ATOM     21  H   UNL     1      37.714 -20.016 -19.707  0.00  0.00    +0.158 HD
ENDBRANCH   2  16
BRANCH   9  22
ATOM     22  N   UNL     1      34.269 -14.524 -20.638  0.00  0.00    -0.357 N 
ATOM     23  H   UNL     1      33.775 -13.793 -20.198  0.00  0.00    +0.142 HD
ATOM     24  H   UNL     1      34.858 -15.107 -20.108  0.00  0.00    +0.142 HD
ENDBRANCH   9  22
TORSDOF 2
ENDMDL
MODEL 2
REMARK VINA RESULT:      -9.5      2.182      6.411
REMARK  Name = 24967599
REMARK  2 active torsions:
REMARK  status: ('A' for Active; 'I' for Inactive)
REMARK    1  A    between atoms: N_2  and  C_16
REMARK    2  A    between atoms: C_9  and  N_22
REMARK                            x       y       z     vdW  Elec       q    Type
REMARK                         _______ _______ _______ _____ _____    ______ ____
ROOT
ATOM      1  O   UNL     1      32.866 -20.634 -20.801  0.00  0.00    -0.269 OA
ATOM      2  N   UNL     1      34.905 -19.674 -21.366  0.00  0.00    -0.227 N 
ATOM      3  N   UNL     1      36.854 -20.132 -20.082  0.00  0.00    -0.395 NA
ATOM      4  C   UNL     1      36.261 -19.542 -21.074  0.00  0.00    +0.166 C 
ATOM      5  C   UNL     1      34.065 -20.482 -20.584  0.00  0.00    +0.258 C 
ATOM      6  C   UNL     1      34.723 -21.161 -19.449  0.00  0.00    +0.092 C 
ATOM      7  C   UNL     1      36.091 -20.957 -19.246  0.00  0.00    +0.120 C 
ATOM      8  C   UNL     1      37.100 -18.655 -21.964  0.00  0.00    +0.084 C 
ATOM      9  C   UNL     1      33.990 -21.993 -18.595  0.00  0.00    +0.048 C 
ATOM     10  C   UNL     1      36.718 -21.598 -18.172  0.00  0.00    +0.085 C 
ATOM     11  C   UNL     1      34.628 -22.626 -17.530  0.00  0.00    +0.010 C 
ATOM     12  C   UNL     1      35.992 -22.429 -17.317  0.00  0.00    -0.017 C 
ENDROOT
BRANCH   2  16
ATOM     13  O   UNL     1      34.440 -16.996 -21.117  0.00  0.00    -0.273 OA
ATOM     14  O   UNL     1      34.509 -16.343 -25.675  0.00  0.00    -0.275 OA
ATOM     15  N   UNL     1      34.502 -16.710 -23.399  0.00  0.00    -0.254 N 
ATOM     16  C   UNL     1      34.326 -18.983 -22.489  0.00  0.00    +0.159 C 
ATOM     17  C   UNL     1      35.006 -19.389 -23.787  0.00  0.00    +0.039 C 
ATOM     18  C   UNL     1      34.390 -18.619 -24.941  0.00  0.00    +0.088 C 
ATOM     19  C   UNL     1      34.454 -17.490 -22.244  0.00  0.00    +0.247 C 
ATOM     20  C   UNL     1      34.491 -17.128 -24.726  0.00  0.00    +0.228 C 
ATOM     21  H   UNL     1      34.549 -15.737 -23.257  0.00  0.00    +0.158 HD
ENDBRANCH   2  16
BRANCH   9  22
ATOM     22  N   UNL     1      32.608 -22.236 -18.753  0.00  0.00    -0.357 N 
ATOM     23  H   UNL     1      32.137 -22.830 -18.123  0.00  0.00    +0.142 HD
ATOM     24  H   UNL     1      32.115 -21.814 -19.492  0.00  0.00    +0.142 HD
ENDBRANCH   9  22
TORSDOF 2
ENDMDL
MODEL 3
REMARK VINA RESULT:      -9.3      5.885      8.653
REMARK  Name = 24967599
REMARK  2 active torsions:
REMARK  status: ('A' for Active; 'I' for Inactive)
REMARK    1  A    between atoms: N_2  and  C_16
REMARK    2  A    between atoms: C_9  and  N_22
REMARK                            x       y       z     vdW  Elec       q    Type
REMARK                         _______ _______ _______ _____ _____    ______ ____
ROOT
ATOM      1  O   UNL     1      33.351 -23.496 -16.138  0.00  0.00    -0.269 OA
ATOM      2  N   UNL     1      35.646 -23.381 -15.799  0.00  0.00    -0.227 N 
ATOM      3  N   UNL     1      37.045 -22.268 -17.368  0.00  0.00    -0.395 NA
ATOM      4  C   UNL     1      36.881 -22.934 -16.268  0.00  0.00    +0.166 C 
ATOM      5  C   UNL     1      34.462 -23.127 -16.508  0.00  0.00    +0.258 C 
ATOM      6  C   UNL     1      34.630 -22.369 -17.765  0.00  0.00    +0.092 C 
ATOM      7  C   UNL     1      35.916 -21.971 -18.142  0.00  0.00    +0.120 C 
ATOM      8  C   UNL     1      38.110 -23.245 -15.447  0.00  0.00    +0.084 C 
ATOM      9  C   UNL     1      33.522 -22.056 -18.561  0.00  0.00    +0.048 C 
ATOM     10  C   UNL     1      36.080 -21.253 -19.332  0.00  0.00    +0.085 C 
ATOM     11  C   UNL     1      33.701 -21.339 -19.744  0.00  0.00    +0.010 C 
ATOM     12  C   UNL     1      34.979 -20.938 -20.130  0.00  0.00    -0.017 C 
ENDROOT
BRANCH   2  16
ATOM     13  O   UNL     1      35.937 -26.093 -15.902  0.00  0.00    -0.273 OA
ATOM     14  O   UNL     1      37.184 -26.341 -11.477  0.00  0.00    -0.275 OA
ATOM     15  N   UNL     1      36.574 -26.170 -13.693  0.00  0.00    -0.254 N 
ATOM     16  C   UNL     1      35.553 -24.116 -14.565  0.00  0.00    +0.159 C 
ATOM     17  C   UNL     1      36.352 -23.435 -13.465  0.00  0.00    +0.039 C 
ATOM     18  C   UNL     1      36.253 -24.254 -12.191  0.00  0.00    +0.088 C 
ATOM     19  C   UNL     1      36.052 -25.528 -14.815  0.00  0.00    +0.247 C 
ATOM     20  C   UNL     1      36.733 -25.669 -12.405  0.00  0.00    +0.228 C 
ATOM     21  H   UNL     1      36.870 -27.099 -13.831  0.00  0.00    +0.158 HD
ENDBRANCH   2  16
BRANCH   9  22
ATOM     22  N   UNL     1      32.202 -22.431 -18.230  0.00  0.00    -0.357 N 
ATOM     23  H   UNL     1      31.873 -23.331 -18.459  0.00  0.00    +0.142 HD
ATOM     24  H   UNL     1      31.610 -21.794 -17.770  0.00  0.00    +0.142 HD
ENDBRANCH   9  22
TORSDOF 2
ENDMDL
MODEL 4
REMARK VINA RESULT:      -9.2      1.508      2.122
REMARK  Name = 24967599
REMARK  2 active torsions:
REMARK  status: ('A' for Active; 'I' for Inactive)
REMARK    1  A    between atoms: N_2  and  C_16
REMARK    2  A    between atoms: C_9  and  N_22
REMARK                            x       y       z     vdW  Elec       q    Type
REMARK                         _______ _______ _______ _____ _____    ______ ____
ROOT
ATOM      1  O   UNL     1      34.822 -15.158 -21.782  0.00  0.00    -0.269 OA
ATOM      2  N   UNL     1      34.900 -17.201 -22.885  0.00  0.00    -0.227 N 
ATOM      3  N   UNL     1      34.158 -17.388 -25.137  0.00  0.00    -0.395 NA
ATOM      4  C   UNL     1      34.654 -17.912 -24.059  0.00  0.00    +0.166 C 
ATOM      5  C   UNL     1      34.621 -15.829 -22.791  0.00  0.00    +0.258 C 
ATOM      6  C   UNL     1      34.054 -15.216 -24.010  0.00  0.00    +0.092 C 
ATOM      7  C   UNL     1      33.846 -16.022 -25.132  0.00  0.00    +0.120 C 
ATOM      8  C   UNL     1      34.983 -19.386 -24.083  0.00  0.00    +0.084 C 
ATOM      9  C   UNL     1      33.733 -13.854 -24.038  0.00  0.00    +0.048 C 
ATOM     10  C   UNL     1      33.309 -15.446 -26.289  0.00  0.00    +0.085 C 
ATOM     11  C   UNL     1      33.199 -13.294 -25.198  0.00  0.00    +0.010 C 
ATOM     12  C   UNL     1      32.986 -14.089 -26.323  0.00  0.00    -0.017 C 
ENDROOT
BRANCH   2  16
ATOM     13  O   UNL     1      33.179 -18.468 -21.188  0.00  0.00    -0.273 OA
ATOM     14  O   UNL     1      36.481 -21.237 -19.565  0.00  0.00    -0.275 OA
ATOM     15  N   UNL     1      34.854 -19.845 -20.418  0.00  0.00    -0.254 N 
ATOM     16  C   UNL     1      35.455 -17.861 -21.732  0.00  0.00    +0.159 C 
ATOM     17  C   UNL     1      36.684 -18.672 -22.108  0.00  0.00    +0.039 C 
ATOM     18  C   UNL     1      37.221 -19.374 -20.874  0.00  0.00    +0.088 C 
ATOM     19  C   UNL     1      34.377 -18.743 -21.126  0.00  0.00    +0.247 C 
ATOM     20  C   UNL     1      36.172 -20.254 -20.239  0.00  0.00    +0.228 C 
ATOM     21  H   UNL     1      34.169 -20.408 -19.990  0.00  0.00    +0.158 HD
ENDBRANCH   2  16
BRANCH   9  22
ATOM     22  N   UNL     1      33.922 -12.993 -22.935  0.00  0.00    -0.357 N 
ATOM     23  H   UNL     1      33.802 -13.333 -22.018  0.00  0.00    +0.142 HD
ATOM     24  H   UNL     1      34.174 -12.053 -23.082  0.00  0.00    +0.142 HD
ENDBRANCH   9  22
TORSDOF 2
ENDMDL
MODEL 5
REMARK VINA RESULT:      -9.2      8.762     10.357
REMARK  Name = 24967599
REMARK  2 active torsions:
REMARK  status: ('A' for Active; 'I' for Inactive)
REMARK    1  A    between atoms: N_2  and  C_16
REMARK    2  A    between atoms: C_9  and  N_22
REMARK                            x       y       z     vdW  Elec       q    Type
REMARK                         _______ _______ _______ _____ _____    ______ ____
ROOT
ATOM      1  O   UNL     1      32.965 -25.064 -12.978  0.00  0.00    -0.269 OA
ATOM      2  N   UNL     1      34.355 -24.078 -14.557  0.00  0.00    -0.227 N 
ATOM      3  N   UNL     1      33.438 -22.950 -16.439  0.00  0.00    -0.395 NA
ATOM      4  C   UNL     1      34.455 -23.352 -15.743  0.00  0.00    +0.166 C 
ATOM      5  C   UNL     1      33.107 -24.429 -14.020  0.00  0.00    +0.258 C 
ATOM      6  C   UNL     1      31.936 -23.980 -14.801  0.00  0.00    +0.092 C 
ATOM      7  C   UNL     1      32.151 -23.259 -15.978  0.00  0.00    +0.120 C 
ATOM      8  C   UNL     1      35.834 -23.011 -16.256  0.00  0.00    +0.084 C 
ATOM      9  C   UNL     1      30.637 -24.271 -14.367  0.00  0.00    +0.048 C 
ATOM     10  C   UNL     1      31.045 -22.831 -16.721  0.00  0.00    +0.085 C 
ATOM     11  C   UNL     1      29.545 -23.838 -15.117  0.00  0.00    +0.010 C 
ATOM     12  C   UNL     1      29.748 -23.118 -16.294  0.00  0.00    -0.017 C 
ENDROOT
BRANCH   2  16
ATOM     13  O   UNL     1      35.741 -26.228 -15.508  0.00  0.00    -0.273 OA
ATOM     14  O   UNL     1      39.641 -24.891 -13.457  0.00  0.00    -0.275 OA
ATOM     15  N   UNL     1      37.673 -25.514 -14.483  0.00  0.00    -0.254 N 
ATOM     16  C   UNL     1      35.538 -24.485 -13.845  0.00  0.00    +0.159 C 
ATOM     17  C   UNL     1      36.399 -23.285 -13.489  0.00  0.00    +0.039 C 
ATOM     18  C   UNL     1      37.649 -23.757 -12.767  0.00  0.00    +0.088 C 
ATOM     19  C   UNL     1      36.299 -25.471 -14.714  0.00  0.00    +0.247 C 
ATOM     20  C   UNL     1      38.427 -24.747 -13.600  0.00  0.00    +0.228 C 
ATOM     21  H   UNL     1      38.176 -26.173 -15.014  0.00  0.00    +0.158 HD
ENDBRANCH   2  16
BRANCH   9  22
ATOM     22  N   UNL     1      30.361 -24.994 -13.186  0.00  0.00    -0.357 N 
ATOM     23  H   UNL     1      30.759 -24.711 -12.330  0.00  0.00    +0.142 HD
ATOM     24  H   UNL     1      29.771 -25.781 -13.217  0.00  0.00    +0.142 HD
ENDBRANCH   9  22
TORSDOF 2
ENDMDL
MODEL 6
REMARK VINA RESULT:      -9.0      8.790     10.867
REMARK  Name = 24967599
REMARK  2 active torsions:
REMARK  status: ('A' for Active; 'I' for Inactive)
REMARK    1  A    between atoms: N_2  and  C_16
REMARK    2  A    between atoms: C_9  and  N_22
REMARK                            x       y       z     vdW  Elec       q    Type
REMARK                         _______ _______ _______ _____ _____    ______ ____
ROOT
ATOM      1  O   UNL     1      35.875 -24.118 -16.119  0.00  0.00    -0.269 OA
ATOM      2  N   UNL     1      35.877 -24.317 -13.804  0.00  0.00    -0.227 N 
ATOM      3  N   UNL     1      33.879 -23.976 -12.560  0.00  0.00    -0.395 NA
ATOM      4  C   UNL     1      35.144 -24.256 -12.620  0.00  0.00    +0.166 C 
ATOM      5  C   UNL     1      35.275 -24.074 -15.048  0.00  0.00    +0.258 C 
ATOM      6  C   UNL     1      33.833 -23.753 -14.999  0.00  0.00    +0.092 C 
ATOM      7  C   UNL     1      33.196 -23.717 -13.756  0.00  0.00    +0.120 C 
ATOM      8  C   UNL     1      35.863 -24.531 -11.321  0.00  0.00    +0.084 C 
ATOM      9  C   UNL     1      33.122 -23.490 -16.175  0.00  0.00    +0.048 C 
ATOM     10  C   UNL     1      31.832 -23.413 -13.704  0.00  0.00    +0.085 C 
ATOM     11  C   UNL     1      31.762 -23.189 -16.108  0.00  0.00    +0.010 C 
ATOM     12  C   UNL     1      31.117 -23.150 -14.873  0.00  0.00    -0.017 C 
ENDROOT
BRANCH   2  16
ATOM     13  O   UNL     1      36.587 -26.935 -13.505  0.00  0.00    -0.273 OA
ATOM     14  O   UNL     1      40.710 -26.261 -15.441  0.00  0.00    -0.275 OA
ATOM     15  N   UNL     1      38.629 -26.559 -14.495  0.00  0.00    -0.254 N 
ATOM     16  C   UNL     1      37.281 -24.636 -13.782  0.00  0.00    +0.159 C 
ATOM     17  C   UNL     1      38.023 -23.902 -14.887  0.00  0.00    +0.039 C 
ATOM     18  C   UNL     1      39.491 -24.287 -14.849  0.00  0.00    +0.088 C 
ATOM     19  C   UNL     1      37.427 -26.141 -13.926  0.00  0.00    +0.247 C 
ATOM     20  C   UNL     1      39.674 -25.779 -14.980  0.00  0.00    +0.228 C 
ATOM     21  H   UNL     1      38.754 -27.534 -14.563  0.00  0.00    +0.158 HD
ENDBRANCH   2  16
BRANCH   9  22
ATOM     22  N   UNL     1      33.714 -23.513 -17.457  0.00  0.00    -0.357 N 
ATOM     23  H   UNL     1      34.269 -22.756 -17.757  0.00  0.00    +0.142 HD
ATOM     24  H   UNL     1      33.571 -24.284 -18.052  0.00  0.00    +0.142 HD
ENDBRANCH   9  22
TORSDOF 2
ENDMDL
MODEL 7
REMARK VINA RESULT:      -8.9      5.855      8.801
REMARK  Name = 24967599
REMARK  2 active torsions:
REMARK  status: ('A' for Active; 'I' for Inactive)
REMARK    1  A    between atoms: N_2  and  C_16
REMARK    2  A    between atoms: C_9  and  N_22
REMARK                            x       y       z     vdW  Elec       q    Type
REMARK                         _______ _______ _______ _____ _____    ______ ____
ROOT
ATOM      1  O   UNL     1      36.551 -23.134 -16.152  0.00  0.00    -0.269 OA
ATOM      2  N   UNL     1      34.392 -23.737 -15.542  0.00  0.00    -0.227 N 
ATOM      3  N   UNL     1      32.540 -23.149 -16.912  0.00  0.00    -0.395 NA
ATOM      4  C   UNL     1      33.033 -23.712 -15.854  0.00  0.00    +0.166 C 
ATOM      5  C   UNL     1      35.344 -23.137 -16.380  0.00  0.00    +0.258 C 
ATOM      6  C   UNL     1      34.799 -22.490 -17.591  0.00  0.00    +0.092 C 
ATOM      7  C   UNL     1      33.419 -22.523 -17.806  0.00  0.00    +0.120 C 
ATOM      8  C   UNL     1      32.070 -24.381 -14.902  0.00  0.00    +0.084 C 
ATOM      9  C   UNL     1      35.651 -21.857 -18.504  0.00  0.00    +0.048 C 
ATOM     10  C   UNL     1      32.898 -21.910 -18.951  0.00  0.00    +0.085 C 
ATOM     11  C   UNL     1      35.117 -21.252 -19.641  0.00  0.00    +0.010 C 
ATOM     12  C   UNL     1      33.742 -21.278 -19.865  0.00  0.00    -0.017 C 
ENDROOT
BRANCH   2  16
ATOM     13  O   UNL     1      35.547 -26.197 -15.788  0.00  0.00    -0.273 OA
ATOM     14  O   UNL     1      37.846 -25.751 -11.823  0.00  0.00    -0.275 OA
ATOM     15  N   UNL     1      36.693 -25.925 -13.811  0.00  0.00    -0.254 N 
ATOM     16  C   UNL     1      34.857 -24.386 -14.344  0.00  0.00    +0.159 C 
ATOM     17  C   UNL     1      35.621 -23.413 -13.460  0.00  0.00    +0.039 C 
ATOM     18  C   UNL     1      36.120 -24.141 -12.224  0.00  0.00    +0.088 C 
ATOM     19  C   UNL     1      35.726 -25.562 -14.749  0.00  0.00    +0.247 C 
ATOM     20  C   UNL     1      36.982 -25.325 -12.590  0.00  0.00    +0.228 C 
ATOM     21  H   UNL     1      37.242 -26.709 -14.044  0.00  0.00    +0.158 HD
ENDBRANCH   2  16
BRANCH   9  22
ATOM     22  N   UNL     1      37.051 -21.793 -18.338  0.00  0.00    -0.357 N 
ATOM     23  H   UNL     1      37.496 -20.920 -18.234  0.00  0.00    +0.142 HD
ATOM     24  H   UNL     1      37.584 -22.621 -18.327  0.00  0.00    +0.142 HD
ENDBRANCH   9  22
TORSDOF 2
ENDMDL
MODEL 8
REMARK VINA RESULT:      -8.6      3.207      6.963
REMARK  Name = 24967599
REMARK  2 active torsions:
REMARK  status: ('A' for Active; 'I' for Inactive)
REMARK    1  A    between atoms: N_2  and  C_16
REMARK    2  A    between atoms: C_9  and  N_22
REMARK                            x       y       z     vdW  Elec       q    Type
REMARK                         _______ _______ _______ _____ _____    ______ ____
ROOT
ATOM      1  O   UNL     1      34.189 -14.110 -22.348  0.00  0.00    -0.269 OA
ATOM      2  N   UNL     1      33.525 -14.009 -24.572  0.00  0.00    -0.227 N 
ATOM      3  N   UNL     1      33.691 -15.924 -25.971  0.00  0.00    -0.395 NA
ATOM      4  C   UNL     1      33.375 -14.681 -25.784  0.00  0.00    +0.166 C 
ATOM      5  C   UNL     1      34.040 -14.655 -23.438  0.00  0.00    +0.258 C 
ATOM      6  C   UNL     1      34.407 -16.074 -23.634  0.00  0.00    +0.092 C 
ATOM      7  C   UNL     1      34.216 -16.649 -24.893  0.00  0.00    +0.120 C 
ATOM      8  C   UNL     1      32.811 -13.917 -26.958  0.00  0.00    +0.084 C 
ATOM      9  C   UNL     1      34.933 -16.825 -22.576  0.00  0.00    +0.048 C 
ATOM     10  C   UNL     1      34.562 -17.991 -25.083  0.00  0.00    +0.085 C 
ATOM     11  C   UNL     1      35.273 -18.162 -22.780  0.00  0.00    +0.010 C 
ATOM     12  C   UNL     1      35.088 -18.745 -24.033  0.00  0.00    -0.017 C 
ENDROOT
BRANCH   2  16
ATOM     13  O   UNL     1      31.571 -13.372 -22.776  0.00  0.00    -0.273 OA
ATOM     14  O   UNL     1      33.016  -9.014 -22.426  0.00  0.00    -0.275 OA
ATOM     15  N   UNL     1      32.338 -11.208 -22.616  0.00  0.00    -0.254 N 
ATOM     16  C   UNL     1      33.147 -12.625 -24.449  0.00  0.00    +0.159 C 
ATOM     17  C   UNL     1      34.375 -11.730 -24.393  0.00  0.00    +0.039 C 
ATOM     18  C   UNL     1      33.938 -10.285 -24.234  0.00  0.00    +0.088 C 
ATOM     19  C   UNL     1      32.298 -12.474 -23.200  0.00  0.00    +0.247 C 
ATOM     20  C   UNL     1      33.082 -10.099 -23.005  0.00  0.00    +0.228 C 
ATOM     21  H   UNL     1      31.764 -11.084 -21.825  0.00  0.00    +0.158 HD
ENDBRANCH   2  16
BRANCH   9  22
ATOM     22  N   UNL     1      35.146 -16.297 -21.284  0.00  0.00    -0.357 N 
ATOM     23  H   UNL     1      36.031 -15.941 -21.037  0.00  0.00    +0.142 HD
ATOM     24  H   UNL     1      34.411 -16.283 -20.630  0.00  0.00    +0.142 HD
ENDBRANCH   9  22
TORSDOF 2
ENDMDL
MODEL 9
REMARK VINA RESULT:      -8.1      1.690      3.240
REMARK  Name = 24967599
REMARK  2 active torsions:
REMARK  status: ('A' for Active; 'I' for Inactive)
REMARK    1  A    between atoms: N_2  and  C_16
REMARK    2  A    between atoms: C_9  and  N_22
REMARK                            x       y       z     vdW  Elec       q    Type
REMARK                         _______ _______ _______ _____ _____    ______ ____
ROOT
ATOM      1  O   UNL     1      34.643 -18.206 -23.695  0.00  0.00    -0.269 OA
ATOM      2  N   UNL     1      34.688 -16.783 -21.859  0.00  0.00    -0.227 N 
ATOM      3  N   UNL     1      34.062 -14.500 -22.083  0.00  0.00    -0.395 NA
ATOM      4  C   UNL     1      34.470 -15.499 -21.364  0.00  0.00    +0.166 C 
ATOM      5  C   UNL     1      34.470 -17.091 -23.211  0.00  0.00    +0.258 C 
ATOM      6  C   UNL     1      34.004 -15.964 -24.046  0.00  0.00    +0.092 C 
ATOM      7  C   UNL     1      33.820 -14.716 -23.447  0.00  0.00    +0.120 C 
ATOM      8  C   UNL     1      34.726 -15.247 -19.897  0.00  0.00    +0.084 C 
ATOM      9  C   UNL     1      33.753 -16.147 -25.411  0.00  0.00    +0.048 C 
ATOM     10  C   UNL     1      33.380 -13.646 -24.234  0.00  0.00    +0.085 C 
ATOM     11  C   UNL     1      33.314 -15.072 -26.183  0.00  0.00    +0.010 C 
ATOM     12  C   UNL     1      33.128 -13.821 -25.595  0.00  0.00    -0.017 C 
ENDROOT
BRANCH   2  16
ATOM     13  O   UNL     1      32.825 -18.516 -20.871  0.00  0.00    -0.273 OA
ATOM     14  O   UNL     1      35.962 -21.806 -20.138  0.00  0.00    -0.275 OA
ATOM     15  N   UNL     1      34.421 -20.140 -20.539  0.00  0.00    -0.254 N 
ATOM     16  C   UNL     1      35.142 -17.837 -20.990  0.00  0.00    +0.159 C 
ATOM     17  C   UNL     1      36.391 -18.501 -21.546  0.00  0.00    +0.039 C 
ATOM     18  C   UNL     1      36.821 -19.624 -20.619  0.00  0.00    +0.088 C 
ATOM     19  C   UNL     1      34.012 -18.838 -20.827  0.00  0.00    +0.247 C 
ATOM     20  C   UNL     1      35.716 -20.635 -20.427  0.00  0.00    +0.228 C 
ATOM     21  H   UNL     1      33.699 -20.794 -20.396  0.00  0.00    +0.158 HD
ENDBRANCH   2  16
BRANCH   9  22
ATOM     22  N   UNL     1      33.921 -17.385 -26.069  0.00  0.00    -0.357 N 
ATOM     23  H   UNL     1      33.449 -18.185 -25.741  0.00  0.00    +0.142 HD
ATOM     24  H   UNL     1      34.510 -17.449 -26.854  0.00  0.00    +0.142 HD
ENDBRANCH   9  22
TORSDOF 2
ENDMDL
