MODEL 1
REMARK VINA RESULT:      -5.9      0.000      0.000
REMARK  Name = 4290313
REMARK  7 active torsions:
REMARK  status: ('A' for Active; 'I' for Inactive)
REMARK    1  A    between atoms: S_1  and  C_4
REMARK    2  A    between atoms: S_1  and  C_8
REMARK    3  A    between atoms: C_4  and  C_5
REMARK    4  A    between atoms: C_5  and  C_6
REMARK    5  A    between atoms: C_8  and  C_9
REMARK    6  A    between atoms: C_9  and  C_11
REMARK    7  A    between atoms: C_11  and  O_12
REMARK                            x       y       z     vdW  Elec       q    Type
REMARK                         _______ _______ _______ _____ _____    ______ ____
ROOT
ATOM      1  S   UNL     1      36.902 -26.148 -14.717  0.00  0.00    -0.009 S 
ATOM      2  O   UNL     1      37.076 -26.802 -13.430  0.00  0.00    -0.173 OA
ATOM      3  O   UNL     1      36.811 -26.933 -15.937  0.00  0.00    -0.173 OA
ENDROOT
BRANCH   1   4
ATOM      4  C   UNL     1      35.481 -25.109 -14.620  0.00  0.00    +0.151 C 
BRANCH   4   5
ATOM      5  C   UNL     1      35.834 -23.735 -14.071  0.00  0.00    +0.025 C 
BRANCH   5   6
ATOM      6  C   UNL     1      35.628 -23.671 -12.559  0.00  0.00    +0.002 C 
ATOM      7  C   UNL     1      36.909 -23.286 -11.837  0.00  0.00    +0.000 C 
ENDBRANCH   5   6
ENDBRANCH   4   5
ENDBRANCH   1   4
BRANCH   1   8
ATOM      8  C   UNL     1      38.242 -24.997 -14.918  0.00  0.00    +0.162 C 
BRANCH   8   9
ATOM      9  C   UNL     1      39.403 -25.293 -13.983  0.00  0.00    +0.135 C 
BRANCH   9  11
ATOM     10  O   UNL     1      41.318 -26.802 -14.069  0.00  0.00    -0.250 OA
ATOM     11  C   UNL     1      40.498 -26.098 -14.639  0.00  0.00    +0.316 C 
BRANCH  11  12
ATOM     12  O   UNL     1      40.436 -25.957 -15.989  0.00  0.00    -0.480 OA
ATOM     13  H   UNL     1      41.116 -26.310 -16.528  0.00  0.00    +0.295 HD
ENDBRANCH  11  12
ENDBRANCH   9  11
ENDBRANCH   8   9
ENDBRANCH   1   8
TORSDOF 7
ENDMDL
MODEL 2
REMARK VINA RESULT:      -5.8     10.571     11.585
REMARK  Name = 4290313
REMARK  7 active torsions:
REMARK  status: ('A' for Active; 'I' for Inactive)
REMARK    1  A    between atoms: S_1  and  C_4
REMARK    2  A    between atoms: S_1  and  C_8
REMARK    3  A    between atoms: C_4  and  C_5
REMARK    4  A    between atoms: C_5  and  C_6
REMARK    5  A    between atoms: C_8  and  C_9
REMARK    6  A    between atoms: C_9  and  C_11
REMARK    7  A    between atoms: C_11  and  O_12
REMARK                            x       y       z     vdW  Elec       q    Type
REMARK                         _______ _______ _______ _____ _____    ______ ____
ROOT
ATOM      1  S   UNL     1      35.022 -18.472 -21.451  0.00  0.00    -0.009 S 
ATOM      2  O   UNL     1      34.078 -17.369 -21.386  0.00  0.00    -0.173 OA
ATOM      3  O   UNL     1      36.073 -18.603 -20.456  0.00  0.00    -0.173 OA
ENDROOT
BRANCH   1   4
ATOM      4  C   UNL     1      34.107 -19.980 -21.491  0.00  0.00    +0.151 C 
BRANCH   4   5
ATOM      5  C   UNL     1      33.085 -20.039 -20.367  0.00  0.00    +0.025 C 
BRANCH   5   6
ATOM      6  C   UNL     1      33.239 -21.317 -19.543  0.00  0.00    +0.002 C 
ATOM      7  C   UNL     1      34.702 -21.682 -19.348  0.00  0.00    +0.000 C 
ENDBRANCH   5   6
ENDBRANCH   4   5
ENDBRANCH   1   4
BRANCH   1   8
ATOM      8  C   UNL     1      35.800 -18.419 -23.049  0.00  0.00    +0.162 C 
BRANCH   8   9
ATOM      9  C   UNL     1      34.801 -18.172 -24.168  0.00  0.00    +0.135 C 
BRANCH   9  11
ATOM     10  O   UNL     1      34.557 -16.446 -25.874  0.00  0.00    -0.250 OA
ATOM     11  C   UNL     1      34.901 -16.784 -24.752  0.00  0.00    +0.316 C 
BRANCH  11  12
ATOM     12  O   UNL     1      35.413 -15.927 -23.831  0.00  0.00    -0.480 OA
ATOM     13  H   UNL     1      34.947 -15.763 -23.034  0.00  0.00    +0.295 HD
ENDBRANCH  11  12
ENDBRANCH   9  11
ENDBRANCH   8   9
ENDBRANCH   1   8
TORSDOF 7
ENDMDL
MODEL 3
REMARK VINA RESULT:      -5.8      2.025      2.816
REMARK  Name = 4290313
REMARK  7 active torsions:
REMARK  status: ('A' for Active; 'I' for Inactive)
REMARK    1  A    between atoms: S_1  and  C_4
REMARK    2  A    between atoms: S_1  and  C_8
REMARK    3  A    between atoms: C_4  and  C_5
REMARK    4  A    between atoms: C_5  and  C_6
REMARK    5  A    between atoms: C_8  and  C_9
REMARK    6  A    between atoms: C_9  and  C_11
REMARK    7  A    between atoms: C_11  and  O_12
REMARK                            x       y       z     vdW  Elec       q    Type
REMARK                         _______ _______ _______ _____ _____    ______ ____
ROOT
ATOM      1  S   UNL     1      37.819 -24.181 -12.180  0.00  0.00    -0.009 S 
ATOM      2  O   UNL     1      38.790 -23.219 -11.684  0.00  0.00    -0.173 OA
ATOM      3  O   UNL     1      36.790 -24.711 -11.301  0.00  0.00    -0.173 OA
ENDROOT
BRANCH   1   4
ATOM      4  C   UNL     1      37.032 -23.488 -13.599  0.00  0.00    +0.151 C 
BRANCH   4   5
ATOM      5  C   UNL     1      35.545 -23.809 -13.621  0.00  0.00    +0.025 C 
BRANCH   5   6
ATOM      6  C   UNL     1      35.080 -24.190 -15.025  0.00  0.00    +0.002 C 
ATOM      7  C   UNL     1      35.157 -23.008 -15.978  0.00  0.00    +0.000 C 
ENDBRANCH   5   6
ENDBRANCH   4   5
ENDBRANCH   1   4
BRANCH   1   8
ATOM      8  C   UNL     1      38.722 -25.561 -12.842  0.00  0.00    +0.162 C 
BRANCH   8   9
ATOM      9  C   UNL     1      38.953 -25.435 -14.340  0.00  0.00    +0.135 C 
BRANCH   9  11
ATOM     10  O   UNL     1      41.141 -26.474 -14.056  0.00  0.00    -0.250 OA
ATOM     11  C   UNL     1      40.283 -25.994 -14.781  0.00  0.00    +0.316 C 
BRANCH  11  12
ATOM     12  O   UNL     1      40.396 -25.917 -16.133  0.00  0.00    -0.480 OA
ATOM     13  H   UNL     1      39.894 -26.490 -16.678  0.00  0.00    +0.295 HD
ENDBRANCH  11  12
ENDBRANCH   9  11
ENDBRANCH   8   9
ENDBRANCH   1   8
TORSDOF 7
ENDMDL
MODEL 4
REMARK VINA RESULT:      -5.7      2.166      2.771
REMARK  Name = 4290313
REMARK  7 active torsions:
REMARK  status: ('A' for Active; 'I' for Inactive)
REMARK    1  A    between atoms: S_1  and  C_4
REMARK    2  A    between atoms: S_1  and  C_8
REMARK    3  A    between atoms: C_4  and  C_5
REMARK    4  A    between atoms: C_5  and  C_6
REMARK    5  A    between atoms: C_8  and  C_9
REMARK    6  A    between atoms: C_9  and  C_11
REMARK    7  A    between atoms: C_11  and  O_12
REMARK                            x       y       z     vdW  Elec       q    Type
REMARK                         _______ _______ _______ _____ _____    ______ ____
ROOT
ATOM      1  S   UNL     1      36.499 -24.950 -14.489  0.00  0.00    -0.009 S 
ATOM      2  O   UNL     1      35.707 -24.770 -13.284  0.00  0.00    -0.173 OA
ATOM      3  O   UNL     1      35.922 -25.582 -15.664  0.00  0.00    -0.173 OA
ENDROOT
BRANCH   1   4
ATOM      4  C   UNL     1      37.143 -23.379 -14.965  0.00  0.00    +0.151 C 
BRANCH   4   5
ATOM      5  C   UNL     1      36.293 -22.736 -16.050  0.00  0.00    +0.025 C 
BRANCH   5   6
ATOM      6  C   UNL     1      37.094 -21.710 -16.849  0.00  0.00    +0.002 C 
ATOM      7  C   UNL     1      36.598 -21.608 -18.283  0.00  0.00    +0.000 C 
ENDBRANCH   5   6
ENDBRANCH   4   5
ENDBRANCH   1   4
BRANCH   1   8
ATOM      8  C   UNL     1      37.952 -25.873 -14.042  0.00  0.00    +0.162 C 
BRANCH   8   9
ATOM      9  C   UNL     1      39.232 -25.098 -14.308  0.00  0.00    +0.135 C 
BRANCH   9  11
ATOM     10  O   UNL     1      41.100 -26.630 -13.973  0.00  0.00    -0.250 OA
ATOM     11  C   UNL     1      40.383 -25.983 -14.720  0.00  0.00    +0.316 C 
BRANCH  11  12
ATOM     12  O   UNL     1      40.506 -25.988 -16.073  0.00  0.00    -0.480 OA
ATOM     13  H   UNL     1      39.928 -26.511 -16.594  0.00  0.00    +0.295 HD
ENDBRANCH  11  12
ENDBRANCH   9  11
ENDBRANCH   8   9
ENDBRANCH   1   8
TORSDOF 7
ENDMDL
MODEL 5
REMARK VINA RESULT:      -5.7      2.750      4.350
REMARK  Name = 4290313
REMARK  7 active torsions:
REMARK  status: ('A' for Active; 'I' for Inactive)
REMARK    1  A    between atoms: S_1  and  C_4
REMARK    2  A    between atoms: S_1  and  C_8
REMARK    3  A    between atoms: C_4  and  C_5
REMARK    4  A    between atoms: C_5  and  C_6
REMARK    5  A    between atoms: C_8  and  C_9
REMARK    6  A    between atoms: C_9  and  C_11
REMARK    7  A    between atoms: C_11  and  O_12
REMARK                            x       y       z     vdW  Elec       q    Type
REMARK                         _______ _______ _______ _____ _____    ______ ____
ROOT
ATOM      1  S   UNL     1      38.169 -25.558 -13.961  0.00  0.00    -0.009 S 
ATOM      2  O   UNL     1      38.461 -26.854 -14.550  0.00  0.00    -0.173 OA
ATOM      3  O   UNL     1      39.246 -24.644 -13.617  0.00  0.00    -0.173 OA
ENDROOT
BRANCH   1   4
ATOM      4  C   UNL     1      37.041 -24.711 -15.020  0.00  0.00    +0.151 C 
BRANCH   4   5
ATOM      5  C   UNL     1      37.600 -23.369 -15.467  0.00  0.00    +0.025 C 
BRANCH   5   6
ATOM      6  C   UNL     1      36.495 -22.454 -15.992  0.00  0.00    +0.002 C 
ATOM      7  C   UNL     1      36.891 -21.799 -17.305  0.00  0.00    +0.000 C 
ENDBRANCH   5   6
ENDBRANCH   4   5
ENDBRANCH   1   4
BRANCH   1   8
ATOM      8  C   UNL     1      37.216 -25.841 -12.487  0.00  0.00    +0.162 C 
BRANCH   8   9
ATOM      9  C   UNL     1      36.231 -24.717 -12.211  0.00  0.00    +0.135 C 
BRANCH   9  11
ATOM     10  O   UNL     1      37.427 -22.816 -11.260  0.00  0.00    -0.250 OA
ATOM     11  C   UNL     1      36.693 -23.782 -11.121  0.00  0.00    +0.316 C 
BRANCH  11  12
ATOM     12  O   UNL     1      36.149 -24.148  -9.931  0.00  0.00    -0.480 OA
ATOM     13  H   UNL     1      36.677 -24.574  -9.285  0.00  0.00    +0.295 HD
ENDBRANCH  11  12
ENDBRANCH   9  11
ENDBRANCH   8   9
ENDBRANCH   1   8
TORSDOF 7
ENDMDL
MODEL 6
REMARK VINA RESULT:      -5.7      9.848     11.140
REMARK  Name = 4290313
REMARK  7 active torsions:
REMARK  status: ('A' for Active; 'I' for Inactive)
REMARK    1  A    between atoms: S_1  and  C_4
REMARK    2  A    between atoms: S_1  and  C_8
REMARK    3  A    between atoms: C_4  and  C_5
REMARK    4  A    between atoms: C_5  and  C_6
REMARK    5  A    between atoms: C_8  and  C_9
REMARK    6  A    between atoms: C_9  and  C_11
REMARK    7  A    between atoms: C_11  and  O_12
REMARK                            x       y       z     vdW  Elec       q    Type
REMARK                         _______ _______ _______ _____ _____    ______ ____
ROOT
ATOM      1  S   UNL     1      34.889 -18.307 -21.391  0.00  0.00    -0.009 S 
ATOM      2  O   UNL     1      35.930 -18.618 -20.426  0.00  0.00    -0.173 OA
ATOM      3  O   UNL     1      34.000 -17.177 -21.179  0.00  0.00    -0.173 OA
ENDROOT
BRANCH   1   4
ATOM      4  C   UNL     1      35.642 -18.129 -22.977  0.00  0.00    +0.151 C 
BRANCH   4   5
ATOM      5  C   UNL     1      34.979 -19.028 -24.009  0.00  0.00    +0.025 C 
BRANCH   5   6
ATOM      6  C   UNL     1      34.348 -18.210 -25.135  0.00  0.00    +0.002 C 
ATOM      7  C   UNL     1      34.681 -16.733 -25.005  0.00  0.00    +0.000 C 
ENDBRANCH   5   6
ENDBRANCH   4   5
ENDBRANCH   1   4
BRANCH   1   8
ATOM      8  C   UNL     1      33.878 -19.758 -21.575  0.00  0.00    +0.162 C 
BRANCH   8   9
ATOM      9  C   UNL     1      33.058 -20.052 -20.330  0.00  0.00    +0.135 C 
BRANCH   9  11
ATOM     10  O   UNL     1      32.811 -22.202 -19.205  0.00  0.00    -0.250 OA
ATOM     11  C   UNL     1      33.520 -21.287 -19.597  0.00  0.00    +0.316 C 
BRANCH  11  12
ATOM     12  O   UNL     1      34.870 -21.264 -19.449  0.00  0.00    -0.480 OA
ATOM     13  H   UNL     1      35.247 -21.035 -18.623  0.00  0.00    +0.295 HD
ENDBRANCH  11  12
ENDBRANCH   9  11
ENDBRANCH   8   9
ENDBRANCH   1   8
TORSDOF 7
ENDMDL
MODEL 7
REMARK VINA RESULT:      -5.7     11.835     12.971
REMARK  Name = 4290313
REMARK  7 active torsions:
REMARK  status: ('A' for Active; 'I' for Inactive)
REMARK    1  A    between atoms: S_1  and  C_4
REMARK    2  A    between atoms: S_1  and  C_8
REMARK    3  A    between atoms: C_4  and  C_5
REMARK    4  A    between atoms: C_5  and  C_6
REMARK    5  A    between atoms: C_8  and  C_9
REMARK    6  A    between atoms: C_9  and  C_11
REMARK    7  A    between atoms: C_11  and  O_12
REMARK                            x       y       z     vdW  Elec       q    Type
REMARK                         _______ _______ _______ _____ _____    ______ ____
ROOT
ATOM      1  S   UNL     1      34.358 -15.983 -21.176  0.00  0.00    -0.009 S 
ATOM      2  O   UNL     1      32.935 -16.282 -21.172  0.00  0.00    -0.173 OA
ATOM      3  O   UNL     1      34.936 -15.132 -20.150  0.00  0.00    -0.173 OA
ENDROOT
BRANCH   1   4
ATOM      4  C   UNL     1      35.242 -17.509 -21.193  0.00  0.00    +0.151 C 
BRANCH   4   5
ATOM      5  C   UNL     1      34.401 -18.631 -21.783  0.00  0.00    +0.025 C 
BRANCH   5   6
ATOM      6  C   UNL     1      34.315 -19.822 -20.829  0.00  0.00    +0.002 C 
ATOM      7  C   UNL     1      32.878 -20.112 -20.427  0.00  0.00    +0.000 C 
ENDBRANCH   5   6
ENDBRANCH   4   5
ENDBRANCH   1   4
BRANCH   1   8
ATOM      8  C   UNL     1      34.750 -15.263 -22.754  0.00  0.00    +0.162 C 
BRANCH   8   9
ATOM      9  C   UNL     1      33.670 -15.524 -23.792  0.00  0.00    +0.135 C 
BRANCH   9  11
ATOM     10  O   UNL     1      33.780 -15.979 -26.185  0.00  0.00    -0.250 OA
ATOM     11  C   UNL     1      34.204 -16.156 -25.053  0.00  0.00    +0.316 C 
BRANCH  11  12
ATOM     12  O   UNL     1      35.267 -16.951 -24.763  0.00  0.00    -0.480 OA
ATOM     13  H   UNL     1      35.436 -17.201 -23.876  0.00  0.00    +0.295 HD
ENDBRANCH  11  12
ENDBRANCH   9  11
ENDBRANCH   8   9
ENDBRANCH   1   8
TORSDOF 7
ENDMDL
MODEL 8
REMARK VINA RESULT:      -5.6     11.369     12.351
REMARK  Name = 4290313
REMARK  7 active torsions:
REMARK  status: ('A' for Active; 'I' for Inactive)
REMARK    1  A    between atoms: S_1  and  C_4
REMARK    2  A    between atoms: S_1  and  C_8
REMARK    3  A    between atoms: C_4  and  C_5
REMARK    4  A    between atoms: C_5  and  C_6
REMARK    5  A    between atoms: C_8  and  C_9
REMARK    6  A    between atoms: C_9  and  C_11
REMARK    7  A    between atoms: C_11  and  O_12
REMARK                            x       y       z     vdW  Elec       q    Type
REMARK                         _______ _______ _______ _____ _____    ______ ____
ROOT
ATOM      1  S   UNL     1      34.943 -18.699 -21.515  0.00  0.00    -0.009 S 
ATOM      2  O   UNL     1      35.989 -18.702 -20.506  0.00  0.00    -0.173 OA
ATOM      3  O   UNL     1      34.031 -19.823 -21.637  0.00  0.00    -0.173 OA
ENDROOT
BRANCH   1   4
ATOM      4  C   UNL     1      33.988 -17.230 -21.314  0.00  0.00    +0.151 C 
BRANCH   4   5
ATOM      5  C   UNL     1      34.820 -16.103 -20.721  0.00  0.00    +0.025 C 
BRANCH   5   6
ATOM      6  C   UNL     1      34.085 -14.766 -20.804  0.00  0.00    +0.002 C 
ATOM      7  C   UNL     1      32.642 -14.894 -20.344  0.00  0.00    +0.000 C 
ENDBRANCH   5   6
ENDBRANCH   4   5
ENDBRANCH   1   4
BRANCH   1   8
ATOM      8  C   UNL     1      35.725 -18.468 -23.095  0.00  0.00    +0.162 C 
BRANCH   8   9
ATOM      9  C   UNL     1      34.716 -18.251 -24.212  0.00  0.00    +0.135 C 
BRANCH   9  11
ATOM     10  O   UNL     1      34.336 -16.560 -25.928  0.00  0.00    -0.250 OA
ATOM     11  C   UNL     1      34.852 -16.902 -24.875  0.00  0.00    +0.316 C 
BRANCH  11  12
ATOM     12  O   UNL     1      35.622 -16.083 -24.113  0.00  0.00    -0.480 OA
ATOM     13  H   UNL     1      35.518 -16.075 -23.182  0.00  0.00    +0.295 HD
ENDBRANCH  11  12
ENDBRANCH   9  11
ENDBRANCH   8   9
ENDBRANCH   1   8
TORSDOF 7
ENDMDL
MODEL 9
REMARK VINA RESULT:      -5.5      2.115      2.639
REMARK  Name = 4290313
REMARK  7 active torsions:
REMARK  status: ('A' for Active; 'I' for Inactive)
REMARK    1  A    between atoms: S_1  and  C_4
REMARK    2  A    between atoms: S_1  and  C_8
REMARK    3  A    between atoms: C_4  and  C_5
REMARK    4  A    between atoms: C_5  and  C_6
REMARK    5  A    between atoms: C_8  and  C_9
REMARK    6  A    between atoms: C_9  and  C_11
REMARK    7  A    between atoms: C_11  and  O_12
REMARK                            x       y       z     vdW  Elec       q    Type
REMARK                         _______ _______ _______ _____ _____    ______ ____
ROOT
ATOM      1  S   UNL     1      37.575 -23.633 -14.914  0.00  0.00    -0.009 S 
ATOM      2  O   UNL     1      38.447 -23.082 -15.938  0.00  0.00    -0.173 OA
ATOM      3  O   UNL     1      37.577 -23.085 -13.569  0.00  0.00    -0.173 OA
ENDROOT
BRANCH   1   4
ATOM      4  C   UNL     1      35.920 -23.599 -15.524  0.00  0.00    +0.151 C 
BRANCH   4   5
ATOM      5  C   UNL     1      35.082 -24.716 -14.920  0.00  0.00    +0.025 C 
BRANCH   5   6
ATOM      6  C   UNL     1      34.156 -24.187 -13.826  0.00  0.00    +0.002 C 
ATOM      7  C   UNL     1      32.809 -23.767 -14.391  0.00  0.00    +0.000 C 
ENDBRANCH   5   6
ENDBRANCH   4   5
ENDBRANCH   1   4
BRANCH   1   8
ATOM      8  C   UNL     1      37.930 -25.370 -14.787  0.00  0.00    +0.162 C 
BRANCH   8   9
ATOM      9  C   UNL     1      39.111 -25.652 -13.872  0.00  0.00    +0.135 C 
BRANCH   9  11
ATOM     10  O   UNL     1      41.298 -26.695 -14.153  0.00  0.00    -0.250 OA
ATOM     11  C   UNL     1      40.346 -26.089 -14.621  0.00  0.00    +0.316 C 
BRANCH  11  12
ATOM     12  O   UNL     1      40.249 -25.734 -15.929  0.00  0.00    -0.480 OA
ATOM     13  H   UNL     1      39.992 -26.369 -16.568  0.00  0.00    +0.295 HD
ENDBRANCH  11  12
ENDBRANCH   9  11
ENDBRANCH   8   9
ENDBRANCH   1   8
TORSDOF 7
ENDMDL
