MODEL 1
REMARK VINA RESULT:      -7.7      0.000      0.000
REMARK  Name = 31388
REMARK  2 active torsions:
REMARK  status: ('A' for Active; 'I' for Inactive)
REMARK    1  A    between atoms: C_1  and  S_8
REMARK    2  A    between atoms: S_8  and  N_12
REMARK                            x       y       z     vdW  Elec       q    Type
REMARK                         _______ _______ _______ _____ _____    ______ ____
ROOT
ATOM      1  C   UNL     1      34.255 -21.362 -19.653  0.00  0.00    +0.123 C 
ATOM      2  C   UNL     1      34.727 -19.113 -21.237  0.00  0.00    -0.022 C 
ATOM      3  C   UNL     1      35.563 -20.988 -19.964  0.00  0.00    +0.020 C 
ATOM      4  C   UNL     1      33.183 -20.609 -20.134  0.00  0.00    +0.020 C 
ATOM      5  C   UNL     1      35.799 -19.865 -20.756  0.00  0.00    -0.003 C 
ATOM      6  C   UNL     1      33.419 -19.485 -20.926  0.00  0.00    -0.003 C 
ATOM      7  C   UNL     1      34.979 -17.911 -22.083  0.00  0.00    +0.031 C 
ENDROOT
BRANCH   1   8
ATOM      8  S   UNL     1      33.959 -22.770 -18.665  0.00  0.00    +0.073 S 
ATOM      9  O   UNL     1      34.874 -22.742 -17.530  0.00  0.00    -0.152 OA
ATOM     10  O   UNL     1      33.938 -23.935 -19.538  0.00  0.00    -0.152 OA
BRANCH   8  12
ATOM     11 CL   UNL     1      31.949 -23.164 -16.599  0.00  0.00    -0.002 Cl
ATOM     12  N   UNL     1      32.378 -22.457 -18.101  0.00  0.00    -0.101 NA
ATOM     13  H   UNL     1      32.275 -21.446 -18.008  0.00  0.00    +0.168 HD
ENDBRANCH   8  12
ENDBRANCH   1   8
TORSDOF 2
ENDMDL
MODEL 2
REMARK VINA RESULT:      -7.6      1.299      1.488
REMARK  Name = 31388
REMARK  2 active torsions:
REMARK  status: ('A' for Active; 'I' for Inactive)
REMARK    1  A    between atoms: C_1  and  S_8
REMARK    2  A    between atoms: S_8  and  N_12
REMARK                            x       y       z     vdW  Elec       q    Type
REMARK                         _______ _______ _______ _____ _____    ______ ____
ROOT
ATOM      1  C   UNL     1      34.235 -21.368 -19.657  0.00  0.00    +0.123 C 
ATOM      2  C   UNL     1      35.009 -19.146 -21.156  0.00  0.00    -0.022 C 
ATOM      3  C   UNL     1      35.588 -21.078 -19.828  0.00  0.00    +0.020 C 
ATOM      4  C   UNL     1      33.267 -20.546 -20.236  0.00  0.00    +0.020 C 
ATOM      5  C   UNL     1      35.975 -19.968 -20.578  0.00  0.00    -0.003 C 
ATOM      6  C   UNL     1      33.655 -19.434 -20.985  0.00  0.00    -0.003 C 
ATOM      7  C   UNL     1      35.422 -17.958 -21.958  0.00  0.00    +0.031 C 
ENDROOT
BRANCH   1   8
ATOM      8  S   UNL     1      33.750 -22.759 -18.720  0.00  0.00    +0.073 S 
ATOM      9  O   UNL     1      33.937 -23.955 -19.533  0.00  0.00    -0.152 OA
ATOM     10  O   UNL     1      32.439 -22.480 -18.149  0.00  0.00    -0.152 OA
BRANCH   8  12
ATOM     11 CL   UNL     1      34.391 -23.254 -15.926  0.00  0.00    -0.002 Cl
ATOM     12  N   UNL     1      34.921 -22.753 -17.478  0.00  0.00    -0.101 NA
ATOM     13  H   UNL     1      35.679 -23.374 -17.762  0.00  0.00    +0.168 HD
ENDBRANCH   8  12
ENDBRANCH   1   8
TORSDOF 2
ENDMDL
MODEL 3
REMARK VINA RESULT:      -7.2      4.883      5.366
REMARK  Name = 31388
REMARK  2 active torsions:
REMARK  status: ('A' for Active; 'I' for Inactive)
REMARK    1  A    between atoms: C_1  and  S_8
REMARK    2  A    between atoms: S_8  and  N_12
REMARK                            x       y       z     vdW  Elec       q    Type
REMARK                         _______ _______ _______ _____ _____    ______ ____
ROOT
ATOM      1  C   UNL     1      34.718 -19.648 -21.077  0.00  0.00    +0.123 C 
ATOM      2  C   UNL     1      33.944 -21.634 -19.277  0.00  0.00    -0.022 C 
ATOM      3  C   UNL     1      35.681 -20.454 -20.471  0.00  0.00    +0.020 C 
ATOM      4  C   UNL     1      33.366 -19.835 -20.784  0.00  0.00    +0.020 C 
ATOM      5  C   UNL     1      35.294 -21.446 -19.571  0.00  0.00    -0.003 C 
ATOM      6  C   UNL     1      32.980 -20.829 -19.884  0.00  0.00    -0.003 C 
ATOM      7  C   UNL     1      33.529 -22.696 -18.315  0.00  0.00    +0.031 C 
ENDROOT
BRANCH   1   8
ATOM      8  S   UNL     1      35.202 -18.403 -22.202  0.00  0.00    +0.073 S 
ATOM      9  O   UNL     1      36.658 -18.344 -22.232  0.00  0.00    -0.152 OA
ATOM     10  O   UNL     1      34.443 -17.199 -21.892  0.00  0.00    -0.152 OA
BRANCH   8  12
ATOM     11 CL   UNL     1      34.594 -17.979 -25.015  0.00  0.00    -0.002 Cl
ATOM     12  N   UNL     1      34.649 -19.054 -23.680  0.00  0.00    -0.101 NA
ATOM     13  H   UNL     1      35.267 -19.827 -23.930  0.00  0.00    +0.168 HD
ENDBRANCH   8  12
ENDBRANCH   1   8
TORSDOF 2
ENDMDL
MODEL 4
REMARK VINA RESULT:      -7.1      4.464      5.080
REMARK  Name = 31388
REMARK  2 active torsions:
REMARK  status: ('A' for Active; 'I' for Inactive)
REMARK    1  A    between atoms: C_1  and  S_8
REMARK    2  A    between atoms: S_8  and  N_12
REMARK                            x       y       z     vdW  Elec       q    Type
REMARK                         _______ _______ _______ _____ _____    ______ ____
ROOT
ATOM      1  C   UNL     1      34.685 -19.825 -21.095  0.00  0.00    +0.123 C 
ATOM      2  C   UNL     1      33.853 -21.691 -19.195  0.00  0.00    -0.022 C 
ATOM      3  C   UNL     1      35.621 -20.642 -20.463  0.00  0.00    +0.020 C 
ATOM      4  C   UNL     1      33.330 -19.941 -20.778  0.00  0.00    +0.020 C 
ATOM      5  C   UNL     1      35.206 -21.574 -19.513  0.00  0.00    -0.003 C 
ATOM      6  C   UNL     1      32.915 -20.875 -19.827  0.00  0.00    -0.003 C 
ATOM      7  C   UNL     1      33.408 -22.689 -18.180  0.00  0.00    +0.031 C 
ENDROOT
BRANCH   1   8
ATOM      8  S   UNL     1      35.204 -18.655 -22.283  0.00  0.00    +0.073 S 
ATOM      9  O   UNL     1      34.824 -19.135 -23.605  0.00  0.00    -0.152 OA
ATOM     10  O   UNL     1      36.599 -18.331 -22.013  0.00  0.00    -0.152 OA
BRANCH   8  12
ATOM     11 CL   UNL     1      34.848 -16.238 -20.703  0.00  0.00    -0.002 Cl
ATOM     12  N   UNL     1      34.225 -17.315 -21.884  0.00  0.00    -0.101 NA
ATOM     13  H   UNL     1      34.066 -16.780 -22.738  0.00  0.00    +0.168 HD
ENDBRANCH   8  12
ENDBRANCH   1   8
TORSDOF 2
ENDMDL
MODEL 5
REMARK VINA RESULT:      -6.7      4.152      5.501
REMARK  Name = 31388
REMARK  2 active torsions:
REMARK  status: ('A' for Active; 'I' for Inactive)
REMARK    1  A    between atoms: C_1  and  S_8
REMARK    2  A    between atoms: S_8  and  N_12
REMARK                            x       y       z     vdW  Elec       q    Type
REMARK                         _______ _______ _______ _____ _____    ______ ____
ROOT
ATOM      1  C   UNL     1      33.214 -23.046 -17.358  0.00  0.00    +0.123 C 
ATOM      2  C   UNL     1      31.999 -23.314 -14.861  0.00  0.00    -0.022 C 
ATOM      3  C   UNL     1      33.980 -23.381 -16.241  0.00  0.00    +0.020 C 
ATOM      4  C   UNL     1      31.839 -22.846 -17.226  0.00  0.00    +0.020 C 
ATOM      5  C   UNL     1      33.373 -23.514 -14.993  0.00  0.00    -0.003 C 
ATOM      6  C   UNL     1      31.232 -22.981 -15.977  0.00  0.00    -0.003 C 
ATOM      7  C   UNL     1      31.348 -23.458 -13.526  0.00  0.00    +0.031 C 
ENDROOT
BRANCH   1   8
ATOM      8  S   UNL     1      33.974 -22.876 -18.921  0.00  0.00    +0.073 S 
ATOM      9  O   UNL     1      33.943 -24.168 -19.596  0.00  0.00    -0.152 OA
ATOM     10  O   UNL     1      35.251 -22.200 -18.728  0.00  0.00    -0.152 OA
BRANCH   8  12
ATOM     11 CL   UNL     1      33.532 -20.323 -20.242  0.00  0.00    -0.002 Cl
ATOM     12  N   UNL     1      32.888 -21.820 -19.708  0.00  0.00    -0.101 NA
ATOM     13  H   UNL     1      32.519 -22.307 -20.525  0.00  0.00    +0.168 HD
ENDBRANCH   8  12
ENDBRANCH   1   8
TORSDOF 2
ENDMDL
MODEL 6
REMARK VINA RESULT:      -6.7      4.918      5.741
REMARK  Name = 31388
REMARK  2 active torsions:
REMARK  status: ('A' for Active; 'I' for Inactive)
REMARK    1  A    between atoms: C_1  and  S_8
REMARK    2  A    between atoms: S_8  and  N_12
REMARK                            x       y       z     vdW  Elec       q    Type
REMARK                         _______ _______ _______ _____ _____    ______ ____
ROOT
ATOM      1  C   UNL     1      34.874 -17.198 -23.153  0.00  0.00    +0.123 C 
ATOM      2  C   UNL     1      33.747 -15.702 -25.220  0.00  0.00    -0.022 C 
ATOM      3  C   UNL     1      34.407 -15.908 -22.906  0.00  0.00    +0.020 C 
ATOM      4  C   UNL     1      34.777 -17.742 -24.434  0.00  0.00    +0.020 C 
ATOM      5  C   UNL     1      33.844 -15.160 -23.939  0.00  0.00    -0.003 C 
ATOM      6  C   UNL     1      34.213 -16.993 -25.468  0.00  0.00    -0.003 C 
ATOM      7  C   UNL     1      33.143 -14.903 -26.326  0.00  0.00    +0.031 C 
ENDROOT
BRANCH   1   8
ATOM      8  S   UNL     1      35.582 -18.135 -21.860  0.00  0.00    +0.073 S 
ATOM      9  O   UNL     1      35.318 -17.457 -20.597  0.00  0.00    -0.152 OA
ATOM     10  O   UNL     1      36.956 -18.446 -22.232  0.00  0.00    -0.152 OA
BRANCH   8  12
ATOM     11 CL   UNL     1      33.371 -19.687 -20.780  0.00  0.00    -0.002 Cl
ATOM     12  N   UNL     1      34.642 -19.559 -21.924  0.00  0.00    -0.101 NA
ATOM     13  H   UNL     1      34.228 -19.616 -22.855  0.00  0.00    +0.168 HD
ENDBRANCH   8  12
ENDBRANCH   1   8
TORSDOF 2
ENDMDL
MODEL 7
REMARK VINA RESULT:      -6.6      5.584      6.075
REMARK  Name = 31388
REMARK  2 active torsions:
REMARK  status: ('A' for Active; 'I' for Inactive)
REMARK    1  A    between atoms: C_1  and  S_8
REMARK    2  A    between atoms: S_8  and  N_12
REMARK                            x       y       z     vdW  Elec       q    Type
REMARK                         _______ _______ _______ _____ _____    ______ ____
ROOT
ATOM      1  C   UNL     1      34.757 -17.998 -21.263  0.00  0.00    +0.123 C 
ATOM      2  C   UNL     1      35.072 -20.596 -20.298  0.00  0.00    -0.022 C 
ATOM      3  C   UNL     1      33.636 -18.783 -20.995  0.00  0.00    +0.020 C 
ATOM      4  C   UNL     1      36.036 -18.512 -21.048  0.00  0.00    +0.020 C 
ATOM      5  C   UNL     1      33.794 -20.082 -20.513  0.00  0.00    -0.003 C 
ATOM      6  C   UNL     1      36.194 -19.811 -20.565  0.00  0.00    -0.003 C 
ATOM      7  C   UNL     1      35.241 -21.985 -19.781  0.00  0.00    +0.031 C 
ENDROOT
BRANCH   1   8
ATOM      8  S   UNL     1      34.561 -16.372 -21.870  0.00  0.00    +0.073 S 
ATOM      9  O   UNL     1      35.096 -15.441 -20.885  0.00  0.00    -0.152 OA
ATOM     10  O   UNL     1      33.183 -16.225 -22.320  0.00  0.00    -0.152 OA
BRANCH   8  12
ATOM     11 CL   UNL     1      34.964 -17.078 -24.663  0.00  0.00    -0.002 Cl
ATOM     12  N   UNL     1      35.599 -16.393 -23.225  0.00  0.00    -0.101 NA
ATOM     13  H   UNL     1      35.861 -15.428 -23.431  0.00  0.00    +0.168 HD
ENDBRANCH   8  12
ENDBRANCH   1   8
TORSDOF 2
ENDMDL
MODEL 8
REMARK VINA RESULT:      -6.6      6.635      7.724
REMARK  Name = 31388
REMARK  2 active torsions:
REMARK  status: ('A' for Active; 'I' for Inactive)
REMARK    1  A    between atoms: C_1  and  S_8
REMARK    2  A    between atoms: S_8  and  N_12
REMARK                            x       y       z     vdW  Elec       q    Type
REMARK                         _______ _______ _______ _____ _____    ______ ____
ROOT
ATOM      1  C   UNL     1      35.685 -23.866 -12.944  0.00  0.00    +0.123 C 
ATOM      2  C   UNL     1      34.498 -23.415 -15.428  0.00  0.00    -0.022 C 
ATOM      3  C   UNL     1      34.365 -24.254 -13.166  0.00  0.00    +0.020 C 
ATOM      4  C   UNL     1      36.413 -23.252 -13.964  0.00  0.00    +0.020 C 
ATOM      5  C   UNL     1      33.771 -24.029 -14.408  0.00  0.00    -0.003 C 
ATOM      6  C   UNL     1      35.819 -23.027 -15.206  0.00  0.00    -0.003 C 
ATOM      7  C   UNL     1      33.863 -23.175 -16.756  0.00  0.00    +0.031 C 
ENDROOT
BRANCH   1   8
ATOM      8  S   UNL     1      36.429 -24.145 -11.389  0.00  0.00    +0.073 S 
ATOM      9  O   UNL     1      35.456 -24.791 -10.517  0.00  0.00    -0.152 OA
ATOM     10  O   UNL     1      37.057 -22.901 -10.962  0.00  0.00    -0.152 OA
BRANCH   8  12
ATOM     11 CL   UNL     1      37.207 -26.479 -12.941  0.00  0.00    -0.002 Cl
ATOM     12  N   UNL     1      37.639 -25.279 -11.795  0.00  0.00    -0.101 NA
ATOM     13  H   UNL     1      38.435 -24.763 -12.172  0.00  0.00    +0.168 HD
ENDBRANCH   8  12
ENDBRANCH   1   8
TORSDOF 2
ENDMDL
MODEL 9
REMARK VINA RESULT:      -6.5      4.246      5.111
REMARK  Name = 31388
REMARK  2 active torsions:
REMARK  status: ('A' for Active; 'I' for Inactive)
REMARK    1  A    between atoms: C_1  and  S_8
REMARK    2  A    between atoms: S_8  and  N_12
REMARK                            x       y       z     vdW  Elec       q    Type
REMARK                         _______ _______ _______ _____ _____    ______ ____
ROOT
ATOM      1  C   UNL     1      34.626 -17.055 -22.156  0.00  0.00    +0.123 C 
ATOM      2  C   UNL     1      34.157 -14.456 -23.055  0.00  0.00    -0.022 C 
ATOM      3  C   UNL     1      34.489 -16.013 -21.239  0.00  0.00    +0.020 C 
ATOM      4  C   UNL     1      34.528 -16.798 -23.524  0.00  0.00    +0.020 C 
ATOM      5  C   UNL     1      34.255 -14.714 -21.688  0.00  0.00    -0.003 C 
ATOM      6  C   UNL     1      34.293 -15.497 -23.973  0.00  0.00    -0.003 C 
ATOM      7  C   UNL     1      33.905 -13.067 -23.537  0.00  0.00    +0.031 C 
ENDROOT
BRANCH   1   8
ATOM      8  S   UNL     1      34.922 -18.682 -21.594  0.00  0.00    +0.073 S 
ATOM      9  O   UNL     1      35.965 -18.640 -20.576  0.00  0.00    -0.152 OA
ATOM     10  O   UNL     1      35.096 -19.535 -22.762  0.00  0.00    -0.152 OA
BRANCH   8  12
ATOM     11 CL   UNL     1      33.332 -20.577 -20.063  0.00  0.00    -0.002 Cl
ATOM     12  N   UNL     1      33.435 -19.052 -20.840  0.00  0.00    -0.101 NA
ATOM     13  H   UNL     1      33.256 -18.333 -20.138  0.00  0.00    +0.168 HD
ENDBRANCH   8  12
ENDBRANCH   1   8
TORSDOF 2
ENDMDL
