MODEL 1
REMARK VINA RESULT:      -6.6      0.000      0.000
REMARK  Name = 3034047
REMARK  0 active torsions:
REMARK  status: ('A' for Active; 'I' for Inactive)
REMARK                            x       y       z     vdW  Elec       q    Type
REMARK                         _______ _______ _______ _____ _____    ______ ____
ROOT
ATOM      1  S   UNL     1      37.204 -21.738 -15.889  0.00  0.00    -0.109 S 
ATOM      2  N   UNL     1      30.900 -24.224 -14.545  0.00  0.00    +0.389 N 
ATOM      3  C   UNL     1      31.306 -23.066 -15.367  0.00  0.00    -0.054 C 
ATOM      4  C   UNL     1      32.060 -24.402 -13.648  0.00  0.00    -0.054 C 
ATOM      5  C   UNL     1      31.941 -22.089 -14.368  0.00  0.00    -0.023 C 
ATOM      6  C   UNL     1      32.442 -22.977 -13.226  0.00  0.00    -0.023 C 
ATOM      7  C   UNL     1      32.338 -23.588 -16.395  0.00  0.00    +0.001 C 
ATOM      8  C   UNL     1      33.176 -25.070 -14.487  0.00  0.00    +0.001 C 
ATOM      9  C   UNL     1      33.515 -24.258 -15.719  0.00  0.00    -0.048 C 
ATOM     10  C   UNL     1      29.653 -23.993 -13.818  0.00  0.00    -0.100 C 
ATOM     11  C   UNL     1      34.776 -24.085 -16.139  0.00  0.00    -0.008 C 
ATOM     12  C   UNL     1      35.820 -24.803 -15.382  0.00  0.00    -0.004 C 
ATOM     13  C   UNL     1      35.055 -23.138 -17.250  0.00  0.00    +0.005 C 
ATOM     14  C   UNL     1      36.680 -24.080 -14.538  0.00  0.00    -0.011 C 
ATOM     15  C   UNL     1      36.056 -22.140 -17.220  0.00  0.00    +0.026 C 
ATOM     16  C   UNL     1      35.961 -26.194 -15.499  0.00  0.00    -0.000 C 
ATOM     17  C   UNL     1      34.295 -23.296 -18.433  0.00  0.00    +0.000 C 
ATOM     18  C   UNL     1      36.545 -22.587 -14.425  0.00  0.00    +0.088 C 
ATOM     19  C   UNL     1      37.674 -24.764 -13.825  0.00  0.00    -0.003 C 
ATOM     20  C   UNL     1      36.237 -21.330 -18.363  0.00  0.00    +0.006 C 
ATOM     21  C   UNL     1      36.953 -26.861 -14.780  0.00  0.00    -0.000 C 
ATOM     22  C   UNL     1      34.492 -22.482 -19.546  0.00  0.00    +0.000 C 
ATOM     23  C   UNL     1      37.808 -26.147 -13.945  0.00  0.00    -0.000 C 
ATOM     24  C   UNL     1      35.462 -21.494 -19.511  0.00  0.00    +0.001 C 
ATOM     25  H   UNL     1      30.691 -25.055 -15.098  0.00  0.00    -0.080 HD
ENDROOT
TORSDOF 0
ENDMDL
MODEL 2
REMARK VINA RESULT:      -5.1     14.648     17.748
REMARK  Name = 3034047
REMARK  0 active torsions:
REMARK  status: ('A' for Active; 'I' for Inactive)
REMARK                            x       y       z     vdW  Elec       q    Type
REMARK                         _______ _______ _______ _____ _____    ______ ____
ROOT
ATOM      1  S   UNL     1      31.201 -11.423 -22.588  0.00  0.00    -0.109 S 
ATOM      2  N   UNL     1      31.949  -4.590 -23.272  0.00  0.00    +0.389 N 
ATOM      3  C   UNL     1      31.144  -5.362 -22.304  0.00  0.00    -0.054 C 
ATOM      4  C   UNL     1      32.123  -5.549 -24.381  0.00  0.00    -0.054 C 
ATOM      5  C   UNL     1      30.092  -6.078 -23.164  0.00  0.00    -0.023 C 
ATOM      6  C   UNL     1      30.744  -6.202 -24.545  0.00  0.00    -0.023 C 
ATOM      7  C   UNL     1      32.105  -6.363 -21.621  0.00  0.00    +0.001 C 
ATOM      8  C   UNL     1      33.191  -6.571 -23.926  0.00  0.00    +0.001 C 
ATOM      9  C   UNL     1      32.804  -7.250 -22.630  0.00  0.00    -0.048 C 
ATOM     10  C   UNL     1      31.297  -3.351 -23.691  0.00  0.00    -0.100 C 
ATOM     11  C   UNL     1      32.998  -8.560 -22.419  0.00  0.00    -0.008 C 
ATOM     12  C   UNL     1      33.695  -9.295 -23.491  0.00  0.00    -0.004 C 
ATOM     13  C   UNL     1      32.440  -9.196 -21.198  0.00  0.00    +0.005 C 
ATOM     14  C   UNL     1      32.969 -10.187 -24.299  0.00  0.00    -0.011 C 
ATOM     15  C   UNL     1      31.689 -10.393 -21.190  0.00  0.00    +0.026 C 
ATOM     16  C   UNL     1      35.069  -9.116 -23.709  0.00  0.00    -0.000 C 
ATOM     17  C   UNL     1      32.738  -8.579 -19.960  0.00  0.00    +0.000 C 
ATOM     18  C   UNL     1      31.501 -10.398 -24.057  0.00  0.00    +0.088 C 
ATOM     19  C   UNL     1      33.635 -10.890 -25.314  0.00  0.00    -0.003 C 
ATOM     20  C   UNL     1      31.248 -10.908 -19.950  0.00  0.00    +0.006 C 
ATOM     21  C   UNL     1      35.717  -9.818 -24.724  0.00  0.00    -0.000 C 
ATOM     22  C   UNL     1      32.289  -9.105 -18.750  0.00  0.00    +0.000 C 
ATOM     23  C   UNL     1      35.001 -10.704 -25.524  0.00  0.00    -0.000 C 
ATOM     24  C   UNL     1      31.540 -10.270 -18.745  0.00  0.00    +0.001 C 
ATOM     25  H   UNL     1      32.834  -4.262 -22.885  0.00  0.00    -0.080 HD
ENDROOT
TORSDOF 0
ENDMDL
MODEL 3
REMARK VINA RESULT:      -5.0      2.080      4.967
REMARK  Name = 3034047
REMARK  0 active torsions:
REMARK  status: ('A' for Active; 'I' for Inactive)
REMARK                            x       y       z     vdW  Elec       q    Type
REMARK                         _______ _______ _______ _____ _____    ______ ____
ROOT
ATOM      1  S   UNL     1      33.780 -23.539 -18.802  0.00  0.00    -0.109 S 
ATOM      2  N   UNL     1      37.485 -25.056 -13.172  0.00  0.00    +0.389 N 
ATOM      3  C   UNL     1      37.932 -24.751 -14.547  0.00  0.00    -0.054 C 
ATOM      4  C   UNL     1      36.091 -25.496 -13.380  0.00  0.00    -0.054 C 
ATOM      5  C   UNL     1      37.377 -25.903 -15.396  0.00  0.00    -0.023 C 
ATOM      6  C   UNL     1      36.153 -26.398 -14.620  0.00  0.00    -0.023 C 
ATOM      7  C   UNL     1      37.297 -23.395 -14.934  0.00  0.00    +0.001 C 
ATOM      8  C   UNL     1      35.253 -24.222 -13.639  0.00  0.00    +0.001 C 
ATOM      9  C   UNL     1      35.788 -23.425 -14.809  0.00  0.00    -0.048 C 
ATOM     10  C   UNL     1      38.309 -26.071 -12.521  0.00  0.00    -0.100 C 
ATOM     11  C   UNL     1      34.983 -22.849 -15.714  0.00  0.00    -0.008 C 
ATOM     12  C   UNL     1      33.534 -22.959 -15.460  0.00  0.00    -0.004 C 
ATOM     13  C   UNL     1      35.572 -22.230 -16.930  0.00  0.00    +0.005 C 
ATOM     14  C   UNL     1      32.757 -23.815 -16.260  0.00  0.00    -0.011 C 
ATOM     15  C   UNL     1      35.118 -22.464 -18.248  0.00  0.00    +0.026 C 
ATOM     16  C   UNL     1      32.927 -22.220 -14.434  0.00  0.00    -0.000 C 
ATOM     17  C   UNL     1      36.622 -21.303 -16.733  0.00  0.00    +0.000 C 
ATOM     18  C   UNL     1      33.400 -24.593 -17.374  0.00  0.00    +0.088 C 
ATOM     19  C   UNL     1      31.379 -23.913 -16.021  0.00  0.00    -0.003 C 
ATOM     20  C   UNL     1      35.747 -21.779 -19.312  0.00  0.00    +0.006 C 
ATOM     21  C   UNL     1      31.556 -22.331 -14.205  0.00  0.00    -0.000 C 
ATOM     22  C   UNL     1      37.229 -20.642 -17.800  0.00  0.00    +0.000 C 
ATOM     23  C   UNL     1      30.784 -23.175 -14.998  0.00  0.00    -0.000 C 
ATOM     24  C   UNL     1      36.793 -20.884 -19.092  0.00  0.00    +0.001 C 
ATOM     25  H   UNL     1      37.563 -24.259 -12.540  0.00  0.00    -0.080 HD
ENDROOT
TORSDOF 0
ENDMDL
MODEL 4
REMARK VINA RESULT:      -3.7     10.220     13.846
REMARK  Name = 3034047
REMARK  0 active torsions:
REMARK  status: ('A' for Active; 'I' for Inactive)
REMARK                            x       y       z     vdW  Elec       q    Type
REMARK                         _______ _______ _______ _____ _____    ______ ____
ROOT
ATOM      1  S   UNL     1      34.086 -10.043 -23.650  0.00  0.00    -0.109 S 
ATOM      2  N   UNL     1      33.624 -16.610 -21.556  0.00  0.00    +0.389 N 
ATOM      3  C   UNL     1      33.548 -15.359 -20.775  0.00  0.00    -0.054 C 
ATOM      4  C   UNL     1      34.351 -16.185 -22.770  0.00  0.00    -0.054 C 
ATOM      5  C   UNL     1      34.940 -14.728 -20.921  0.00  0.00    -0.023 C 
ATOM      6  C   UNL     1      35.474 -15.278 -22.248  0.00  0.00    -0.023 C 
ATOM      7  C   UNL     1      32.451 -14.487 -21.431  0.00  0.00    +0.001 C 
ATOM      8  C   UNL     1      33.343 -15.403 -23.645  0.00  0.00    +0.001 C 
ATOM      9  C   UNL     1      32.734 -14.237 -22.897  0.00  0.00    -0.048 C 
ATOM     10  C   UNL     1      34.302 -17.686 -20.838  0.00  0.00    -0.100 C 
ATOM     11  C   UNL     1      32.529 -13.044 -23.472  0.00  0.00    -0.008 C 
ATOM     12  C   UNL     1      32.850 -12.950 -24.909  0.00  0.00    -0.004 C 
ATOM     13  C   UNL     1      32.091 -11.894 -22.639  0.00  0.00    +0.005 C 
ATOM     14  C   UNL     1      33.988 -12.233 -25.316  0.00  0.00    -0.011 C 
ATOM     15  C   UNL     1      32.686 -10.612 -22.665  0.00  0.00    +0.026 C 
ATOM     16  C   UNL     1      32.031 -13.564 -25.868  0.00  0.00    -0.000 C 
ATOM     17  C   UNL     1      30.964 -12.097 -21.808  0.00  0.00    +0.000 C 
ATOM     18  C   UNL     1      34.856 -11.556 -24.293  0.00  0.00    +0.088 C 
ATOM     19  C   UNL     1      34.286 -12.140 -26.683  0.00  0.00    -0.003 C 
ATOM     20  C   UNL     1      32.144  -9.597 -21.845  0.00  0.00    +0.006 C 
ATOM     21  C   UNL     1      32.343 -13.467 -27.224  0.00  0.00    -0.000 C 
ATOM     22  C   UNL     1      30.450 -11.081 -21.005  0.00  0.00    +0.000 C 
ATOM     23  C   UNL     1      33.469 -12.755 -27.630  0.00  0.00    -0.000 C 
ATOM     24  C   UNL     1      31.043  -9.829 -21.021  0.00  0.00    +0.001 C 
ATOM     25  H   UNL     1      32.709 -17.012 -21.759  0.00  0.00    -0.080 HD
ENDROOT
TORSDOF 0
ENDMDL
