MODEL 1
REMARK VINA RESULT:      -6.0      0.000      0.000
REMARK  Name = 529
REMARK  6 active torsions:
REMARK  status: ('A' for Active; 'I' for Inactive)
REMARK    1  A    between atoms: P_1  and  O_3
REMARK    2  A    between atoms: P_1  and  O_5
REMARK    3  A    between atoms: P_1  and  O_7
REMARK    4  A    between atoms: O_7  and  C_8
REMARK    5  A    between atoms: C_8  and  C_10
REMARK    6  A    between atoms: C_10  and  O_11
REMARK                            x       y       z     vdW  Elec       q    Type
REMARK                         _______ _______ _______ _____ _____    ______ ____
ROOT
ATOM      1  P   UNL     1      39.969 -25.906 -14.597  0.00  0.00    +0.474 P 
ATOM      2  O   UNL     1      39.639 -24.639 -13.863  0.00  0.00    -0.227 OA
ENDROOT
BRANCH   1   3
ATOM      3  O   UNL     1      40.296 -25.729 -16.171  0.00  0.00    -0.303 OA
ATOM      4  H   UNL     1      39.936 -24.884 -16.482  0.00  0.00    +0.222 HD
ENDBRANCH   1   3
BRANCH   1   5
ATOM      5  O   UNL     1      41.260 -26.703 -14.037  0.00  0.00    -0.303 OA
ATOM      6  H   UNL     1      41.503 -26.355 -13.166  0.00  0.00    +0.222 HD
ENDBRANCH   1   5
BRANCH   1   7
ATOM      7  O   UNL     1      38.808 -27.034 -14.571  0.00  0.00    -0.261 OA
BRANCH   7   8
ATOM      8  C   UNL     1      37.509 -26.656 -14.151  0.00  0.00    +0.262 C 
BRANCH   8  10
ATOM      9  O   UNL     1      35.894 -25.422 -15.485  0.00  0.00    -0.247 OA
ATOM     10  C   UNL     1      36.648 -26.376 -15.352  0.00  0.00    +0.345 C 
BRANCH  10  11
ATOM     11  O   UNL     1      36.822 -27.341 -16.289  0.00  0.00    -0.478 OA
ATOM     12  H   UNL     1      37.631 -27.812 -16.332  0.00  0.00    +0.295 HD
ENDBRANCH  10  11
ENDBRANCH   8  10
ENDBRANCH   7   8
ENDBRANCH   1   7
TORSDOF 6
ENDMDL
MODEL 2
REMARK VINA RESULT:      -5.8      1.901      3.942
REMARK  Name = 529
REMARK  6 active torsions:
REMARK  status: ('A' for Active; 'I' for Inactive)
REMARK    1  A    between atoms: P_1  and  O_3
REMARK    2  A    between atoms: P_1  and  O_5
REMARK    3  A    between atoms: P_1  and  O_7
REMARK    4  A    between atoms: O_7  and  C_8
REMARK    5  A    between atoms: C_8  and  C_10
REMARK    6  A    between atoms: C_10  and  O_11
REMARK                            x       y       z     vdW  Elec       q    Type
REMARK                         _______ _______ _______ _____ _____    ______ ____
ROOT
ATOM      1  P   UNL     1      36.951 -26.194 -14.984  0.00  0.00    +0.474 P 
ATOM      2  O   UNL     1      36.603 -27.257 -15.985  0.00  0.00    -0.227 OA
ENDROOT
BRANCH   1   3
ATOM      3  O   UNL     1      37.389 -24.769 -15.613  0.00  0.00    -0.303 OA
ATOM      4  H   UNL     1      37.429 -24.104 -14.908  0.00  0.00    +0.222 HD
ENDBRANCH   1   3
BRANCH   1   5
ATOM      5  O   UNL     1      35.761 -25.800 -13.963  0.00  0.00    -0.303 OA
ATOM      6  H   UNL     1      36.124 -25.286 -13.225  0.00  0.00    +0.222 HD
ENDBRANCH   1   5
BRANCH   1   7
ATOM      7  O   UNL     1      38.173 -26.566 -13.989  0.00  0.00    -0.261 OA
BRANCH   7   8
ATOM      8  C   UNL     1      39.238 -25.642 -13.853  0.00  0.00    +0.262 C 
BRANCH   8  10
ATOM      9  O   UNL     1      41.359 -26.803 -14.099  0.00  0.00    -0.247 OA
ATOM     10  C   UNL     1      40.449 -26.149 -14.587  0.00  0.00    +0.345 C 
BRANCH  10  11
ATOM     11  O   UNL     1      40.396 -25.779 -15.891  0.00  0.00    -0.478 OA
ATOM     12  H   UNL     1      40.599 -26.399 -16.563  0.00  0.00    +0.295 HD
ENDBRANCH  10  11
ENDBRANCH   8  10
ENDBRANCH   7   8
ENDBRANCH   1   7
TORSDOF 6
ENDMDL
MODEL 3
REMARK VINA RESULT:      -5.6      1.874      3.917
REMARK  Name = 529
REMARK  6 active torsions:
REMARK  status: ('A' for Active; 'I' for Inactive)
REMARK    1  A    between atoms: P_1  and  O_3
REMARK    2  A    between atoms: P_1  and  O_5
REMARK    3  A    between atoms: P_1  and  O_7
REMARK    4  A    between atoms: O_7  and  C_8
REMARK    5  A    between atoms: C_8  and  C_10
REMARK    6  A    between atoms: C_10  and  O_11
REMARK                            x       y       z     vdW  Elec       q    Type
REMARK                         _______ _______ _______ _____ _____    ______ ____
ROOT
ATOM      1  P   UNL     1      36.857 -25.995 -14.994  0.00  0.00    +0.474 P 
ATOM      2  O   UNL     1      35.598 -25.245 -15.320  0.00  0.00    -0.227 OA
ENDROOT
BRANCH   1   3
ATOM      3  O   UNL     1      36.838 -26.802 -13.592  0.00  0.00    -0.303 OA
ATOM      4  H   UNL     1      37.150 -27.708 -13.736  0.00  0.00    +0.222 HD
ENDBRANCH   1   3
BRANCH   1   5
ATOM      5  O   UNL     1      37.275 -27.129 -16.069  0.00  0.00    -0.303 OA
ATOM      6  H   UNL     1      36.837 -26.950 -16.914  0.00  0.00    +0.222 HD
ENDBRANCH   1   5
BRANCH   1   7
ATOM      7  O   UNL     1      38.190 -25.083 -14.894  0.00  0.00    -0.261 OA
BRANCH   7   8
ATOM      8  C   UNL     1      39.180 -25.434 -13.943  0.00  0.00    +0.262 C 
BRANCH   8  10
ATOM      9  O   UNL     1      41.259 -26.685 -14.101  0.00  0.00    -0.247 OA
ATOM     10  C   UNL     1      40.354 -26.065 -14.641  0.00  0.00    +0.345 C 
BRANCH  10  11
ATOM     11  O   UNL     1      40.274 -25.852 -15.978  0.00  0.00    -0.478 OA
ATOM     12  H   UNL     1      40.067 -26.561 -16.554  0.00  0.00    +0.295 HD
ENDBRANCH  10  11
ENDBRANCH   8  10
ENDBRANCH   7   8
ENDBRANCH   1   7
TORSDOF 6
ENDMDL
MODEL 4
REMARK VINA RESULT:      -5.6      2.002      3.468
REMARK  Name = 529
REMARK  6 active torsions:
REMARK  status: ('A' for Active; 'I' for Inactive)
REMARK    1  A    between atoms: P_1  and  O_3
REMARK    2  A    between atoms: P_1  and  O_5
REMARK    3  A    between atoms: P_1  and  O_7
REMARK    4  A    between atoms: O_7  and  C_8
REMARK    5  A    between atoms: C_8  and  C_10
REMARK    6  A    between atoms: C_10  and  O_11
REMARK                            x       y       z     vdW  Elec       q    Type
REMARK                         _______ _______ _______ _____ _____    ______ ____
ROOT
ATOM      1  P   UNL     1      40.087 -26.022 -14.566  0.00  0.00    +0.474 P 
ATOM      2  O   UNL     1      41.291 -26.666 -13.944  0.00  0.00    -0.227 OA
ENDROOT
BRANCH   1   3
ATOM      3  O   UNL     1      40.268 -25.560 -16.106  0.00  0.00    -0.303 OA
ATOM      4  H   UNL     1      41.044 -24.983 -16.180  0.00  0.00    +0.222 HD
ENDBRANCH   1   3
BRANCH   1   5
ATOM      5  O   UNL     1      38.762 -26.948 -14.609  0.00  0.00    -0.303 OA
ATOM      6  H   UNL     1      38.026 -26.442 -14.985  0.00  0.00    +0.222 HD
ENDBRANCH   1   5
BRANCH   1   7
ATOM      7  O   UNL     1      39.567 -24.682 -13.822  0.00  0.00    -0.261 OA
BRANCH   7   8
ATOM      8  C   UNL     1      38.211 -24.617 -13.415  0.00  0.00    +0.262 C 
BRANCH   8  10
ATOM      9  O   UNL     1      37.362 -24.622 -11.138  0.00  0.00    -0.247 OA
ATOM     10  C   UNL     1      38.130 -24.179 -11.978  0.00  0.00    +0.345 C 
BRANCH  10  11
ATOM     11  O   UNL     1      39.044 -23.207 -11.734  0.00  0.00    -0.478 OA
ATOM     12  H   UNL     1      38.984 -22.693 -10.953  0.00  0.00    +0.295 HD
ENDBRANCH  10  11
ENDBRANCH   8  10
ENDBRANCH   7   8
ENDBRANCH   1   7
TORSDOF 6
ENDMDL
MODEL 5
REMARK VINA RESULT:      -5.5      1.483      2.133
REMARK  Name = 529
REMARK  6 active torsions:
REMARK  status: ('A' for Active; 'I' for Inactive)
REMARK    1  A    between atoms: P_1  and  O_3
REMARK    2  A    between atoms: P_1  and  O_5
REMARK    3  A    between atoms: P_1  and  O_7
REMARK    4  A    between atoms: O_7  and  C_8
REMARK    5  A    between atoms: C_8  and  C_10
REMARK    6  A    between atoms: C_10  and  O_11
REMARK                            x       y       z     vdW  Elec       q    Type
REMARK                         _______ _______ _______ _____ _____    ______ ____
ROOT
ATOM      1  P   UNL     1      40.149 -25.936 -14.537  0.00  0.00    +0.474 P 
ATOM      2  O   UNL     1      40.063 -24.609 -13.839  0.00  0.00    -0.227 OA
ENDROOT
BRANCH   1   3
ATOM      3  O   UNL     1      40.374 -25.862 -16.137  0.00  0.00    -0.303 OA
ATOM      4  H   UNL     1      40.086 -26.695 -16.542  0.00  0.00    +0.222 HD
ENDBRANCH   1   3
BRANCH   1   5
ATOM      5  O   UNL     1      41.350 -26.895 -14.036  0.00  0.00    -0.303 OA
ATOM      6  H   UNL     1      41.131 -27.818 -14.236  0.00  0.00    +0.222 HD
ENDBRANCH   1   5
BRANCH   1   7
ATOM      7  O   UNL     1      38.842 -26.878 -14.376  0.00  0.00    -0.261 OA
BRANCH   7   8
ATOM      8  C   UNL     1      37.564 -26.266 -14.377  0.00  0.00    +0.262 C 
BRANCH   8  10
ATOM      9  O   UNL     1      37.018 -26.562 -12.026  0.00  0.00    -0.247 OA
ATOM     10  C   UNL     1      37.210 -25.825 -12.983  0.00  0.00    +0.345 C 
BRANCH  10  11
ATOM     11  O   UNL     1      37.132 -24.472 -12.926  0.00  0.00    -0.478 OA
ATOM     12  H   UNL     1      36.632 -24.004 -13.565  0.00  0.00    +0.295 HD
ENDBRANCH  10  11
ENDBRANCH   8  10
ENDBRANCH   7   8
ENDBRANCH   1   7
TORSDOF 6
ENDMDL
MODEL 6
REMARK VINA RESULT:      -5.4      2.069      3.517
REMARK  Name = 529
REMARK  6 active torsions:
REMARK  status: ('A' for Active; 'I' for Inactive)
REMARK    1  A    between atoms: P_1  and  O_3
REMARK    2  A    between atoms: P_1  and  O_5
REMARK    3  A    between atoms: P_1  and  O_7
REMARK    4  A    between atoms: O_7  and  C_8
REMARK    5  A    between atoms: C_8  and  C_10
REMARK    6  A    between atoms: C_10  and  O_11
REMARK                            x       y       z     vdW  Elec       q    Type
REMARK                         _______ _______ _______ _____ _____    ______ ____
ROOT
ATOM      1  P   UNL     1      39.643 -25.987 -14.639  0.00  0.00    +0.474 P 
ATOM      2  O   UNL     1      38.515 -26.977 -14.624  0.00  0.00    -0.227 OA
ENDROOT
BRANCH   1   3
ATOM      3  O   UNL     1      40.936 -26.398 -13.757  0.00  0.00    -0.303 OA
ATOM      4  H   UNL     1      41.575 -26.863 -14.318  0.00  0.00    +0.222 HD
ENDBRANCH   1   3
BRANCH   1   5
ATOM      5  O   UNL     1      40.270 -25.688 -16.099  0.00  0.00    -0.303 OA
ATOM      6  H   UNL     1      40.054 -24.781 -16.365  0.00  0.00    +0.222 HD
ENDBRANCH   1   5
BRANCH   1   7
ATOM      7  O   UNL     1      39.264 -24.509 -14.099  0.00  0.00    -0.261 OA
BRANCH   7   8
ATOM      8  C   UNL     1      37.979 -24.305 -13.538  0.00  0.00    +0.262 C 
BRANCH   8  10
ATOM      9  O   UNL     1      38.516 -22.874 -11.647  0.00  0.00    -0.247 OA
ATOM     10  C   UNL     1      38.109 -23.941 -12.084  0.00  0.00    +0.345 C 
BRANCH  10  11
ATOM     11  O   UNL     1      37.707 -24.976 -11.305  0.00  0.00    -0.478 OA
ATOM     12  H   UNL     1      38.201 -25.771 -11.290  0.00  0.00    +0.295 HD
ENDBRANCH  10  11
ENDBRANCH   8  10
ENDBRANCH   7   8
ENDBRANCH   1   7
TORSDOF 6
ENDMDL
MODEL 7
REMARK VINA RESULT:      -5.4      3.603      4.778
REMARK  Name = 529
REMARK  6 active torsions:
REMARK  status: ('A' for Active; 'I' for Inactive)
REMARK    1  A    between atoms: P_1  and  O_3
REMARK    2  A    between atoms: P_1  and  O_5
REMARK    3  A    between atoms: P_1  and  O_7
REMARK    4  A    between atoms: O_7  and  C_8
REMARK    5  A    between atoms: C_8  and  C_10
REMARK    6  A    between atoms: C_10  and  O_11
REMARK                            x       y       z     vdW  Elec       q    Type
REMARK                         _______ _______ _______ _____ _____    ______ ____
ROOT
ATOM      1  P   UNL     1      36.057 -24.149 -11.134  0.00  0.00    +0.474 P 
ATOM      2  O   UNL     1      37.208 -23.193 -11.013  0.00  0.00    -0.227 OA
ENDROOT
BRANCH   1   3
ATOM      3  O   UNL     1      35.343 -24.551  -9.739  0.00  0.00    -0.303 OA
ATOM      4  H   UNL     1      35.694 -25.400  -9.429  0.00  0.00    +0.222 HD
ENDBRANCH   1   3
BRANCH   1   5
ATOM      5  O   UNL     1      34.827 -23.627 -12.045  0.00  0.00    -0.303 OA
ATOM      6  H   UNL     1      35.039 -23.762 -12.981  0.00  0.00    +0.222 HD
ENDBRANCH   1   5
BRANCH   1   7
ATOM      7  O   UNL     1      36.423 -25.577 -11.803  0.00  0.00    -0.261 OA
BRANCH   7   8
ATOM      8  C   UNL     1      37.626 -25.688 -12.544  0.00  0.00    +0.262 C 
BRANCH   8  10
ATOM      9  O   UNL     1      38.154 -27.107 -14.446  0.00  0.00    -0.247 OA
ATOM     10  C   UNL     1      37.360 -26.400 -13.842  0.00  0.00    +0.345 C 
BRANCH  10  11
ATOM     11  O   UNL     1      36.095 -26.149 -14.263  0.00  0.00    -0.478 OA
ATOM     12  H   UNL     1      35.436 -26.809 -14.187  0.00  0.00    +0.295 HD
ENDBRANCH  10  11
ENDBRANCH   8  10
ENDBRANCH   7   8
ENDBRANCH   1   7
TORSDOF 6
ENDMDL
MODEL 8
REMARK VINA RESULT:      -5.4      2.609      4.137
REMARK  Name = 529
REMARK  6 active torsions:
REMARK  status: ('A' for Active; 'I' for Inactive)
REMARK    1  A    between atoms: P_1  and  O_3
REMARK    2  A    between atoms: P_1  and  O_5
REMARK    3  A    between atoms: P_1  and  O_7
REMARK    4  A    between atoms: O_7  and  C_8
REMARK    5  A    between atoms: C_8  and  C_10
REMARK    6  A    between atoms: C_10  and  O_11
REMARK                            x       y       z     vdW  Elec       q    Type
REMARK                         _______ _______ _______ _____ _____    ______ ____
ROOT
ATOM      1  P   UNL     1      37.690 -24.090 -12.399  0.00  0.00    +0.474 P 
ATOM      2  O   UNL     1      37.659 -25.443 -11.750  0.00  0.00    -0.227 OA
ENDROOT
BRANCH   1   3
ATOM      3  O   UNL     1      36.246 -23.392 -12.611  0.00  0.00    -0.303 OA
ATOM      4  H   UNL     1      35.601 -23.795 -12.010  0.00  0.00    +0.222 HD
ENDBRANCH   1   3
BRANCH   1   5
ATOM      5  O   UNL     1      38.532 -22.966 -11.597  0.00  0.00    -0.303 OA
ATOM      6  H   UNL     1      39.289 -23.382 -11.157  0.00  0.00    +0.222 HD
ENDBRANCH   1   5
BRANCH   1   7
ATOM      7  O   UNL     1      38.354 -24.054 -13.875  0.00  0.00    -0.261 OA
BRANCH   7   8
ATOM      8  C   UNL     1      38.710 -25.282 -14.485  0.00  0.00    +0.262 C 
BRANCH   8  10
ATOM      9  O   UNL     1      41.058 -24.683 -14.296  0.00  0.00    -0.247 OA
ATOM     10  C   UNL     1      40.155 -25.245 -14.899  0.00  0.00    +0.345 C 
BRANCH  10  11
ATOM     11  O   UNL     1      40.329 -25.933 -16.055  0.00  0.00    -0.478 OA
ATOM     12  H   UNL     1      40.483 -25.472 -16.856  0.00  0.00    +0.295 HD
ENDBRANCH  10  11
ENDBRANCH   8  10
ENDBRANCH   7   8
ENDBRANCH   1   7
TORSDOF 6
ENDMDL
MODEL 9
REMARK VINA RESULT:      -5.2      2.649      4.126
REMARK  Name = 529
REMARK  6 active torsions:
REMARK  status: ('A' for Active; 'I' for Inactive)
REMARK    1  A    between atoms: P_1  and  O_3
REMARK    2  A    between atoms: P_1  and  O_5
REMARK    3  A    between atoms: P_1  and  O_7
REMARK    4  A    between atoms: O_7  and  C_8
REMARK    5  A    between atoms: C_8  and  C_10
REMARK    6  A    between atoms: C_10  and  O_11
REMARK                            x       y       z     vdW  Elec       q    Type
REMARK                         _______ _______ _______ _____ _____    ______ ____
ROOT
ATOM      1  P   UNL     1      37.320 -26.198 -14.455  0.00  0.00    +0.474 P 
ATOM      2  O   UNL     1      36.331 -26.208 -15.585  0.00  0.00    -0.227 OA
ENDROOT
BRANCH   1   3
ATOM      3  O   UNL     1      36.771 -26.786 -13.052  0.00  0.00    -0.303 OA
ATOM      4  H   UNL     1      35.857 -27.088 -13.163  0.00  0.00    +0.222 HD
ENDBRANCH   1   3
BRANCH   1   5
ATOM      5  O   UNL     1      38.666 -27.055 -14.717  0.00  0.00    -0.303 OA
ATOM      6  H   UNL     1      39.441 -26.487 -14.591  0.00  0.00    +0.222 HD
ENDBRANCH   1   5
BRANCH   1   7
ATOM      7  O   UNL     1      37.893 -24.737 -14.061  0.00  0.00    -0.261 OA
BRANCH   7   8
ATOM      8  C   UNL     1      37.081 -23.882 -13.275  0.00  0.00    +0.262 C 
BRANCH   8  10
ATOM      9  O   UNL     1      38.513 -22.742 -11.676  0.00  0.00    -0.247 OA
ATOM     10  C   UNL     1      37.733 -23.645 -11.941  0.00  0.00    +0.345 C 
BRANCH  10  11
ATOM     11  O   UNL     1      37.331 -24.586 -11.050  0.00  0.00    -0.478 OA
ATOM     12  H   UNL     1      36.564 -25.096 -11.221  0.00  0.00    +0.295 HD
ENDBRANCH  10  11
ENDBRANCH   8  10
ENDBRANCH   7   8
ENDBRANCH   1   7
TORSDOF 6
ENDMDL
