MODEL 1
REMARK VINA RESULT:      -8.9      0.000      0.000
REMARK  Name = 5311051
REMARK  4 active torsions:
REMARK  status: ('A' for Active; 'I' for Inactive)
REMARK    1  A    between atoms: C_7  and  O_23
REMARK    2  A    between atoms: C_7  and  C_28
REMARK    3  A    between atoms: C_11  and  O_25
REMARK    4  A    between atoms: C_28  and  C_30
REMARK                            x       y       z     vdW  Elec       q    Type
REMARK                         _______ _______ _______ _____ _____    ______ ____
ROOT
ATOM      1  F   UNL     1      35.634 -25.562 -14.646  0.00  0.00    -0.237 F 
ATOM      2  O   UNL     1      40.426 -26.360 -14.205  0.00  0.00    -0.287 OA
ATOM      3  C   UNL     1      32.594 -23.815 -14.417  0.00  0.00    +0.031 C 
ATOM      4  C   UNL     1      33.652 -23.747 -15.540  0.00  0.00    +0.005 C 
ATOM      5  C   UNL     1      35.041 -23.317 -15.043  0.00  0.00    +0.033 C 
ATOM      6  C   UNL     1      35.548 -24.350 -13.979  0.00  0.00    +0.164 C 
ATOM      7  C   UNL     1      31.334 -24.197 -15.254  0.00  0.00    +0.140 C 
ATOM      8  C   UNL     1      32.961 -22.911 -16.611  0.00  0.00    +0.003 C 
ATOM      9  C   UNL     1      33.073 -24.872 -13.397  0.00  0.00    +0.035 C 
ATOM     10  C   UNL     1      31.509 -23.454 -16.617  0.00  0.00    +0.031 C 
ATOM     11  C   UNL     1      34.496 -24.597 -12.856  0.00  0.00    +0.141 C 
ATOM     12  C   UNL     1      37.017 -24.028 -13.493  0.00  0.00    +0.064 C 
ATOM     13  C   UNL     1      36.022 -23.211 -16.226  0.00  0.00    +0.007 C 
ATOM     14  C   UNL     1      32.361 -22.452 -13.709  0.00  0.00    +0.003 C 
ATOM     15  C   UNL     1      37.444 -22.901 -15.771  0.00  0.00    +0.023 C 
ATOM     16  C   UNL     1      37.897 -23.905 -14.742  0.00  0.00    -0.035 C 
ATOM     17  C   UNL     1      30.516 -22.338 -16.922  0.00  0.00    +0.003 C 
ATOM     18  C   UNL     1      37.141 -22.714 -12.689  0.00  0.00    +0.011 C 
ATOM     19  C   UNL     1      37.519 -25.134 -12.575  0.00  0.00    -0.017 C 
ATOM     20  C   UNL     1      38.986 -24.656 -14.965  0.00  0.00    +0.034 C 
ATOM     21  C   UNL     1      38.602 -25.887 -12.792  0.00  0.00    +0.038 C 
ATOM     22  C   UNL     1      39.421 -25.688 -14.002  0.00  0.00    +0.195 C 
ENDROOT
BRANCH   7  23
ATOM     23  O   UNL     1      31.330 -25.607 -15.515  0.00  0.00    -0.380 OA
ATOM     24  H   UNL     1      30.418 -25.906 -15.657  0.00  0.00    +0.211 HD
ENDBRANCH   7  23
BRANCH  11  25
ATOM     25  O   UNL     1      34.458 -23.524 -11.929  0.00  0.00    -0.382 OA
ATOM     26  H   UNL     1      35.097 -22.844 -12.194  0.00  0.00    +0.210 HD
ENDBRANCH  11  25
BRANCH   7  28
ATOM     27  O   UNL     1      29.889 -23.113 -13.710  0.00  0.00    -0.292 OA
ATOM     28  C   UNL     1      30.028 -24.011 -14.539  0.00  0.00    +0.191 C 
BRANCH  28  30
ATOM     29 CL   UNL     1      28.160 -24.517 -16.427  0.00  0.00    -0.105 Cl
ATOM     30  C   UNL     1      28.933 -24.986 -14.906  0.00  0.00    +0.161 C 
ENDBRANCH  28  30
ENDBRANCH   7  28
TORSDOF 4
ENDMDL
MODEL 2
REMARK VINA RESULT:      -8.2     14.620     17.182
REMARK  Name = 5311051
REMARK  4 active torsions:
REMARK  status: ('A' for Active; 'I' for Inactive)
REMARK    1  A    between atoms: C_7  and  O_23
REMARK    2  A    between atoms: C_7  and  C_28
REMARK    3  A    between atoms: C_11  and  O_25
REMARK    4  A    between atoms: C_28  and  C_30
REMARK                            x       y       z     vdW  Elec       q    Type
REMARK                         _______ _______ _______ _____ _____    ______ ____
ROOT
ATOM      1  F   UNL     1      31.727  -9.504 -24.207  0.00  0.00    -0.237 F 
ATOM      2  O   UNL     1      30.590  -4.761 -24.143  0.00  0.00    -0.287 OA
ATOM      3  C   UNL     1      33.514 -12.430 -23.438  0.00  0.00    +0.031 C 
ATOM      4  C   UNL     1      32.387 -11.757 -22.624  0.00  0.00    +0.005 C 
ATOM      5  C   UNL     1      32.706 -10.309 -22.221  0.00  0.00    +0.033 C 
ATOM      6  C   UNL     1      32.928  -9.454 -23.516  0.00  0.00    +0.164 C 
ATOM      7  C   UNL     1      32.911 -13.859 -23.607  0.00  0.00    +0.140 C 
ATOM      8  C   UNL     1      32.098 -12.779 -21.529  0.00  0.00    +0.003 C 
ATOM      9  C   UNL     1      33.692 -11.613 -24.736  0.00  0.00    +0.035 C 
ATOM     10  C   UNL     1      32.138 -14.136 -22.278  0.00  0.00    +0.031 C 
ATOM     11  C   UNL     1      33.960 -10.111 -24.481  0.00  0.00    +0.141 C 
ATOM     12  C   UNL     1      33.163  -7.927 -23.185  0.00  0.00    +0.064 C 
ATOM     13  C   UNL     1      31.568  -9.731 -21.361  0.00  0.00    +0.007 C 
ATOM     14  C   UNL     1      34.860 -12.516 -22.667  0.00  0.00    +0.003 C 
ATOM     15  C   UNL     1      31.782  -8.257 -21.034  0.00  0.00    +0.023 C 
ATOM     16  C   UNL     1      32.001  -7.466 -22.297  0.00  0.00    -0.035 C 
ATOM     17  C   UNL     1      32.695 -15.235 -21.379  0.00  0.00    +0.003 C 
ATOM     18  C   UNL     1      34.482  -7.642 -22.430  0.00  0.00    +0.011 C 
ATOM     19  C   UNL     1      33.228  -7.116 -24.470  0.00  0.00    -0.017 C 
ATOM     20  C   UNL     1      31.180  -6.452 -22.611  0.00  0.00    +0.034 C 
ATOM     21  C   UNL     1      32.411  -6.107 -24.790  0.00  0.00    +0.038 C 
ATOM     22  C   UNL     1      31.335  -5.696 -23.870  0.00  0.00    +0.195 C 
ENDROOT
BRANCH   7  23
ATOM     23  O   UNL     1      31.961 -13.863 -24.682  0.00  0.00    -0.380 OA
ATOM     24  H   UNL     1      31.465 -14.697 -24.671  0.00  0.00    +0.211 HD
ENDBRANCH   7  23
BRANCH  11  25
ATOM     25  O   UNL     1      35.291  -9.931 -24.025  0.00  0.00    -0.382 OA
ATOM     26  H   UNL     1      35.280  -9.641 -23.100  0.00  0.00    +0.210 HD
ENDBRANCH  11  25
BRANCH   7  28
ATOM     27  O   UNL     1      34.905 -15.135 -23.400  0.00  0.00    -0.292 OA
ATOM     28  C   UNL     1      33.891 -14.902 -24.057  0.00  0.00    +0.191 C 
BRANCH  28  30
ATOM     29 CL   UNL     1      34.396 -17.167 -25.444  0.00  0.00    -0.105 Cl
ATOM     30  C   UNL     1      33.545 -15.620 -25.342  0.00  0.00    +0.161 C 
ENDBRANCH  28  30
ENDBRANCH   7  28
TORSDOF 4
ENDMDL
MODEL 3
REMARK VINA RESULT:      -6.6      2.833      7.108
REMARK  Name = 5311051
REMARK  4 active torsions:
REMARK  status: ('A' for Active; 'I' for Inactive)
REMARK    1  A    between atoms: C_7  and  O_23
REMARK    2  A    between atoms: C_7  and  C_28
REMARK    3  A    between atoms: C_11  and  O_25
REMARK    4  A    between atoms: C_28  and  C_30
REMARK                            x       y       z     vdW  Elec       q    Type
REMARK                         _______ _______ _______ _____ _____    ______ ____
ROOT
ATOM      1  F   UNL     1      32.235 -22.445 -14.295  0.00  0.00    -0.237 F 
ATOM      2  O   UNL     1      27.559 -21.614 -15.407  0.00  0.00    -0.287 OA
ATOM      3  C   UNL     1      35.322 -24.123 -14.267  0.00  0.00    +0.031 C 
ATOM      4  C   UNL     1      34.782 -23.135 -15.324  0.00  0.00    +0.005 C 
ATOM      5  C   UNL     1      33.456 -23.583 -15.958  0.00  0.00    +0.033 C 
ATOM      6  C   UNL     1      32.370 -23.715 -14.835  0.00  0.00    +0.164 C 
ATOM      7  C   UNL     1      36.665 -23.419 -13.898  0.00  0.00    +0.140 C 
ATOM      8  C   UNL     1      35.989 -22.905 -16.227  0.00  0.00    +0.003 C 
ATOM      9  C   UNL     1      34.271 -24.209 -13.139  0.00  0.00    +0.035 C 
ATOM     10  C   UNL     1      37.171 -22.780 -15.230  0.00  0.00    +0.031 C 
ATOM     11  C   UNL     1      32.862 -24.594 -13.645  0.00  0.00    +0.141 C 
ATOM     12  C   UNL     1      30.950 -24.078 -15.424  0.00  0.00    +0.064 C 
ATOM     13  C   UNL     1      33.017 -22.583 -17.042  0.00  0.00    +0.007 C 
ATOM     14  C   UNL     1      35.612 -25.537 -14.841  0.00  0.00    +0.003 C 
ATOM     15  C   UNL     1      31.647 -22.921 -17.620  0.00  0.00    +0.023 C 
ATOM     16  C   UNL     1      30.629 -23.050 -16.515  0.00  0.00    -0.035 C 
ATOM     17  C   UNL     1      38.447 -23.363 -15.829  0.00  0.00    +0.003 C 
ATOM     18  C   UNL     1      30.871 -25.486 -16.057  0.00  0.00    +0.011 C 
ATOM     19  C   UNL     1      29.902 -24.051 -14.321  0.00  0.00    -0.017 C 
ATOM     20  C   UNL     1      29.542 -22.262 -16.503  0.00  0.00    +0.034 C 
ATOM     21  C   UNL     1      28.819 -23.268 -14.301  0.00  0.00    +0.038 C 
ATOM     22  C   UNL     1      28.558 -22.326 -15.404  0.00  0.00    +0.195 C 
ENDROOT
BRANCH   7  23
ATOM     23  O   UNL     1      36.419 -22.359 -12.963  0.00  0.00    -0.380 OA
ATOM     24  H   UNL     1      35.875 -21.677 -13.385  0.00  0.00    +0.211 HD
ENDBRANCH   7  23
BRANCH  11  25
ATOM     25  O   UNL     1      32.827 -25.975 -13.966  0.00  0.00    -0.382 OA
ATOM     26  H   UNL     1      31.907 -26.257 -14.085  0.00  0.00    +0.210 HD
ENDBRANCH  11  25
BRANCH   7  28
ATOM     27  O   UNL     1      38.035 -23.942 -12.028  0.00  0.00    -0.292 OA
ATOM     28  C   UNL     1      37.635 -24.279 -13.142  0.00  0.00    +0.191 C 
BRANCH  28  30
ATOM     29 CL   UNL     1      39.826 -25.741 -13.753  0.00  0.00    -0.105 Cl
ATOM     30  C   UNL     1      38.069 -25.549 -13.838  0.00  0.00    +0.161 C 
ENDBRANCH  28  30
ENDBRANCH   7  28
TORSDOF 4
ENDMDL
MODEL 4
REMARK VINA RESULT:      -6.4     14.415     16.570
REMARK  Name = 5311051
REMARK  4 active torsions:
REMARK  status: ('A' for Active; 'I' for Inactive)
REMARK    1  A    between atoms: C_7  and  O_23
REMARK    2  A    between atoms: C_7  and  C_28
REMARK    3  A    between atoms: C_11  and  O_25
REMARK    4  A    between atoms: C_28  and  C_30
REMARK                            x       y       z     vdW  Elec       q    Type
REMARK                         _______ _______ _______ _____ _____    ______ ____
ROOT
ATOM      1  F   UNL     1      34.648 -12.189 -22.386  0.00  0.00    -0.237 F 
ATOM      2  O   UNL     1      35.154 -16.967 -21.546  0.00  0.00    -0.287 OA
ATOM      3  C   UNL     1      33.176  -9.239 -23.602  0.00  0.00    +0.031 C 
ATOM      4  C   UNL     1      32.871  -9.986 -22.285  0.00  0.00    +0.005 C 
ATOM      5  C   UNL     1      32.417 -11.439 -22.498  0.00  0.00    +0.033 C 
ATOM      6  C   UNL     1      33.554 -12.227 -23.236  0.00  0.00    +0.164 C 
ATOM      7  C   UNL     1      33.522  -7.826 -23.038  0.00  0.00    +0.140 C 
ATOM      8  C   UNL     1      31.940  -9.025 -21.553  0.00  0.00    +0.003 C 
ATOM      9  C   UNL     1      34.331  -9.991 -24.299  0.00  0.00    +0.035 C 
ATOM     10  C   UNL     1      32.580  -7.635 -21.807  0.00  0.00    +0.031 C 
ATOM     11  C   UNL     1      34.035 -11.492 -24.524  0.00  0.00    +0.141 C 
ATOM     12  C   UNL     1      33.201 -13.758 -23.404  0.00  0.00    +0.064 C 
ATOM     13  C   UNL     1      32.071 -12.095 -21.149  0.00  0.00    +0.007 C 
ATOM     14  C   UNL     1      31.949  -9.140 -24.549  0.00  0.00    +0.003 C 
ATOM     15  C   UNL     1      31.729 -13.573 -21.296  0.00  0.00    +0.023 C 
ATOM     16  C   UNL     1      32.835 -14.299 -22.017  0.00  0.00    -0.035 C 
ATOM     17  C   UNL     1      31.506  -6.559 -21.926  0.00  0.00    +0.003 C 
ATOM     18  C   UNL     1      32.009 -14.030 -24.351  0.00  0.00    +0.011 C 
ATOM     19  C   UNL     1      34.387 -14.509 -23.990  0.00  0.00    -0.017 C 
ATOM     20  C   UNL     1      33.467 -15.326 -21.426  0.00  0.00    +0.034 C 
ATOM     21  C   UNL     1      35.022 -15.531 -23.407  0.00  0.00    +0.038 C 
ATOM     22  C   UNL     1      34.592 -16.020 -22.084  0.00  0.00    +0.195 C 
ENDROOT
BRANCH   7  23
ATOM     23  O   UNL     1      34.877  -7.807 -22.568  0.00  0.00    -0.380 OA
ATOM     24  H   UNL     1      34.930  -7.271 -21.761  0.00  0.00    +0.211 HD
ENDBRANCH   7  23
BRANCH  11  25
ATOM     25  O   UNL     1      33.112 -11.646 -25.590  0.00  0.00    -0.382 OA
ATOM     26  H   UNL     1      33.461 -11.214 -26.385  0.00  0.00    +0.210 HD
ENDBRANCH  11  25
BRANCH   7  28
ATOM     27  O   UNL     1      32.588  -5.952 -24.161  0.00  0.00    -0.292 OA
ATOM     28  C   UNL     1      33.536  -6.730 -24.063  0.00  0.00    +0.191 C 
BRANCH  28  30
ATOM     29 CL   UNL     1      34.501  -5.578 -26.310  0.00  0.00    -0.105 Cl
ATOM     30  C   UNL     1      34.767  -6.662 -24.937  0.00  0.00    +0.161 C 
ENDBRANCH  28  30
ENDBRANCH   7  28
TORSDOF 4
ENDMDL
MODEL 5
REMARK VINA RESULT:      -5.9      2.987      7.259
REMARK  Name = 5311051
REMARK  4 active torsions:
REMARK  status: ('A' for Active; 'I' for Inactive)
REMARK    1  A    between atoms: C_7  and  O_23
REMARK    2  A    between atoms: C_7  and  C_28
REMARK    3  A    between atoms: C_11  and  O_25
REMARK    4  A    between atoms: C_28  and  C_30
REMARK                            x       y       z     vdW  Elec       q    Type
REMARK                         _______ _______ _______ _____ _____    ______ ____
ROOT
ATOM      1  F   UNL     1      32.821 -25.589 -14.099  0.00  0.00    -0.237 F 
ATOM      2  O   UNL     1      27.970 -25.585 -14.617  0.00  0.00    -0.287 OA
ATOM      3  C   UNL     1      36.108 -24.360 -14.258  0.00  0.00    +0.031 C 
ATOM      4  C   UNL     1      35.058 -24.136 -13.148  0.00  0.00    +0.005 C 
ATOM      5  C   UNL     1      33.766 -23.477 -13.655  0.00  0.00    +0.033 C 
ATOM      6  C   UNL     1      33.114 -24.397 -14.744  0.00  0.00    +0.164 C 
ATOM      7  C   UNL     1      37.276 -24.955 -13.411  0.00  0.00    +0.140 C 
ATOM      8  C   UNL     1      35.859 -23.440 -12.053  0.00  0.00    +0.003 C 
ATOM      9  C   UNL     1      35.479 -25.308 -15.302  0.00  0.00    +0.035 C 
ATOM     10  C   UNL     1      37.203 -24.214 -12.038  0.00  0.00    +0.031 C 
ATOM     11  C   UNL     1      34.129 -24.796 -15.857  0.00  0.00    +0.141 C 
ATOM     12  C   UNL     1      31.725 -23.832 -15.243  0.00  0.00    +0.064 C 
ATOM     13  C   UNL     1      32.798 -23.229 -12.484  0.00  0.00    +0.007 C 
ATOM     14  C   UNL     1      36.572 -23.043 -14.939  0.00  0.00    +0.003 C 
ATOM     15  C   UNL     1      31.453 -22.684 -12.952  0.00  0.00    +0.023 C 
ATOM     16  C   UNL     1      30.858 -23.585 -14.003  0.00  0.00    -0.035 C 
ATOM     17  C   UNL     1      38.361 -23.280 -11.701  0.00  0.00    +0.003 C 
ATOM     18  C   UNL     1      31.830 -22.503 -16.025  0.00  0.00    +0.011 C 
ATOM     19  C   UNL     1      31.063 -24.826 -16.186  0.00  0.00    -0.017 C 
ATOM     20  C   UNL     1      29.657 -24.151 -13.808  0.00  0.00    +0.034 C 
ATOM     21  C   UNL     1      29.869 -25.395 -15.997  0.00  0.00    +0.038 C 
ATOM     22  C   UNL     1      29.075 -25.083 -14.794  0.00  0.00    +0.195 C 
ENDROOT
BRANCH   7  23
ATOM     23  O   UNL     1      37.046 -26.351 -13.175  0.00  0.00    -0.380 OA
ATOM     24  H   UNL     1      36.825 -26.487 -12.240  0.00  0.00    +0.211 HD
ENDBRANCH   7  23
BRANCH  11  25
ATOM     25  O   UNL     1      34.357 -23.730 -16.765  0.00  0.00    -0.382 OA
ATOM     26  H   UNL     1      33.789 -22.979 -16.531  0.00  0.00    +0.210 HD
ENDBRANCH  11  25
BRANCH   7  28
ATOM     27  O   UNL     1      38.848 -24.187 -15.019  0.00  0.00    -0.292 OA
ATOM     28  C   UNL     1      38.606 -24.975 -14.106  0.00  0.00    +0.191 C 
BRANCH  28  30
ATOM     29 CL   UNL     1      40.831 -26.328 -14.831  0.00  0.00    -0.105 Cl
ATOM     30  C   UNL     1      39.591 -26.008 -13.610  0.00  0.00    +0.161 C 
ENDBRANCH  28  30
ENDBRANCH   7  28
TORSDOF 4
ENDMDL
