MODEL 1
REMARK VINA RESULT:      -8.2      0.000      0.000
REMARK  Name = 159961
REMARK  7 active torsions:
REMARK  status: ('A' for Active; 'I' for Inactive)
REMARK    1  A    between atoms: N_1  and  C_13
REMARK    2  A    between atoms: C_13  and  C_14
REMARK    3  A    between atoms: C_14  and  O_15
REMARK    4  A    between atoms: C_14  and  C_17
REMARK    5  A    between atoms: C_17  and  O_18
REMARK    6  A    between atoms: C_17  and  C_21
REMARK    7  A    between atoms: C_21  and  O_22
REMARK                            x       y       z     vdW  Elec       q    Type
REMARK                         _______ _______ _______ _____ _____    ______ ____
ROOT
ATOM      1  N   UNL     1      35.643 -23.855 -13.829  0.00  0.00    -0.269 N 
ATOM      2  N   UNL     1      33.570 -24.216 -13.156  0.00  0.00    -0.242 NA
ATOM      3  N   UNL     1      35.259 -23.254 -16.148  0.00  0.00    -0.228 NA
ATOM      4  N   UNL     1      32.877 -23.312 -16.675  0.00  0.00    -0.229 NA
ATOM      5  C   UNL     1      34.873 -23.623 -14.917  0.00  0.00    +0.151 C 
ATOM      6  C   UNL     1      33.578 -23.853 -14.479  0.00  0.00    +0.140 C 
ATOM      7  C   UNL     1      34.837 -24.207 -12.795  0.00  0.00    +0.221 C 
ATOM      8  C   UNL     1      32.559 -23.685 -15.412  0.00  0.00    +0.143 C 
ATOM      9  C   UNL     1      34.189 -23.124 -16.960  0.00  0.00    +0.253 C 
ATOM     10  N   UNL     1      31.216 -23.895 -15.053  0.00  0.00    -0.342 N 
ATOM     11  H   UNL     1      30.504 -23.773 -15.722  0.00  0.00    +0.144 HD
ATOM     12  H   UNL     1      30.989 -24.164 -14.134  0.00  0.00    +0.144 HD
ENDROOT
BRANCH   1  13
ATOM     13  C   UNL     1      37.102 -23.747 -13.767  0.00  0.00    +0.126 C 
BRANCH  13  14
ATOM     14  C   UNL     1      37.793 -24.551 -14.878  0.00  0.00    +0.168 C 
BRANCH  14  15
ATOM     15  O   UNL     1      38.446 -23.647 -15.768  0.00  0.00    -0.380 OA
ATOM     16  H   UNL     1      38.807 -22.901 -15.264  0.00  0.00    +0.211 HD
ENDBRANCH  14  15
BRANCH  14  17
ATOM     17  C   UNL     1      38.810 -25.571 -14.347  0.00  0.00    +0.238 C 
BRANCH  17  18
ATOM     18  O   UNL     1      38.396 -26.869 -14.756  0.00  0.00    -0.373 OA
ATOM     19  H   UNL     1      39.165 -27.459 -14.785  0.00  0.00    +0.211 HD
ENDBRANCH  17  18
BRANCH  17  21
ATOM     20  O   UNL     1      41.070 -24.669 -14.301  0.00  0.00    -0.248 OA
ATOM     21  C   UNL     1      40.221 -25.349 -14.863  0.00  0.00    +0.344 C 
BRANCH  21  22
ATOM     22  O   UNL     1      40.444 -25.975 -16.047  0.00  0.00    -0.478 OA
ATOM     23  H   UNL     1      41.102 -25.654 -16.631  0.00  0.00    +0.295 HD
ENDBRANCH  21  22
ENDBRANCH  17  21
ENDBRANCH  14  17
ENDBRANCH  13  14
ENDBRANCH   1  13
TORSDOF 7
ENDMDL
MODEL 2
REMARK VINA RESULT:      -7.9      7.357      9.689
REMARK  Name = 159961
REMARK  7 active torsions:
REMARK  status: ('A' for Active; 'I' for Inactive)
REMARK    1  A    between atoms: N_1  and  C_13
REMARK    2  A    between atoms: C_13  and  C_14
REMARK    3  A    between atoms: C_14  and  O_15
REMARK    4  A    between atoms: C_14  and  C_17
REMARK    5  A    between atoms: C_17  and  O_18
REMARK    6  A    between atoms: C_17  and  C_21
REMARK    7  A    between atoms: C_21  and  O_22
REMARK                            x       y       z     vdW  Elec       q    Type
REMARK                         _______ _______ _______ _____ _____    ______ ____
ROOT
ATOM      1  N   UNL     1      34.626 -19.552 -20.989  0.00  0.00    -0.269 N 
ATOM      2  N   UNL     1      32.784 -20.617 -20.396  0.00  0.00    -0.242 NA
ATOM      3  N   UNL     1      36.264 -20.699 -19.617  0.00  0.00    -0.228 NA
ATOM      4  N   UNL     1      35.201 -22.431 -18.265  0.00  0.00    -0.229 NA
ATOM      5  C   UNL     1      35.026 -20.469 -20.078  0.00  0.00    +0.151 C 
ATOM      6  C   UNL     1      33.861 -21.128 -19.717  0.00  0.00    +0.140 C 
ATOM      7  C   UNL     1      33.284 -19.665 -21.157  0.00  0.00    +0.221 C 
ATOM      8  C   UNL     1      33.980 -22.143 -18.773  0.00  0.00    +0.143 C 
ATOM      9  C   UNL     1      36.253 -21.701 -18.712  0.00  0.00    +0.253 C 
ATOM     10  N   UNL     1      32.850 -22.865 -18.351  0.00  0.00    -0.342 N 
ATOM     11  H   UNL     1      32.946 -23.582 -17.682  0.00  0.00    +0.144 HD
ATOM     12  H   UNL     1      31.963 -22.654 -18.723  0.00  0.00    +0.144 HD
ENDROOT
BRANCH   1  13
ATOM     13  C   UNL     1      35.488 -18.593 -21.683  0.00  0.00    +0.126 C 
BRANCH  13  14
ATOM     14  C   UNL     1      34.828 -17.213 -21.826  0.00  0.00    +0.168 C 
BRANCH  14  15
ATOM     15  O   UNL     1      35.091 -16.450 -20.650  0.00  0.00    -0.380 OA
ATOM     16  H   UNL     1      34.264 -16.061 -20.325  0.00  0.00    +0.211 HD
ENDBRANCH  14  15
BRANCH  14  17
ATOM     17  C   UNL     1      35.307 -16.436 -23.059  0.00  0.00    +0.238 C 
BRANCH  17  18
ATOM     18  O   UNL     1      35.327 -17.326 -24.169  0.00  0.00    -0.373 OA
ATOM     19  H   UNL     1      34.867 -18.146 -23.933  0.00  0.00    +0.211 HD
ENDBRANCH  17  18
BRANCH  17  21
ATOM     20  O   UNL     1      33.517 -15.298 -24.252  0.00  0.00    -0.248 OA
ATOM     21  C   UNL     1      34.416 -15.260 -23.422  0.00  0.00    +0.344 C 
BRANCH  21  22
ATOM     22  O   UNL     1      34.740 -14.134 -22.736  0.00  0.00    -0.478 OA
ATOM     23  H   UNL     1      34.076 -13.655 -22.282  0.00  0.00    +0.295 HD
ENDBRANCH  21  22
ENDBRANCH  17  21
ENDBRANCH  14  17
ENDBRANCH  13  14
ENDBRANCH   1  13
TORSDOF 7
ENDMDL
MODEL 3
REMARK VINA RESULT:      -7.9      2.719      3.361
REMARK  Name = 159961
REMARK  7 active torsions:
REMARK  status: ('A' for Active; 'I' for Inactive)
REMARK    1  A    between atoms: N_1  and  C_13
REMARK    2  A    between atoms: C_13  and  C_14
REMARK    3  A    between atoms: C_14  and  O_15
REMARK    4  A    between atoms: C_14  and  C_17
REMARK    5  A    between atoms: C_17  and  O_18
REMARK    6  A    between atoms: C_17  and  C_21
REMARK    7  A    between atoms: C_21  and  O_22
REMARK                            x       y       z     vdW  Elec       q    Type
REMARK                         _______ _______ _______ _____ _____    ______ ____
ROOT
ATOM      1  N   UNL     1      34.062 -23.834 -14.490  0.00  0.00    -0.269 N 
ATOM      2  N   UNL     1      31.867 -23.583 -14.431  0.00  0.00    -0.242 NA
ATOM      3  N   UNL     1      34.512 -23.259 -16.803  0.00  0.00    -0.228 NA
ATOM      4  N   UNL     1      32.447 -22.688 -17.972  0.00  0.00    -0.229 NA
ATOM      5  C   UNL     1      33.716 -23.450 -15.741  0.00  0.00    +0.151 C 
ATOM      6  C   UNL     1      32.339 -23.298 -15.688  0.00  0.00    +0.140 C 
ATOM      7  C   UNL     1      32.937 -23.904 -13.733  0.00  0.00    +0.221 C 
ATOM      8  C   UNL     1      31.704 -22.901 -16.860  0.00  0.00    +0.143 C 
ATOM      9  C   UNL     1      33.786 -22.878 -17.876  0.00  0.00    +0.253 C 
ATOM     10  N   UNL     1      30.310 -22.720 -16.895  0.00  0.00    -0.342 N 
ATOM     11  H   UNL     1      29.872 -22.439 -17.731  0.00  0.00    +0.144 HD
ATOM     12  H   UNL     1      29.773 -22.873 -16.084  0.00  0.00    +0.144 HD
ENDROOT
BRANCH   1  13
ATOM     13  C   UNL     1      35.418 -24.126 -14.022  0.00  0.00    +0.126 C 
BRANCH  13  14
ATOM     14  C   UNL     1      35.421 -24.927 -12.712  0.00  0.00    +0.168 C 
BRANCH  14  15
ATOM     15  O   UNL     1      36.383 -25.975 -12.811  0.00  0.00    -0.380 OA
ATOM     16  H   UNL     1      36.979 -25.798 -13.555  0.00  0.00    +0.211 HD
ENDBRANCH  14  15
BRANCH  14  17
ATOM     17  C   UNL     1      35.725 -24.069 -11.476  0.00  0.00    +0.238 C 
BRANCH  17  18
ATOM     18  O   UNL     1      35.420 -24.832 -10.315  0.00  0.00    -0.373 OA
ATOM     19  H   UNL     1      34.465 -24.799 -10.149  0.00  0.00    +0.211 HD
ENDBRANCH  17  18
BRANCH  17  21
ATOM     20  O   UNL     1      38.131 -24.400 -11.314  0.00  0.00    -0.248 OA
ATOM     21  C   UNL     1      37.177 -23.634 -11.378  0.00  0.00    +0.344 C 
BRANCH  21  22
ATOM     22  O   UNL     1      37.312 -22.284 -11.343  0.00  0.00    -0.478 OA
ATOM     23  H   UNL     1      36.781 -21.775 -10.762  0.00  0.00    +0.295 HD
ENDBRANCH  21  22
ENDBRANCH  17  21
ENDBRANCH  14  17
ENDBRANCH  13  14
ENDBRANCH   1  13
TORSDOF 7
ENDMDL
MODEL 4
REMARK VINA RESULT:      -7.8      1.117      2.123
REMARK  Name = 159961
REMARK  7 active torsions:
REMARK  status: ('A' for Active; 'I' for Inactive)
REMARK    1  A    between atoms: N_1  and  C_13
REMARK    2  A    between atoms: C_13  and  C_14
REMARK    3  A    between atoms: C_14  and  O_15
REMARK    4  A    between atoms: C_14  and  C_17
REMARK    5  A    between atoms: C_17  and  O_18
REMARK    6  A    between atoms: C_17  and  C_21
REMARK    7  A    between atoms: C_21  and  O_22
REMARK                            x       y       z     vdW  Elec       q    Type
REMARK                         _______ _______ _______ _____ _____    ______ ____
ROOT
ATOM      1  N   UNL     1      35.258 -24.159 -14.749  0.00  0.00    -0.269 N 
ATOM      2  N   UNL     1      34.486 -23.204 -16.585  0.00  0.00    -0.242 NA
ATOM      3  N   UNL     1      33.185 -24.571 -13.557  0.00  0.00    -0.228 NA
ATOM      4  N   UNL     1      31.271 -23.788 -14.853  0.00  0.00    -0.229 NA
ATOM      5  C   UNL     1      33.914 -24.127 -14.593  0.00  0.00    +0.151 C 
ATOM      6  C   UNL     1      33.445 -23.527 -15.751  0.00  0.00    +0.140 C 
ATOM      7  C   UNL     1      35.567 -23.601 -15.947  0.00  0.00    +0.221 C 
ATOM      8  C   UNL     1      32.069 -23.362 -15.861  0.00  0.00    +0.143 C 
ATOM      9  C   UNL     1      31.871 -24.357 -13.779  0.00  0.00    +0.253 C 
ATOM     10  N   UNL     1      31.507 -22.764 -17.003  0.00  0.00    -0.342 N 
ATOM     11  H   UNL     1      30.531 -22.653 -17.070  0.00  0.00    +0.144 HD
ATOM     12  H   UNL     1      32.089 -22.457 -17.735  0.00  0.00    +0.144 HD
ENDROOT
BRANCH   1  13
ATOM     13  C   UNL     1      36.225 -24.702 -13.792  0.00  0.00    +0.126 C 
BRANCH  13  14
ATOM     14  C   UNL     1      37.676 -24.421 -14.208  0.00  0.00    +0.168 C 
BRANCH  14  15
ATOM     15  O   UNL     1      38.333 -23.721 -13.153  0.00  0.00    -0.380 OA
ATOM     16  H   UNL     1      38.640 -22.861 -13.478  0.00  0.00    +0.211 HD
ENDBRANCH  14  15
BRANCH  14  17
ATOM     17  C   UNL     1      38.466 -25.691 -14.551  0.00  0.00    +0.238 C 
BRANCH  17  18
ATOM     18  O   UNL     1      37.880 -26.286 -15.702  0.00  0.00    -0.373 OA
ATOM     19  H   UNL     1      37.958 -27.251 -15.643  0.00  0.00    +0.211 HD
ENDBRANCH  17  18
BRANCH  17  21
ATOM     20  O   UNL     1      40.704 -24.841 -14.113  0.00  0.00    -0.248 OA
ATOM     21  C   UNL     1      39.931 -25.433 -14.856  0.00  0.00    +0.344 C 
BRANCH  21  22
ATOM     22  O   UNL     1      40.299 -25.912 -16.072  0.00  0.00    -0.478 OA
ATOM     23  H   UNL     1      40.906 -26.622 -16.132  0.00  0.00    +0.295 HD
ENDBRANCH  21  22
ENDBRANCH  17  21
ENDBRANCH  14  17
ENDBRANCH  13  14
ENDBRANCH   1  13
TORSDOF 7
ENDMDL
MODEL 5
REMARK VINA RESULT:      -7.8      1.558      2.396
REMARK  Name = 159961
REMARK  7 active torsions:
REMARK  status: ('A' for Active; 'I' for Inactive)
REMARK    1  A    between atoms: N_1  and  C_13
REMARK    2  A    between atoms: C_13  and  C_14
REMARK    3  A    between atoms: C_14  and  O_15
REMARK    4  A    between atoms: C_14  and  C_17
REMARK    5  A    between atoms: C_17  and  O_18
REMARK    6  A    between atoms: C_17  and  C_21
REMARK    7  A    between atoms: C_21  and  O_22
REMARK                            x       y       z     vdW  Elec       q    Type
REMARK                         _______ _______ _______ _____ _____    ______ ____
ROOT
ATOM      1  N   UNL     1      35.815 -23.359 -15.377  0.00  0.00    -0.269 N 
ATOM      2  N   UNL     1      33.742 -23.562 -16.114  0.00  0.00    -0.242 NA
ATOM      3  N   UNL     1      36.835 -22.184 -17.238  0.00  0.00    -0.228 NA
ATOM      4  N   UNL     1      35.199 -21.769 -19.002  0.00  0.00    -0.229 NA
ATOM      5  C   UNL     1      35.813 -22.769 -16.595  0.00  0.00    +0.151 C 
ATOM      6  C   UNL     1      34.509 -22.905 -17.043  0.00  0.00    +0.140 C 
ATOM      7  C   UNL     1      34.566 -23.822 -15.119  0.00  0.00    +0.221 C 
ATOM      8  C   UNL     1      34.216 -22.376 -18.296  0.00  0.00    +0.143 C 
ATOM      9  C   UNL     1      36.431 -21.712 -18.437  0.00  0.00    +0.253 C 
ATOM     10  N   UNL     1      32.917 -22.467 -18.827  0.00  0.00    -0.342 N 
ATOM     11  H   UNL     1      32.722 -22.090 -19.715  0.00  0.00    +0.144 HD
ATOM     12  H   UNL     1      32.204 -22.907 -18.311  0.00  0.00    +0.144 HD
ENDROOT
BRANCH   1  13
ATOM     13  C   UNL     1      36.966 -23.483 -14.480  0.00  0.00    +0.126 C 
BRANCH  13  14
ATOM     14  C   UNL     1      38.010 -24.478 -15.007  0.00  0.00    +0.168 C 
BRANCH  14  15
ATOM     15  O   UNL     1      38.965 -23.774 -15.799  0.00  0.00    -0.380 OA
ATOM     16  H   UNL     1      38.512 -23.328 -16.531  0.00  0.00    +0.211 HD
ENDBRANCH  14  15
BRANCH  14  17
ATOM     17  C   UNL     1      38.735 -25.245 -13.893  0.00  0.00    +0.238 C 
BRANCH  17  18
ATOM     18  O   UNL     1      37.995 -26.425 -13.608  0.00  0.00    -0.373 OA
ATOM     19  H   UNL     1      37.964 -26.986 -14.398  0.00  0.00    +0.211 HD
ENDBRANCH  17  18
BRANCH  17  21
ATOM     20  O   UNL     1      40.486 -26.800 -14.553  0.00  0.00    -0.248 OA
ATOM     21  C   UNL     1      40.149 -25.660 -14.259  0.00  0.00    +0.344 C 
BRANCH  21  22
ATOM     22  O   UNL     1      41.024 -24.624 -14.202  0.00  0.00    -0.478 OA
ATOM     23  H   UNL     1      40.805 -23.851 -13.721  0.00  0.00    +0.295 HD
ENDBRANCH  21  22
ENDBRANCH  17  21
ENDBRANCH  14  17
ENDBRANCH  13  14
ENDBRANCH   1  13
TORSDOF 7
ENDMDL
MODEL 6
REMARK VINA RESULT:      -7.7      2.010      3.116
REMARK  Name = 159961
REMARK  7 active torsions:
REMARK  status: ('A' for Active; 'I' for Inactive)
REMARK    1  A    between atoms: N_1  and  C_13
REMARK    2  A    between atoms: C_13  and  C_14
REMARK    3  A    between atoms: C_14  and  O_15
REMARK    4  A    between atoms: C_14  and  C_17
REMARK    5  A    between atoms: C_17  and  O_18
REMARK    6  A    between atoms: C_17  and  C_21
REMARK    7  A    between atoms: C_21  and  O_22
REMARK                            x       y       z     vdW  Elec       q    Type
REMARK                         _______ _______ _______ _____ _____    ______ ____
ROOT
ATOM      1  N   UNL     1      35.712 -23.243 -15.477  0.00  0.00    -0.269 N 
ATOM      2  N   UNL     1      33.717 -23.496 -16.393  0.00  0.00    -0.242 NA
ATOM      3  N   UNL     1      36.860 -22.038 -17.242  0.00  0.00    -0.228 NA
ATOM      4  N   UNL     1      35.375 -21.660 -19.142  0.00  0.00    -0.229 NA
ATOM      5  C   UNL     1      35.802 -22.650 -16.691  0.00  0.00    +0.151 C 
ATOM      6  C   UNL     1      34.545 -22.817 -17.251  0.00  0.00    +0.140 C 
ATOM      7  C   UNL     1      34.457 -23.738 -15.330  0.00  0.00    +0.221 C 
ATOM      8  C   UNL     1      34.350 -22.294 -18.525  0.00  0.00    +0.143 C 
ATOM      9  C   UNL     1      36.551 -21.573 -18.471  0.00  0.00    +0.253 C 
ATOM     10  N   UNL     1      33.105 -22.415 -19.167  0.00  0.00    -0.342 N 
ATOM     11  H   UNL     1      32.978 -22.041 -20.069  0.00  0.00    +0.144 HD
ATOM     12  H   UNL     1      32.361 -22.875 -18.716  0.00  0.00    +0.144 HD
ENDROOT
BRANCH   1  13
ATOM     13  C   UNL     1      36.783 -23.340 -14.483  0.00  0.00    +0.126 C 
BRANCH  13  14
ATOM     14  C   UNL     1      37.787 -24.454 -14.816  0.00  0.00    +0.168 C 
BRANCH  14  15
ATOM     15  O   UNL     1      38.875 -23.894 -15.547  0.00  0.00    -0.380 OA
ATOM     16  H   UNL     1      38.580 -23.662 -16.441  0.00  0.00    +0.211 HD
ENDBRANCH  14  15
BRANCH  14  17
ATOM     17  C   UNL     1      38.322 -25.179 -13.574  0.00  0.00    +0.238 C 
BRANCH  17  18
ATOM     18  O   UNL     1      38.688 -24.201 -12.608  0.00  0.00    -0.373 OA
ATOM     19  H   UNL     1      39.559 -24.419 -12.242  0.00  0.00    +0.211 HD
ENDBRANCH  17  18
BRANCH  17  21
ATOM     20  O   UNL     1      36.960 -26.057 -11.758  0.00  0.00    -0.248 OA
ATOM     21  C   UNL     1      37.311 -26.112 -12.930  0.00  0.00    +0.344 C 
BRANCH  21  22
ATOM     22  O   UNL     1      36.844 -27.047 -13.797  0.00  0.00    -0.478 OA
ATOM     23  H   UNL     1      36.321 -27.757 -13.483  0.00  0.00    +0.295 HD
ENDBRANCH  21  22
ENDBRANCH  17  21
ENDBRANCH  14  17
ENDBRANCH  13  14
ENDBRANCH   1  13
TORSDOF 7
ENDMDL
MODEL 7
REMARK VINA RESULT:      -7.6      2.632      4.064
REMARK  Name = 159961
REMARK  7 active torsions:
REMARK  status: ('A' for Active; 'I' for Inactive)
REMARK    1  A    between atoms: N_1  and  C_13
REMARK    2  A    between atoms: C_13  and  C_14
REMARK    3  A    between atoms: C_14  and  O_15
REMARK    4  A    between atoms: C_14  and  C_17
REMARK    5  A    between atoms: C_17  and  O_18
REMARK    6  A    between atoms: C_17  and  C_21
REMARK    7  A    between atoms: C_21  and  O_22
REMARK                            x       y       z     vdW  Elec       q    Type
REMARK                         _______ _______ _______ _____ _____    ______ ____
ROOT
ATOM      1  N   UNL     1      33.679 -24.034 -15.233  0.00  0.00    -0.269 N 
ATOM      2  N   UNL     1      32.601 -23.076 -16.907  0.00  0.00    -0.242 NA
ATOM      3  N   UNL     1      31.831 -24.532 -13.742  0.00  0.00    -0.228 NA
ATOM      4  N   UNL     1      29.715 -23.792 -14.708  0.00  0.00    -0.229 NA
ATOM      5  C   UNL     1      32.375 -24.049 -14.869  0.00  0.00    +0.151 C 
ATOM      6  C   UNL     1      31.714 -23.446 -15.927  0.00  0.00    +0.140 C 
ATOM      7  C   UNL     1      33.781 -23.447 -16.453  0.00  0.00    +0.221 C 
ATOM      8  C   UNL     1      30.333 -23.325 -15.819  0.00  0.00    +0.143 C 
ATOM      9  C   UNL     1      30.492 -24.359 -13.752  0.00  0.00    +0.253 C 
ATOM     10  N   UNL     1      29.581 -22.728 -16.847  0.00  0.00    -0.342 N 
ATOM     11  H   UNL     1      28.604 -22.648 -16.759  0.00  0.00    +0.144 HD
ATOM     12  H   UNL     1      30.033 -22.390 -17.654  0.00  0.00    +0.144 HD
ENDROOT
BRANCH   1  13
ATOM     13  C   UNL     1      34.799 -24.560 -14.450  0.00  0.00    +0.126 C 
BRANCH  13  14
ATOM     14  C   UNL     1      35.284 -23.564 -13.386  0.00  0.00    +0.168 C 
BRANCH  14  15
ATOM     15  O   UNL     1      34.376 -23.580 -12.287  0.00  0.00    -0.380 OA
ATOM     16  H   UNL     1      34.750 -23.074 -11.550  0.00  0.00    +0.211 HD
ENDBRANCH  14  15
BRANCH  14  17
ATOM     17  C   UNL     1      36.704 -23.858 -12.883  0.00  0.00    +0.238 C 
BRANCH  17  18
ATOM     18  O   UNL     1      37.619 -23.086 -13.651  0.00  0.00    -0.373 OA
ATOM     19  H   UNL     1      37.257 -22.196 -13.786  0.00  0.00    +0.211 HD
ENDBRANCH  17  18
BRANCH  17  21
ATOM     20  O   UNL     1      36.613 -24.234 -10.480  0.00  0.00    -0.248 OA
ATOM     21  C   UNL     1      36.915 -23.509 -11.420  0.00  0.00    +0.344 C 
BRANCH  21  22
ATOM     22  O   UNL     1      37.462 -22.278 -11.255  0.00  0.00    -0.478 OA
ATOM     23  H   UNL     1      37.870 -21.845 -11.979  0.00  0.00    +0.295 HD
ENDBRANCH  21  22
ENDBRANCH  17  21
ENDBRANCH  14  17
ENDBRANCH  13  14
ENDBRANCH   1  13
TORSDOF 7
ENDMDL
MODEL 8
REMARK VINA RESULT:      -7.6      3.938      6.340
REMARK  Name = 159961
REMARK  7 active torsions:
REMARK  status: ('A' for Active; 'I' for Inactive)
REMARK    1  A    between atoms: N_1  and  C_13
REMARK    2  A    between atoms: C_13  and  C_14
REMARK    3  A    between atoms: C_14  and  O_15
REMARK    4  A    between atoms: C_14  and  C_17
REMARK    5  A    between atoms: C_17  and  O_18
REMARK    6  A    between atoms: C_17  and  C_21
REMARK    7  A    between atoms: C_21  and  O_22
REMARK                            x       y       z     vdW  Elec       q    Type
REMARK                         _______ _______ _______ _____ _____    ______ ____
ROOT
ATOM      1  N   UNL     1      35.801 -23.844 -14.619  0.00  0.00    -0.269 N 
ATOM      2  N   UNL     1      37.812 -23.597 -13.737  0.00  0.00    -0.242 NA
ATOM      3  N   UNL     1      35.947 -26.128 -15.424  0.00  0.00    -0.228 NA
ATOM      4  N   UNL     1      38.136 -27.085 -14.924  0.00  0.00    -0.229 NA
ATOM      5  C   UNL     1      36.424 -25.029 -14.821  0.00  0.00    +0.151 C 
ATOM      6  C   UNL     1      37.681 -24.858 -14.263  0.00  0.00    +0.140 C 
ATOM      7  C   UNL     1      36.655 -23.012 -13.971  0.00  0.00    +0.221 C 
ATOM      8  C   UNL     1      38.551 -25.941 -14.330  0.00  0.00    +0.143 C 
ATOM      9  C   UNL     1      36.877 -27.106 -15.428  0.00  0.00    +0.253 C 
ATOM     10  N   UNL     1      39.846 -25.856 -13.787  0.00  0.00    -0.342 N 
ATOM     11  H   UNL     1      40.453 -26.629 -13.841  0.00  0.00    +0.144 HD
ATOM     12  H   UNL     1      40.144 -25.024 -13.355  0.00  0.00    +0.144 HD
ENDROOT
BRANCH   1  13
ATOM     13  C   UNL     1      34.436 -23.507 -15.027  0.00  0.00    +0.126 C 
BRANCH  13  14
ATOM     14  C   UNL     1      33.380 -24.140 -14.109  0.00  0.00    +0.168 C 
BRANCH  14  15
ATOM     15  O   UNL     1      33.573 -23.658 -12.780  0.00  0.00    -0.380 OA
ATOM     16  H   UNL     1      32.739 -23.297 -12.443  0.00  0.00    +0.211 HD
ENDBRANCH  14  15
BRANCH  14  17
ATOM     17  C   UNL     1      31.939 -23.854 -14.554  0.00  0.00    +0.238 C 
BRANCH  17  18
ATOM     18  O   UNL     1      31.911 -23.807 -15.975  0.00  0.00    -0.373 OA
ATOM     19  H   UNL     1      32.760 -23.472 -16.304  0.00  0.00    +0.211 HD
ENDBRANCH  17  18
BRANCH  17  21
ATOM     20  O   UNL     1      30.416 -25.730 -14.844  0.00  0.00    -0.248 OA
ATOM     21  C   UNL     1      30.943 -24.909 -14.104  0.00  0.00    +0.344 C 
BRANCH  21  22
ATOM     22  O   UNL     1      30.672 -24.832 -12.776  0.00  0.00    -0.478 OA
ATOM     23  H   UNL     1      30.568 -23.996 -12.367  0.00  0.00    +0.295 HD
ENDBRANCH  21  22
ENDBRANCH  17  21
ENDBRANCH  14  17
ENDBRANCH  13  14
ENDBRANCH   1  13
TORSDOF 7
ENDMDL
MODEL 9
REMARK VINA RESULT:      -7.6      1.717      2.234
REMARK  Name = 159961
REMARK  7 active torsions:
REMARK  status: ('A' for Active; 'I' for Inactive)
REMARK    1  A    between atoms: N_1  and  C_13
REMARK    2  A    between atoms: C_13  and  C_14
REMARK    3  A    between atoms: C_14  and  O_15
REMARK    4  A    between atoms: C_14  and  C_17
REMARK    5  A    between atoms: C_17  and  O_18
REMARK    6  A    between atoms: C_17  and  C_21
REMARK    7  A    between atoms: C_21  and  O_22
REMARK                            x       y       z     vdW  Elec       q    Type
REMARK                         _______ _______ _______ _____ _____    ______ ____
ROOT
ATOM      1  N   UNL     1      35.157 -24.097 -14.643  0.00  0.00    -0.269 N 
ATOM      2  N   UNL     1      33.351 -23.922 -13.383  0.00  0.00    -0.242 NA
ATOM      3  N   UNL     1      34.234 -23.559 -16.820  0.00  0.00    -0.228 NA
ATOM      4  N   UNL     1      31.845 -23.088 -16.656  0.00  0.00    -0.229 NA
ATOM      5  C   UNL     1      34.164 -23.755 -15.495  0.00  0.00    +0.151 C 
ATOM      6  C   UNL     1      33.039 -23.649 -14.691  0.00  0.00    +0.140 C 
ATOM      7  C   UNL     1      34.641 -24.189 -13.391  0.00  0.00    +0.221 C 
ATOM      8  C   UNL     1      31.848 -23.301 -15.319  0.00  0.00    +0.143 C 
ATOM      9  C   UNL     1      33.022 -23.229 -17.314  0.00  0.00    +0.253 C 
ATOM     10  N   UNL     1      30.659 -23.169 -14.579  0.00  0.00    -0.342 N 
ATOM     11  H   UNL     1      29.822 -22.923 -15.034  0.00  0.00    +0.144 HD
ATOM     12  H   UNL     1      30.665 -23.323 -13.607  0.00  0.00    +0.144 HD
ENDROOT
BRANCH   1  13
ATOM     13  C   UNL     1      36.558 -24.331 -15.000  0.00  0.00    +0.126 C 
BRANCH  13  14
ATOM     14  C   UNL     1      37.031 -25.739 -14.610  0.00  0.00    +0.168 C 
BRANCH  14  15
ATOM     15  O   UNL     1      37.419 -26.441 -15.789  0.00  0.00    -0.380 OA
ATOM     16  H   UNL     1      37.503 -27.386 -15.590  0.00  0.00    +0.211 HD
ENDBRANCH  14  15
BRANCH  14  17
ATOM     17  C   UNL     1      38.195 -25.733 -13.610  0.00  0.00    +0.238 C 
BRANCH  17  18
ATOM     18  O   UNL     1      39.091 -24.690 -13.973  0.00  0.00    -0.373 OA
ATOM     19  H   UNL     1      39.750 -24.571 -13.271  0.00  0.00    +0.211 HD
ENDBRANCH  17  18
BRANCH  17  21
ATOM     20  O   UNL     1      38.113 -24.543 -11.488  0.00  0.00    -0.248 OA
ATOM     21  C   UNL     1      37.762 -25.496 -12.174  0.00  0.00    +0.344 C 
BRANCH  21  22
ATOM     22  O   UNL     1      36.950 -26.480 -11.708  0.00  0.00    -0.478 OA
ATOM     23  H   UNL     1      36.340 -26.896 -12.285  0.00  0.00    +0.295 HD
ENDBRANCH  21  22
ENDBRANCH  17  21
ENDBRANCH  14  17
ENDBRANCH  13  14
ENDBRANCH   1  13
TORSDOF 7
ENDMDL
