MODEL 1
REMARK VINA RESULT:     -12.4      0.000      0.000
REMARK  Name = 17749728
REMARK  5 active torsions:
REMARK  status: ('A' for Active; 'I' for Inactive)
REMARK    1  A    between atoms: C_3  and  C_23
REMARK    2  A    between atoms: C_6  and  S_11
REMARK    3  A    between atoms: S_11  and  N_14
REMARK    4  A    between atoms: N_14  and  C_17
REMARK    5  A    between atoms: C_23  and  C_25
REMARK                            x       y       z     vdW  Elec       q    Type
REMARK                         _______ _______ _______ _____ _____    ______ ____
ROOT
ATOM      1  O   UNL     1      32.759 -13.338 -26.923  0.00  0.00    -0.210 OA
ATOM      2  N   UNL     1      33.661 -15.450 -26.524  0.00  0.00    -0.333 NA
ATOM      3  C   UNL     1      33.102 -14.128 -24.687  0.00  0.00    +0.081 C 
ATOM      4  C   UNL     1      33.591 -15.275 -24.212  0.00  0.00    +0.040 C 
ATOM      5  C   UNL     1      33.921 -16.053 -25.411  0.00  0.00    +0.145 C 
ATOM      6  C   UNL     1      34.339 -17.033 -22.792  0.00  0.00    +0.126 C 
ATOM      7  C   UNL     1      33.817 -15.800 -22.900  0.00  0.00    +0.023 C 
ATOM      8  C   UNL     1      33.139 -14.223 -26.171  0.00  0.00    +0.201 C 
ATOM      9  C   UNL     1      34.495 -17.400 -25.212  0.00  0.00    +0.034 C 
ATOM     10  C   UNL     1      34.681 -17.833 -23.955  0.00  0.00    +0.023 C 
ENDROOT
BRANCH   6  11
ATOM     11  S   UNL     1      34.605 -17.640 -21.205  0.00  0.00    +0.077 S 
ATOM     12  O   UNL     1      35.388 -16.659 -20.463  0.00  0.00    -0.150 OA
ATOM     13  O   UNL     1      33.319 -18.055 -20.656  0.00  0.00    -0.150 OA
BRANCH  11  14
ATOM     14  N   UNL     1      35.576 -19.077 -21.399  0.00  0.00    -0.189 N 
ATOM     15  C   UNL     1      37.019 -18.867 -21.693  0.00  0.00    +0.139 C 
BRANCH  14  17
ATOM     16 CL   UNL     1      37.099 -22.187 -17.568  0.00  0.00    -0.082 Cl
ATOM     17  C   UNL     1      35.262 -20.157 -20.485  0.00  0.00    +0.070 C 
ATOM     18  C   UNL     1      36.220 -20.600 -19.572  0.00  0.00    +0.028 C 
ATOM     19  C   UNL     1      34.003 -20.755 -20.519  0.00  0.00    +0.016 C 
ATOM     20  C   UNL     1      35.917 -21.640 -18.693  0.00  0.00    +0.059 C 
ATOM     21  C   UNL     1      33.701 -21.796 -19.641  0.00  0.00    +0.002 C 
ATOM     22  C   UNL     1      34.658 -22.238 -18.728  0.00  0.00    +0.011 C 
ENDBRANCH  14  17
ENDBRANCH  11  14
ENDBRANCH   6  11
BRANCH   3  23
ATOM     23  C   UNL     1      32.592 -12.930 -23.981  0.00  0.00    +0.082 C 
BRANCH  23  25
ATOM     24  N   UNL     1      34.405 -11.616 -25.117  0.00  0.00    -0.360 N 
ATOM     25  C   UNL     1      33.401 -11.668 -24.185  0.00  0.00    +0.034 A 
ATOM     26  C   UNL     1      33.333 -10.439 -23.568  0.00  0.00    -0.013 A 
ATOM     27  C   UNL     1      34.333  -9.618 -24.148  0.00  0.00    -0.013 A 
ATOM     28  C   UNL     1      34.980 -10.371 -25.103  0.00  0.00    +0.029 A 
ATOM     29  C   UNL     1      32.391 -10.050 -22.499  0.00  0.00    +0.032 C 
ATOM     30  C   UNL     1      34.627  -8.214 -23.797  0.00  0.00    +0.032 C 
ATOM     31  C   UNL     1      36.093 -10.038 -26.012  0.00  0.00    +0.049 C 
ATOM     32  H   UNL     1      34.673 -12.359 -25.705  0.00  0.00    +0.165 HD
ENDBRANCH  23  25
ENDBRANCH   3  23
TORSDOF 5
ENDMDL
MODEL 2
REMARK VINA RESULT:     -11.6      2.789      4.124
REMARK  Name = 17749728
REMARK  5 active torsions:
REMARK  status: ('A' for Active; 'I' for Inactive)
REMARK    1  A    between atoms: C_3  and  C_23
REMARK    2  A    between atoms: C_6  and  S_11
REMARK    3  A    between atoms: S_11  and  N_14
REMARK    4  A    between atoms: N_14  and  C_17
REMARK    5  A    between atoms: C_23  and  C_25
REMARK                            x       y       z     vdW  Elec       q    Type
REMARK                         _______ _______ _______ _____ _____    ______ ____
ROOT
ATOM      1  O   UNL     1      30.934 -11.079 -20.186  0.00  0.00    -0.210 OA
ATOM      2  N   UNL     1      32.019 -13.111 -19.832  0.00  0.00    -0.333 NA
ATOM      3  C   UNL     1      31.952 -12.265 -22.003  0.00  0.00    +0.081 C 
ATOM      4  C   UNL     1      32.617 -13.421 -22.051  0.00  0.00    +0.040 C 
ATOM      5  C   UNL     1      32.622 -13.895 -20.663  0.00  0.00    +0.145 C 
ATOM      6  C   UNL     1      33.843 -15.330 -22.771  0.00  0.00    +0.126 C 
ATOM      7  C   UNL     1      33.243 -14.173 -23.096  0.00  0.00    +0.023 C 
ATOM      8  C   UNL     1      31.559 -12.050 -20.584  0.00  0.00    +0.201 C 
ATOM      9  C   UNL     1      33.297 -15.179 -20.384  0.00  0.00    +0.034 C 
ATOM     10  C   UNL     1      33.866 -15.834 -21.409  0.00  0.00    +0.023 C 
ENDROOT
BRANCH   6  11
ATOM     11  S   UNL     1      34.584 -16.218 -24.045  0.00  0.00    +0.077 S 
ATOM     12  O   UNL     1      34.013 -15.770 -25.309  0.00  0.00    -0.150 OA
ATOM     13  O   UNL     1      36.030 -16.135 -23.872  0.00  0.00    -0.150 OA
BRANCH  11  14
ATOM     14  N   UNL     1      34.126 -17.883 -23.797  0.00  0.00    -0.189 N 
ATOM     15  C   UNL     1      33.955 -18.712 -25.021  0.00  0.00    +0.139 C 
BRANCH  14  17
ATOM     16 CL   UNL     1      33.718 -21.017 -19.714  0.00  0.00    -0.082 Cl
ATOM     17  C   UNL     1      34.763 -18.534 -22.671  0.00  0.00    +0.070 C 
ATOM     18  C   UNL     1      34.020 -19.366 -21.833  0.00  0.00    +0.028 C 
ATOM     19  C   UNL     1      36.120 -18.328 -22.424  0.00  0.00    +0.016 C 
ATOM     20  C   UNL     1      34.635 -19.991 -20.749  0.00  0.00    +0.059 C 
ATOM     21  C   UNL     1      36.734 -18.952 -21.339  0.00  0.00    +0.002 C 
ATOM     22  C   UNL     1      35.991 -19.785 -20.501  0.00  0.00    +0.011 C 
ENDBRANCH  14  17
ENDBRANCH  11  14
ENDBRANCH   6  11
BRANCH   3  23
ATOM     23  C   UNL     1      31.610 -11.302 -23.075  0.00  0.00    +0.082 C 
BRANCH  23  25
ATOM     24  N   UNL     1      31.826  -8.922 -22.307  0.00  0.00    -0.360 N 
ATOM     25  C   UNL     1      32.340  -9.979 -23.011  0.00  0.00    +0.034 A 
ATOM     26  C   UNL     1      33.533  -9.575 -23.568  0.00  0.00    -0.013 A 
ATOM     27  C   UNL     1      33.743  -8.226 -23.187  0.00  0.00    -0.013 A 
ATOM     28  C   UNL     1      32.672  -7.848 -22.407  0.00  0.00    +0.029 A 
ATOM     29  C   UNL     1      34.428 -10.398 -24.408  0.00  0.00    +0.032 C 
ATOM     30  C   UNL     1      34.897  -7.380 -23.554  0.00  0.00    +0.032 C 
ATOM     31  C   UNL     1      32.360  -6.569 -21.740  0.00  0.00    +0.049 C 
ATOM     32  H   UNL     1      30.978  -8.931 -21.807  0.00  0.00    +0.165 HD
ENDBRANCH  23  25
ENDBRANCH   3  23
TORSDOF 5
ENDMDL
MODEL 3
REMARK VINA RESULT:     -11.4      3.889      9.109
REMARK  Name = 17749728
REMARK  5 active torsions:
REMARK  status: ('A' for Active; 'I' for Inactive)
REMARK    1  A    between atoms: C_3  and  C_23
REMARK    2  A    between atoms: C_6  and  S_11
REMARK    3  A    between atoms: S_11  and  N_14
REMARK    4  A    between atoms: N_14  and  C_17
REMARK    5  A    between atoms: C_23  and  C_25
REMARK                            x       y       z     vdW  Elec       q    Type
REMARK                         _______ _______ _______ _____ _____    ______ ____
ROOT
ATOM      1  O   UNL     1      34.925 -18.900 -24.244  0.00  0.00    -0.210 OA
ATOM      2  N   UNL     1      33.952 -17.251 -25.573  0.00  0.00    -0.333 NA
ATOM      3  C   UNL     1      34.778 -16.632 -23.483  0.00  0.00    +0.081 C 
ATOM      4  C   UNL     1      34.277 -15.533 -24.049  0.00  0.00    +0.040 C 
ATOM      5  C   UNL     1      33.778 -15.990 -25.350  0.00  0.00    +0.145 C 
ATOM      6  C   UNL     1      33.585 -13.301 -24.499  0.00  0.00    +0.126 C 
ATOM      7  C   UNL     1      34.162 -14.164 -23.647  0.00  0.00    +0.023 C 
ATOM      8  C   UNL     1      34.578 -17.747 -24.448  0.00  0.00    +0.201 C 
ATOM      9  C   UNL     1      33.152 -14.983 -26.231  0.00  0.00    +0.034 C 
ATOM     10  C   UNL     1      33.076 -13.715 -25.795  0.00  0.00    +0.023 C 
ENDROOT
BRANCH   6  11
ATOM     11  S   UNL     1      33.455 -11.662 -23.993  0.00  0.00    +0.077 S 
ATOM     12  O   UNL     1      34.700 -11.284 -23.335  0.00  0.00    -0.150 OA
ATOM     13  O   UNL     1      33.007 -10.869 -25.132  0.00  0.00    -0.150 OA
BRANCH  11  14
ATOM     14  N   UNL     1      32.178 -11.629 -22.803  0.00  0.00    -0.189 N 
ATOM     15  C   UNL     1      31.881 -12.913 -22.114  0.00  0.00    +0.139 C 
BRANCH  14  17
ATOM     16 CL   UNL     1      32.482  -6.484 -22.475  0.00  0.00    -0.082 Cl
ATOM     17  C   UNL     1      32.140 -10.439 -21.977  0.00  0.00    +0.070 C 
ATOM     18  C   UNL     1      32.309  -9.181 -22.557  0.00  0.00    +0.028 C 
ATOM     19  C   UNL     1      31.936 -10.552 -20.602  0.00  0.00    +0.016 C 
ATOM     20  C   UNL     1      32.272  -8.037 -21.760  0.00  0.00    +0.059 C 
ATOM     21  C   UNL     1      31.900  -9.407 -19.806  0.00  0.00    +0.002 C 
ATOM     22  C   UNL     1      32.069  -8.149 -20.385  0.00  0.00    +0.011 C 
ENDBRANCH  14  17
ENDBRANCH  11  14
ENDBRANCH   6  11
BRANCH   3  23
ATOM     23  C   UNL     1      35.428 -16.831 -22.166  0.00  0.00    +0.082 C 
BRANCH  23  25
ATOM     24  N   UNL     1      33.886 -18.561 -21.200  0.00  0.00    -0.360 N 
ATOM     25  C   UNL     1      35.162 -18.168 -21.511  0.00  0.00    +0.034 A 
ATOM     26  C   UNL     1      36.020 -19.173 -21.122  0.00  0.00    -0.013 A 
ATOM     27  C   UNL     1      35.233 -20.207 -20.556  0.00  0.00    -0.013 A 
ATOM     28  C   UNL     1      33.917 -19.802 -20.618  0.00  0.00    +0.029 A 
ATOM     29  C   UNL     1      37.490 -19.171 -21.269  0.00  0.00    +0.032 C 
ATOM     30  C   UNL     1      35.728 -21.483 -20.004  0.00  0.00    +0.032 C 
ATOM     31  C   UNL     1      32.675 -20.469 -20.181  0.00  0.00    +0.049 C 
ATOM     32  H   UNL     1      33.073 -18.034 -21.368  0.00  0.00    +0.165 HD
ENDBRANCH  23  25
ENDBRANCH   3  23
TORSDOF 5
ENDMDL
MODEL 4
REMARK VINA RESULT:     -11.0      3.677      9.495
REMARK  Name = 17749728
REMARK  5 active torsions:
REMARK  status: ('A' for Active; 'I' for Inactive)
REMARK    1  A    between atoms: C_3  and  C_23
REMARK    2  A    between atoms: C_6  and  S_11
REMARK    3  A    between atoms: S_11  and  N_14
REMARK    4  A    between atoms: N_14  and  C_17
REMARK    5  A    between atoms: C_23  and  C_25
REMARK                            x       y       z     vdW  Elec       q    Type
REMARK                         _______ _______ _______ _____ _____    ______ ____
ROOT
ATOM      1  O   UNL     1      35.470 -19.347 -23.818  0.00  0.00    -0.210 OA
ATOM      2  N   UNL     1      34.428 -17.768 -25.179  0.00  0.00    -0.333 NA
ATOM      3  C   UNL     1      34.928 -17.167 -22.983  0.00  0.00    +0.081 C 
ATOM      4  C   UNL     1      34.344 -16.114 -23.556  0.00  0.00    +0.040 C 
ATOM      5  C   UNL     1      34.058 -16.557 -24.925  0.00  0.00    +0.145 C 
ATOM      6  C   UNL     1      33.402 -13.971 -23.988  0.00  0.00    +0.126 C 
ATOM      7  C   UNL     1      33.997 -14.797 -23.113  0.00  0.00    +0.023 C 
ATOM      8  C   UNL     1      34.990 -18.241 -24.011  0.00  0.00    +0.201 C 
ATOM      9  C   UNL     1      33.398 -15.592 -25.829  0.00  0.00    +0.034 C 
ATOM     10  C   UNL     1      33.100 -14.373 -25.350  0.00  0.00    +0.023 C 
ENDROOT
BRANCH   6  11
ATOM     11  S   UNL     1      32.992 -12.396 -23.431  0.00  0.00    +0.077 S 
ATOM     12  O   UNL     1      31.586 -12.155 -23.731  0.00  0.00    -0.150 OA
ATOM     13  O   UNL     1      33.433 -12.276 -22.046  0.00  0.00    -0.150 OA
BRANCH  11  14
ATOM     14  N   UNL     1      33.950 -11.288 -24.379  0.00  0.00    -0.189 N 
ATOM     15  C   UNL     1      34.037 -11.568 -25.838  0.00  0.00    +0.139 C 
BRANCH  14  17
ATOM     16 CL   UNL     1      30.914  -7.370 -22.930  0.00  0.00    -0.082 Cl
ATOM     17  C   UNL     1      33.826  -9.894 -24.004  0.00  0.00    +0.070 C 
ATOM     18  C   UNL     1      32.575  -9.365 -23.684  0.00  0.00    +0.028 C 
ATOM     19  C   UNL     1      34.958  -9.080 -23.966  0.00  0.00    +0.016 C 
ATOM     20  C   UNL     1      32.457  -8.023 -23.324  0.00  0.00    +0.059 C 
ATOM     21  C   UNL     1      34.839  -7.737 -23.607  0.00  0.00    +0.002 C 
ATOM     22  C   UNL     1      33.589  -7.209 -23.286  0.00  0.00    +0.011 C 
ENDBRANCH  14  17
ENDBRANCH  11  14
ENDBRANCH   6  11
BRANCH   3  23
ATOM     23  C   UNL     1      35.451 -17.354 -21.610  0.00  0.00    +0.082 C 
BRANCH  23  25
ATOM     24  N   UNL     1      36.226 -19.532 -20.631  0.00  0.00    -0.360 N 
ATOM     25  C   UNL     1      35.191 -18.713 -20.999  0.00  0.00    +0.034 A 
ATOM     26  C   UNL     1      34.013 -19.364 -20.707  0.00  0.00    -0.013 A 
ATOM     27  C   UNL     1      34.352 -20.620 -20.144  0.00  0.00    -0.013 A 
ATOM     28  C   UNL     1      35.727 -20.697 -20.109  0.00  0.00    +0.029 A 
ATOM     29  C   UNL     1      32.649 -18.846 -20.938  0.00  0.00    +0.032 C 
ATOM     30  C   UNL     1      33.407 -21.655 -19.679  0.00  0.00    +0.032 C 
ATOM     31  C   UNL     1      36.627 -21.764 -19.630  0.00  0.00    +0.049 C 
ATOM     32  H   UNL     1      37.182 -19.317 -20.728  0.00  0.00    +0.165 HD
ENDBRANCH  23  25
ENDBRANCH   3  23
TORSDOF 5
ENDMDL
MODEL 5
REMARK VINA RESULT:     -10.7      3.661      6.874
REMARK  Name = 17749728
REMARK  5 active torsions:
REMARK  status: ('A' for Active; 'I' for Inactive)
REMARK    1  A    between atoms: C_3  and  C_23
REMARK    2  A    between atoms: C_6  and  S_11
REMARK    3  A    between atoms: S_11  and  N_14
REMARK    4  A    between atoms: N_14  and  C_17
REMARK    5  A    between atoms: C_23  and  C_25
REMARK                            x       y       z     vdW  Elec       q    Type
REMARK                         _______ _______ _______ _____ _____    ______ ____
ROOT
ATOM      1  O   UNL     1      37.022 -18.292 -22.115  0.00  0.00    -0.210 OA
ATOM      2  N   UNL     1      37.432 -19.697 -20.301  0.00  0.00    -0.333 NA
ATOM      3  C   UNL     1      35.272 -19.633 -21.175  0.00  0.00    +0.081 C 
ATOM      4  C   UNL     1      35.259 -20.497 -20.159  0.00  0.00    +0.040 C 
ATOM      5  C   UNL     1      36.638 -20.489 -19.658  0.00  0.00    +0.145 C 
ATOM      6  C   UNL     1      34.608 -22.093 -18.518  0.00  0.00    +0.126 C 
ATOM      7  C   UNL     1      34.255 -21.320 -19.557  0.00  0.00    +0.023 C 
ATOM      8  C   UNL     1      36.660 -19.109 -21.282  0.00  0.00    +0.201 C 
ATOM      9  C   UNL     1      36.950 -21.363 -18.509  0.00  0.00    +0.034 C 
ATOM     10  C   UNL     1      35.962 -22.111 -17.992  0.00  0.00    +0.023 C 
ENDROOT
BRANCH   6  11
ATOM     11  S   UNL     1      33.383 -23.070 -17.809  0.00  0.00    +0.077 S 
ATOM     12  O   UNL     1      32.086 -22.494 -18.144  0.00  0.00    -0.150 OA
ATOM     13  O   UNL     1      33.639 -24.458 -18.179  0.00  0.00    -0.150 OA
BRANCH  11  14
ATOM     14  N   UNL     1      33.608 -22.943 -16.083  0.00  0.00    -0.189 N 
ATOM     15  C   UNL     1      32.419 -23.234 -15.237  0.00  0.00    +0.139 C 
BRANCH  14  17
ATOM     16 CL   UNL     1      36.697 -26.977 -15.165  0.00  0.00    -0.082 Cl
ATOM     17  C   UNL     1      34.876 -23.442 -15.591  0.00  0.00    +0.070 C 
ATOM     18  C   UNL     1      35.145 -24.810 -15.613  0.00  0.00    +0.028 C 
ATOM     19  C   UNL     1      35.829 -22.552 -15.094  0.00  0.00    +0.016 C 
ATOM     20  C   UNL     1      36.366 -25.288 -15.139  0.00  0.00    +0.059 C 
ATOM     21  C   UNL     1      37.049 -23.030 -14.619  0.00  0.00    +0.002 C 
ATOM     22  C   UNL     1      37.318 -24.399 -14.642  0.00  0.00    +0.011 C 
ENDBRANCH  14  17
ENDBRANCH  11  14
ENDBRANCH   6  11
BRANCH   3  23
ATOM     23  C   UNL     1      34.189 -19.199 -22.089  0.00  0.00    +0.082 C 
BRANCH  23  25
ATOM     24  N   UNL     1      33.595 -16.932 -21.189  0.00  0.00    -0.360 N 
ATOM     25  C   UNL     1      34.030 -17.703 -22.236  0.00  0.00    +0.034 A 
ATOM     26  C   UNL     1      34.252 -16.870 -23.310  0.00  0.00    -0.013 A 
ATOM     27  C   UNL     1      33.939 -15.551 -22.894  0.00  0.00    -0.013 A 
ATOM     28  C   UNL     1      33.537 -15.619 -21.579  0.00  0.00    +0.029 A 
ATOM     29  C   UNL     1      34.730 -17.278 -24.647  0.00  0.00    +0.032 C 
ATOM     30  C   UNL     1      34.029 -14.328 -23.718  0.00  0.00    +0.032 C 
ATOM     31  C   UNL     1      33.097 -14.567 -20.642  0.00  0.00    +0.049 C 
ATOM     32  H   UNL     1      33.361 -17.270 -20.295  0.00  0.00    +0.165 HD
ENDBRANCH  23  25
ENDBRANCH   3  23
TORSDOF 5
ENDMDL
MODEL 6
REMARK VINA RESULT:     -10.7      5.503     11.134
REMARK  Name = 17749728
REMARK  5 active torsions:
REMARK  status: ('A' for Active; 'I' for Inactive)
REMARK    1  A    between atoms: C_3  and  C_23
REMARK    2  A    between atoms: C_6  and  S_11
REMARK    3  A    between atoms: S_11  and  N_14
REMARK    4  A    between atoms: N_14  and  C_17
REMARK    5  A    between atoms: C_23  and  C_25
REMARK                            x       y       z     vdW  Elec       q    Type
REMARK                         _______ _______ _______ _____ _____    ______ ____
ROOT
ATOM      1  O   UNL     1      32.126 -14.641 -22.034  0.00  0.00    -0.210 OA
ATOM      2  N   UNL     1      31.635 -12.681 -20.874  0.00  0.00    -0.333 NA
ATOM      3  C   UNL     1      32.733 -12.499 -22.922  0.00  0.00    +0.081 C 
ATOM      4  C   UNL     1      32.563 -11.261 -22.456  0.00  0.00    +0.040 C 
ATOM      5  C   UNL     1      31.872 -11.447 -21.175  0.00  0.00    +0.145 C 
ATOM      6  C   UNL     1      32.563  -8.897 -22.182  0.00  0.00    +0.126 C 
ATOM      7  C   UNL     1      32.900  -9.956 -22.936  0.00  0.00    +0.023 C 
ATOM      8  C   UNL     1      32.142 -13.425 -21.918  0.00  0.00    +0.201 C 
ATOM      9  C   UNL     1      31.537 -10.234 -20.400  0.00  0.00    +0.034 C 
ATOM     10  C   UNL     1      31.881  -9.040 -20.908  0.00  0.00    +0.023 C 
ENDROOT
BRANCH   6  11
ATOM     11  S   UNL     1      32.982  -7.339 -22.779  0.00  0.00    +0.077 S 
ATOM     12  O   UNL     1      32.618  -6.349 -21.773  0.00  0.00    -0.150 OA
ATOM     13  O   UNL     1      34.367  -7.385 -23.234  0.00  0.00    -0.150 OA
BRANCH  11  14
ATOM     14  N   UNL     1      31.981  -7.080 -24.185  0.00  0.00    -0.189 N 
ATOM     15  C   UNL     1      30.600  -7.630 -24.126  0.00  0.00    +0.139 C 
BRANCH  14  17
ATOM     16 CL   UNL     1      34.549  -4.021 -27.458  0.00  0.00    -0.082 Cl
ATOM     17  C   UNL     1      32.123  -5.779 -24.808  0.00  0.00    +0.070 C 
ATOM     18  C   UNL     1      33.148  -5.553 -25.727  0.00  0.00    +0.028 C 
ATOM     19  C   UNL     1      31.235  -4.753 -24.487  0.00  0.00    +0.016 C 
ATOM     20  C   UNL     1      33.284  -4.301 -26.325  0.00  0.00    +0.059 C 
ATOM     21  C   UNL     1      31.372  -3.500 -25.085  0.00  0.00    +0.002 C 
ATOM     22  C   UNL     1      32.397  -3.274 -26.004  0.00  0.00    +0.011 C 
ENDBRANCH  14  17
ENDBRANCH  11  14
ENDBRANCH   6  11
BRANCH   3  23
ATOM     23  C   UNL     1      33.365 -12.983 -24.171  0.00  0.00    +0.082 C 
BRANCH  23  25
ATOM     24  N   UNL     1      34.545 -14.915 -23.087  0.00  0.00    -0.360 N 
ATOM     25  C   UNL     1      33.826 -14.423 -24.145  0.00  0.00    +0.034 A 
ATOM     26  C   UNL     1      33.659 -15.445 -25.054  0.00  0.00    -0.013 A 
ATOM     27  C   UNL     1      34.301 -16.592 -24.523  0.00  0.00    -0.013 A 
ATOM     28  C   UNL     1      34.839 -16.236 -23.306  0.00  0.00    +0.029 A 
ATOM     29  C   UNL     1      32.941 -15.358 -26.342  0.00  0.00    +0.032 C 
ATOM     30  C   UNL     1      34.377 -17.925 -25.156  0.00  0.00    +0.032 C 
ATOM     31  C   UNL     1      35.611 -17.018 -22.321  0.00  0.00    +0.049 C 
ATOM     32  H   UNL     1      34.810 -14.399 -22.292  0.00  0.00    +0.165 HD
ENDBRANCH  23  25
ENDBRANCH   3  23
TORSDOF 5
ENDMDL
MODEL 7
REMARK VINA RESULT:     -10.6      6.421     12.204
REMARK  Name = 17749728
REMARK  5 active torsions:
REMARK  status: ('A' for Active; 'I' for Inactive)
REMARK    1  A    between atoms: C_3  and  C_23
REMARK    2  A    between atoms: C_6  and  S_11
REMARK    3  A    between atoms: S_11  and  N_14
REMARK    4  A    between atoms: N_14  and  C_17
REMARK    5  A    between atoms: C_23  and  C_25
REMARK                            x       y       z     vdW  Elec       q    Type
REMARK                         _______ _______ _______ _____ _____    ______ ____
ROOT
ATOM      1  O   UNL     1      31.934 -11.617 -19.188  0.00  0.00    -0.210 OA
ATOM      2  N   UNL     1      32.321  -9.320 -19.273  0.00  0.00    -0.333 NA
ATOM      3  C   UNL     1      31.492 -10.366 -21.184  0.00  0.00    +0.081 C 
ATOM      4  C   UNL     1      31.629  -9.071 -21.472  0.00  0.00    +0.040 C 
ATOM      5  C   UNL     1      32.151  -8.477 -20.237  0.00  0.00    +0.145 C 
ATOM      6  C   UNL     1      31.640  -6.956 -22.565  0.00  0.00    +0.126 C 
ATOM      7  C   UNL     1      31.383  -8.273 -22.635  0.00  0.00    +0.023 C 
ATOM      8  C   UNL     1      31.932 -10.545 -19.774  0.00  0.00    +0.201 C 
ATOM      9  C   UNL     1      32.413  -7.023 -20.238  0.00  0.00    +0.034 C 
ATOM     10  C   UNL     1      32.160  -6.332 -21.361  0.00  0.00    +0.023 C 
ENDROOT
BRANCH   6  11
ATOM     11  S   UNL     1      31.340  -6.019 -23.976  0.00  0.00    +0.077 S 
ATOM     12  O   UNL     1      30.651  -6.859 -24.948  0.00  0.00    -0.150 OA
ATOM     13  O   UNL     1      30.703  -4.773 -23.566  0.00  0.00    -0.150 OA
BRANCH  11  14
ATOM     14  N   UNL     1      32.909  -5.612 -24.623  0.00  0.00    -0.189 N 
ATOM     15  C   UNL     1      33.959  -6.662 -24.525  0.00  0.00    +0.139 C 
BRANCH  14  17
ATOM     16 CL   UNL     1      30.808  -1.798 -27.398  0.00  0.00    -0.082 Cl
ATOM     17  C   UNL     1      32.887  -4.846 -25.853  0.00  0.00    +0.070 C 
ATOM     18  C   UNL     1      31.966  -3.811 -26.013  0.00  0.00    +0.028 C 
ATOM     19  C   UNL     1      33.784  -5.147 -26.877  0.00  0.00    +0.016 C 
ATOM     20  C   UNL     1      31.945  -3.075 -27.198  0.00  0.00    +0.059 C 
ATOM     21  C   UNL     1      33.762  -4.412 -28.062  0.00  0.00    +0.002 C 
ATOM     22  C   UNL     1      32.842  -3.376 -28.223  0.00  0.00    +0.011 C 
ENDBRANCH  14  17
ENDBRANCH  11  14
ENDBRANCH   6  11
BRANCH   3  23
ATOM     23  C   UNL     1      31.009 -11.495 -22.013  0.00  0.00    +0.082 C 
BRANCH  23  25
ATOM     24  N   UNL     1      31.868 -13.705 -21.188  0.00  0.00    -0.360 N 
ATOM     25  C   UNL     1      31.944 -12.681 -22.095  0.00  0.00    +0.034 A 
ATOM     26  C   UNL     1      32.958 -12.975 -22.980  0.00  0.00    -0.013 A 
ATOM     27  C   UNL     1      33.512 -14.220 -22.590  0.00  0.00    -0.013 A 
ATOM     28  C   UNL     1      32.819 -14.649 -21.479  0.00  0.00    +0.029 A 
ATOM     29  C   UNL     1      33.387 -12.145 -24.124  0.00  0.00    +0.032 C 
ATOM     30  C   UNL     1      34.626 -14.930 -23.251  0.00  0.00    +0.032 C 
ATOM     31  C   UNL     1      32.960 -15.865 -20.656  0.00  0.00    +0.049 C 
ATOM     32  H   UNL     1      31.230 -13.754 -20.440  0.00  0.00    +0.165 HD
ENDBRANCH  23  25
ENDBRANCH   3  23
TORSDOF 5
ENDMDL
MODEL 8
REMARK VINA RESULT:     -10.6      3.501      6.349
REMARK  Name = 17749728
REMARK  5 active torsions:
REMARK  status: ('A' for Active; 'I' for Inactive)
REMARK    1  A    between atoms: C_3  and  C_23
REMARK    2  A    between atoms: C_6  and  S_11
REMARK    3  A    between atoms: S_11  and  N_14
REMARK    4  A    between atoms: N_14  and  C_17
REMARK    5  A    between atoms: C_23  and  C_25
REMARK                            x       y       z     vdW  Elec       q    Type
REMARK                         _______ _______ _______ _____ _____    ______ ____
ROOT
ATOM      1  O   UNL     1      32.416  -6.721 -20.831  0.00  0.00    -0.210 OA
ATOM      2  N   UNL     1      31.597  -8.895 -20.641  0.00  0.00    -0.333 NA
ATOM      3  C   UNL     1      33.174  -8.455 -22.301  0.00  0.00    +0.081 C 
ATOM      4  C   UNL     1      32.862  -9.749 -22.388  0.00  0.00    +0.040 C 
ATOM      5  C   UNL     1      31.873  -9.956 -21.324  0.00  0.00    +0.145 C 
ATOM      6  C   UNL     1      32.740 -12.037 -23.031  0.00  0.00    +0.126 C 
ATOM      7  C   UNL     1      33.278 -10.824 -23.236  0.00  0.00    +0.023 C 
ATOM      8  C   UNL     1      32.371  -7.889 -21.184  0.00  0.00    +0.201 C 
ATOM      9  C   UNL     1      31.323 -11.318 -21.162  0.00  0.00    +0.034 C 
ATOM     10  C   UNL     1      31.757 -12.282 -21.990  0.00  0.00    +0.023 C 
ENDROOT
BRANCH   6  11
ATOM     11  S   UNL     1      33.252 -13.312 -24.066  0.00  0.00    +0.077 S 
ATOM     12  O   UNL     1      32.095 -14.141 -24.381  0.00  0.00    -0.150 OA
ATOM     13  O   UNL     1      34.004 -12.726 -25.170  0.00  0.00    -0.150 OA
BRANCH  11  14
ATOM     14  N   UNL     1      34.370 -14.270 -23.128  0.00  0.00    -0.189 N 
ATOM     15  C   UNL     1      34.387 -14.020 -21.661  0.00  0.00    +0.139 C 
BRANCH  14  17
ATOM     16 CL   UNL     1      34.860 -19.235 -21.796  0.00  0.00    -0.082 Cl
ATOM     17  C   UNL     1      34.488 -15.654 -23.540  0.00  0.00    +0.070 C 
ATOM     18  C   UNL     1      34.603 -16.660 -22.581  0.00  0.00    +0.028 C 
ATOM     19  C   UNL     1      34.489 -15.979 -24.896  0.00  0.00    +0.016 C 
ATOM     20  C   UNL     1      34.717 -17.992 -22.979  0.00  0.00    +0.059 C 
ATOM     21  C   UNL     1      34.605 -17.310 -25.294  0.00  0.00    +0.002 C 
ATOM     22  C   UNL     1      34.719 -18.318 -24.335  0.00  0.00    +0.011 C 
ENDBRANCH  14  17
ENDBRANCH  11  14
ENDBRANCH   6  11
BRANCH   3  23
ATOM     23  C   UNL     1      34.114  -7.632 -23.097  0.00  0.00    +0.082 C 
BRANCH  23  25
ATOM     24  N   UNL     1      32.247  -6.077 -23.728  0.00  0.00    -0.360 N 
ATOM     25  C   UNL     1      33.467  -6.627 -24.024  0.00  0.00    +0.034 A 
ATOM     26  C   UNL     1      33.890  -6.098 -25.223  0.00  0.00    -0.013 A 
ATOM     27  C   UNL     1      32.888  -5.198 -25.664  0.00  0.00    -0.013 A 
ATOM     28  C   UNL     1      31.884  -5.204 -24.721  0.00  0.00    +0.029 A 
ATOM     29  C   UNL     1      35.155  -6.411 -25.917  0.00  0.00    +0.032 C 
ATOM     30  C   UNL     1      32.914  -4.398 -26.906  0.00  0.00    +0.032 C 
ATOM     31  C   UNL     1      30.607  -4.468 -24.657  0.00  0.00    +0.049 C 
ATOM     32  H   UNL     1      31.713  -6.279 -22.926  0.00  0.00    +0.165 HD
ENDBRANCH  23  25
ENDBRANCH   3  23
TORSDOF 5
ENDMDL
MODEL 9
REMARK VINA RESULT:     -10.5      7.570     11.243
REMARK  Name = 17749728
REMARK  5 active torsions:
REMARK  status: ('A' for Active; 'I' for Inactive)
REMARK    1  A    between atoms: C_3  and  C_23
REMARK    2  A    between atoms: C_6  and  S_11
REMARK    3  A    between atoms: S_11  and  N_14
REMARK    4  A    between atoms: N_14  and  C_17
REMARK    5  A    between atoms: C_23  and  C_25
REMARK                            x       y       z     vdW  Elec       q    Type
REMARK                         _______ _______ _______ _____ _____    ______ ____
ROOT
ATOM      1  O   UNL     1      30.961 -22.482 -17.801  0.00  0.00    -0.210 OA
ATOM      2  N   UNL     1      31.030 -22.655 -15.478  0.00  0.00    -0.333 NA
ATOM      3  C   UNL     1      32.891 -23.367 -16.689  0.00  0.00    +0.081 C 
ATOM      4  C   UNL     1      33.163 -23.562 -15.398  0.00  0.00    +0.040 C 
ATOM      5  C   UNL     1      31.960 -23.096 -14.698  0.00  0.00    +0.145 C 
ATOM      6  C   UNL     1      34.215 -24.129 -13.339  0.00  0.00    +0.126 C 
ATOM      7  C   UNL     1      34.287 -24.080 -14.679  0.00  0.00    +0.023 C 
ATOM      8  C   UNL     1      31.523 -22.785 -16.760  0.00  0.00    +0.201 C 
ATOM      9  C   UNL     1      31.954 -23.184 -13.224  0.00  0.00    +0.034 C 
ATOM     10  C   UNL     1      33.041 -23.680 -12.611  0.00  0.00    +0.023 C 
ENDROOT
BRANCH   6  11
ATOM     11  S   UNL     1      35.576 -24.760 -12.498  0.00  0.00    +0.077 S 
ATOM     12  O   UNL     1      35.265 -24.784 -11.074  0.00  0.00    -0.150 OA
ATOM     13  O   UNL     1      35.967 -26.010 -13.141  0.00  0.00    -0.150 OA
BRANCH  11  14
ATOM     14  N   UNL     1      36.870 -23.617 -12.755  0.00  0.00    -0.189 N 
ATOM     15  C   UNL     1      37.367 -22.898 -11.551  0.00  0.00    +0.139 C 
BRANCH  14  17
ATOM     16 CL   UNL     1      41.010 -26.522 -13.798  0.00  0.00    -0.082 Cl
ATOM     17  C   UNL     1      37.877 -24.035 -13.708  0.00  0.00    +0.070 C 
ATOM     18  C   UNL     1      38.845 -24.969 -13.337  0.00  0.00    +0.028 C 
ATOM     19  C   UNL     1      37.880 -23.502 -14.997  0.00  0.00    +0.016 C 
ATOM     20  C   UNL     1      39.815 -25.370 -14.256  0.00  0.00    +0.059 C 
ATOM     21  C   UNL     1      38.851 -23.903 -15.915  0.00  0.00    +0.002 C 
ATOM     22  C   UNL     1      39.818 -24.837 -15.545  0.00  0.00    +0.011 C 
ENDBRANCH  14  17
ENDBRANCH  11  14
ENDBRANCH   6  11
BRANCH   3  23
ATOM     23  C   UNL     1      33.702 -23.635 -17.899  0.00  0.00    +0.082 C 
BRANCH  23  25
ATOM     24  N   UNL     1      33.025 -21.845 -19.524  0.00  0.00    -0.360 N 
ATOM     25  C   UNL     1      34.001 -22.426 -18.756  0.00  0.00    +0.034 A 
ATOM     26  C   UNL     1      35.166 -21.716 -18.946  0.00  0.00    -0.013 A 
ATOM     27  C   UNL     1      34.881 -20.671 -19.861  0.00  0.00    -0.013 A 
ATOM     28  C   UNL     1      33.550 -20.775 -20.201  0.00  0.00    +0.029 A 
ATOM     29  C   UNL     1      36.471 -21.993 -18.311  0.00  0.00    +0.032 C 
ATOM     30  C   UNL     1      35.832 -19.657 -20.358  0.00  0.00    +0.032 C 
ATOM     31  C   UNL     1      32.713 -19.963 -21.106  0.00  0.00    +0.049 C 
ATOM     32  H   UNL     1      32.091 -22.150 -19.580  0.00  0.00    +0.165 HD
ENDBRANCH  23  25
ENDBRANCH   3  23
TORSDOF 5
ENDMDL
