MODEL 1
REMARK VINA RESULT:     -12.0      0.000      0.000
REMARK  Name = 25243853
REMARK  6 active torsions:
REMARK  status: ('A' for Active; 'I' for Inactive)
REMARK    1  A    between atoms: N_1  and  C_6
REMARK    2  A    between atoms: N_1  and  C_21
REMARK    3  A    between atoms: C_3  and  C_16
REMARK    4  A    between atoms: C_11  and  C_18
REMARK    5  A    between atoms: C_18  and  O_19
REMARK    6  A    between atoms: C_21  and  C_28
REMARK                            x       y       z     vdW  Elec       q    Type
REMARK                         _______ _______ _______ _____ _____    ______ ____
ROOT
ATOM      1  N   UNL     1      34.340 -22.756 -17.866  0.00  0.00    -0.327 N 
ATOM      2  H   UNL     1      34.059 -23.685 -18.032  0.00  0.00    +0.147 HD
ENDROOT
BRANCH   1   6
ATOM      3  C   UNL     1      34.583 -20.122 -21.128  0.00  0.00    +0.054 C 
ATOM      4  C   UNL     1      33.337 -20.485 -20.617  0.00  0.00    +0.006 C 
ATOM      5  C   UNL     1      35.748 -20.633 -20.556  0.00  0.00    +0.006 C 
ATOM      6  C   UNL     1      34.422 -21.871 -18.962  0.00  0.00    +0.045 C 
ATOM      7  C   UNL     1      33.257 -21.359 -19.533  0.00  0.00    +0.014 C 
ATOM      8  C   UNL     1      35.668 -21.508 -19.473  0.00  0.00    +0.014 C 
BRANCH   3  16
ATOM      9  O   UNL     1      35.151 -19.662 -23.302  0.00  0.00    -0.270 OA
ATOM     10  N   UNL     1      34.200 -17.896 -22.098  0.00  0.00    -0.276 N 
ATOM     11  C   UNL     1      34.625 -15.086 -21.502  0.00  0.00    +0.102 C 
ATOM     12  C   UNL     1      35.116 -15.724 -22.805  0.00  0.00    +0.033 C 
ATOM     13  C   UNL     1      34.413 -16.124 -20.396  0.00  0.00    +0.033 C 
ATOM     14  C   UNL     1      34.291 -16.946 -23.203  0.00  0.00    +0.094 C 
ATOM     15  C   UNL     1      33.626 -17.349 -20.864  0.00  0.00    +0.094 C 
ATOM     16  C   UNL     1      34.669 -19.201 -22.269  0.00  0.00    +0.249 C 
BRANCH  11  18
ATOM     17  O   UNL     1      32.488 -14.137 -20.920  0.00  0.00    -0.250 OA
ATOM     18  C   UNL     1      33.372 -14.295 -21.750  0.00  0.00    +0.317 C 
BRANCH  18  19
ATOM     19  O   UNL     1      33.391 -13.799 -23.020  0.00  0.00    -0.444 OA
ATOM     20  C   UNL     1      32.990 -12.432 -23.151  0.00  0.00    +0.256 C 
ENDBRANCH  18  19
ENDBRANCH  11  18
ENDBRANCH   3  16
ENDBRANCH   1   6
BRANCH   1  21
ATOM     21  C   UNL     1      34.647 -22.364 -16.526  0.00  0.00    +0.145 C 
BRANCH  21  28
ATOM     22  N   UNL     1      35.929 -24.272 -15.711  0.00  0.00    -0.392 NA
ATOM     23  N   UNL     1      38.266 -22.790 -15.648  0.00  0.00    -0.200 NA
ATOM     24  N   UNL     1      39.432 -24.635 -14.876  0.00  0.00    -0.271 NA
ATOM     25  N   UNL     1      38.323 -26.729 -14.506  0.00  0.00    -0.310 NA
ATOM     26  N   UNL     1      36.007 -26.915 -14.933  0.00  0.00    -0.329 N 
ATOM     27  N   UNL     1      40.616 -26.503 -14.092  0.00  0.00    -0.283 N 
ATOM     28  C   UNL     1      35.943 -22.981 -16.079  0.00  0.00    +0.133 C 
ATOM     29  C   UNL     1      37.099 -22.249 -16.048  0.00  0.00    +0.193 C 
ATOM     30  C   UNL     1      37.097 -24.811 -15.312  0.00  0.00    +0.248 C 
ATOM     31  C   UNL     1      38.284 -24.076 -15.276  0.00  0.00    +0.131 C 
ATOM     32  C   UNL     1      37.189 -26.131 -14.915  0.00  0.00    +0.231 C 
ATOM     33  C   UNL     1      39.397 -25.931 -14.511  0.00  0.00    +0.207 C 
ATOM     34  H   UNL     1      36.038 -27.859 -14.655  0.00  0.00    +0.145 HD
ATOM     35  H   UNL     1      35.156 -26.516 -15.223  0.00  0.00    +0.145 HD
ATOM     36  H   UNL     1      41.436 -25.959 -14.077  0.00  0.00    +0.156 HD
ATOM     37  H   UNL     1      40.648 -27.448 -13.814  0.00  0.00    +0.156 HD
ENDBRANCH  21  28
ENDBRANCH   1  21
TORSDOF 6
ENDMDL
MODEL 2
REMARK VINA RESULT:     -12.0      1.846      2.747
REMARK  Name = 25243853
REMARK  6 active torsions:
REMARK  status: ('A' for Active; 'I' for Inactive)
REMARK    1  A    between atoms: N_1  and  C_6
REMARK    2  A    between atoms: N_1  and  C_21
REMARK    3  A    between atoms: C_3  and  C_16
REMARK    4  A    between atoms: C_11  and  C_18
REMARK    5  A    between atoms: C_18  and  O_19
REMARK    6  A    between atoms: C_21  and  C_28
REMARK                            x       y       z     vdW  Elec       q    Type
REMARK                         _______ _______ _______ _____ _____    ______ ____
ROOT
ATOM      1  N   UNL     1      34.927 -22.074 -18.735  0.00  0.00    -0.327 N 
ATOM      2  H   UNL     1      35.796 -22.236 -18.301  0.00  0.00    +0.147 HD
ENDROOT
BRANCH   1   6
ATOM      3  C   UNL     1      34.705 -19.153 -21.745  0.00  0.00    +0.054 C 
ATOM      4  C   UNL     1      33.540 -19.759 -21.275  0.00  0.00    +0.006 C 
ATOM      5  C   UNL     1      35.943 -19.516 -21.215  0.00  0.00    +0.006 C 
ATOM      6  C   UNL     1      34.852 -21.092 -19.746  0.00  0.00    +0.045 C 
ATOM      7  C   UNL     1      33.614 -20.729 -20.274  0.00  0.00    +0.014 C 
ATOM      8  C   UNL     1      36.017 -20.486 -20.216  0.00  0.00    +0.014 C 
BRANCH   3  16
ATOM      9  O   UNL     1      35.122 -18.434 -23.883  0.00  0.00    -0.270 OA
ATOM     10  N   UNL     1      34.006 -16.919 -22.494  0.00  0.00    -0.276 N 
ATOM     11  C   UNL     1      34.097 -14.140 -21.653  0.00  0.00    +0.102 C 
ATOM     12  C   UNL     1      34.612 -14.593 -23.023  0.00  0.00    +0.033 C 
ATOM     13  C   UNL     1      34.062 -15.290 -20.642  0.00  0.00    +0.033 C 
ATOM     14  C   UNL     1      33.931 -15.871 -23.509  0.00  0.00    +0.094 C 
ATOM     15  C   UNL     1      33.417 -16.561 -21.198  0.00  0.00    +0.094 C 
ATOM     16  C   UNL     1      34.627 -18.132 -22.798  0.00  0.00    +0.249 C 
BRANCH  11  18
ATOM     17  O   UNL     1      32.180 -13.319 -22.860  0.00  0.00    -0.250 OA
ATOM     18  C   UNL     1      32.745 -13.499 -21.790  0.00  0.00    +0.317 C 
BRANCH  18  19
ATOM     19  O   UNL     1      32.273 -13.163 -20.557  0.00  0.00    -0.444 OA
ATOM     20  C   UNL     1      31.589 -11.908 -20.483  0.00  0.00    +0.256 C 
ENDBRANCH  18  19
ENDBRANCH  11  18
ENDBRANCH   3  16
ENDBRANCH   1   6
BRANCH   1  21
ATOM     21  C   UNL     1      33.798 -22.844 -18.315  0.00  0.00    +0.145 C 
BRANCH  21  28
ATOM     22  N   UNL     1      35.145 -23.469 -16.381  0.00  0.00    -0.392 NA
ATOM     23  N   UNL     1      32.909 -23.604 -14.755  0.00  0.00    -0.200 NA
ATOM     24  N   UNL     1      34.238 -24.195 -12.953  0.00  0.00    -0.271 NA
ATOM     25  N   UNL     1      36.614 -24.414 -13.191  0.00  0.00    -0.310 NA
ATOM     26  N   UNL     1      37.617 -24.024 -15.294  0.00  0.00    -0.329 N 
ATOM     27  N   UNL     1      35.582 -24.795 -11.125  0.00  0.00    -0.283 N 
ATOM     28  C   UNL     1      33.920 -23.210 -16.862  0.00  0.00    +0.133 C 
ATOM     29  C   UNL     1      32.815 -23.276 -16.057  0.00  0.00    +0.193 C 
ATOM     30  C   UNL     1      35.238 -23.797 -15.077  0.00  0.00    +0.248 C 
ATOM     31  C   UNL     1      34.119 -23.868 -14.245  0.00  0.00    +0.131 C 
ATOM     32  C   UNL     1      36.453 -24.081 -14.485  0.00  0.00    +0.231 C 
ATOM     33  C   UNL     1      35.476 -24.451 -12.489  0.00  0.00    +0.207 C 
ATOM     34  H   UNL     1      38.499 -24.221 -14.904  0.00  0.00    +0.145 HD
ATOM     35  H   UNL     1      37.544 -23.786 -16.247  0.00  0.00    +0.145 HD
ATOM     36  H   UNL     1      34.774 -24.838 -10.563  0.00  0.00    +0.156 HD
ATOM     37  H   UNL     1      36.463 -24.993 -10.733  0.00  0.00    +0.156 HD
ENDBRANCH  21  28
ENDBRANCH   1  21
TORSDOF 6
ENDMDL
MODEL 3
REMARK VINA RESULT:     -11.9      2.095      2.673
REMARK  Name = 25243853
REMARK  6 active torsions:
REMARK  status: ('A' for Active; 'I' for Inactive)
REMARK    1  A    between atoms: N_1  and  C_6
REMARK    2  A    between atoms: N_1  and  C_21
REMARK    3  A    between atoms: C_3  and  C_16
REMARK    4  A    between atoms: C_11  and  C_18
REMARK    5  A    between atoms: C_18  and  O_19
REMARK    6  A    between atoms: C_21  and  C_28
REMARK                            x       y       z     vdW  Elec       q    Type
REMARK                         _______ _______ _______ _____ _____    ______ ____
ROOT
ATOM      1  N   UNL     1      36.140 -21.659 -18.720  0.00  0.00    -0.327 N 
ATOM      2  H   UNL     1      37.086 -21.790 -18.482  0.00  0.00    +0.147 HD
ENDROOT
BRANCH   1   6
ATOM      3  C   UNL     1      35.202 -18.959 -21.799  0.00  0.00    +0.054 C 
ATOM      4  C   UNL     1      36.505 -19.030 -21.306  0.00  0.00    +0.006 C 
ATOM      5  C   UNL     1      34.211 -19.786 -21.269  0.00  0.00    +0.006 C 
ATOM      6  C   UNL     1      35.825 -20.752 -19.755  0.00  0.00    +0.045 C 
ATOM      7  C   UNL     1      36.817 -19.927 -20.284  0.00  0.00    +0.014 C 
ATOM      8  C   UNL     1      34.522 -20.682 -20.247  0.00  0.00    +0.014 C 
BRANCH   3  16
ATOM      9  O   UNL     1      35.232 -18.338 -24.006  0.00  0.00    -0.270 OA
ATOM     10  N   UNL     1      34.188 -16.846 -22.538  0.00  0.00    -0.276 N 
ATOM     11  C   UNL     1      34.128 -14.025 -21.851  0.00  0.00    +0.102 C 
ATOM     12  C   UNL     1      34.481 -14.512 -23.260  0.00  0.00    +0.033 C 
ATOM     13  C   UNL     1      34.353 -15.110 -20.794  0.00  0.00    +0.033 C 
ATOM     14  C   UNL     1      33.865 -15.873 -23.578  0.00  0.00    +0.094 C 
ATOM     15  C   UNL     1      33.761 -16.464 -21.186  0.00  0.00    +0.094 C 
ATOM     16  C   UNL     1      34.874 -18.016 -22.874  0.00  0.00    +0.249 C 
BRANCH  11  18
ATOM     17  O   UNL     1      32.023 -13.349 -22.809  0.00  0.00    -0.250 OA
ATOM     18  C   UNL     1      32.715 -13.517 -21.814  0.00  0.00    +0.317 C 
BRANCH  18  19
ATOM     19  O   UNL     1      32.350 -13.282 -20.523  0.00  0.00    -0.444 OA
ATOM     20  C   UNL     1      31.739 -12.011 -20.279  0.00  0.00    +0.256 C 
ENDBRANCH  18  19
ENDBRANCH  11  18
ENDBRANCH   3  16
ENDBRANCH   1   6
BRANCH   1  21
ATOM     21  C   UNL     1      35.145 -22.396 -18.005  0.00  0.00    +0.145 C 
BRANCH  21  28
ATOM     22  N   UNL     1      34.709 -23.194 -15.742  0.00  0.00    -0.392 NA
ATOM     23  N   UNL     1      37.288 -22.590 -14.936  0.00  0.00    -0.200 NA
ATOM     24  N   UNL     1      36.817 -23.361 -12.804  0.00  0.00    -0.271 NA
ATOM     25  N   UNL     1      34.648 -24.224 -12.255  0.00  0.00    -0.310 NA
ATOM     26  N   UNL     1      32.964 -24.289 -13.910  0.00  0.00    -0.329 N 
ATOM     27  N   UNL     1      36.343 -24.142 -10.642  0.00  0.00    -0.283 N 
ATOM     28  C   UNL     1      35.596 -22.659 -16.595  0.00  0.00    +0.133 C 
ATOM     29  C   UNL     1      36.871 -22.361 -16.195  0.00  0.00    +0.193 C 
ATOM     30  C   UNL     1      35.128 -23.423 -14.482  0.00  0.00    +0.248 C 
ATOM     31  C   UNL     1      36.426 -23.124 -14.061  0.00  0.00    +0.131 C 
ATOM     32  C   UNL     1      34.293 -23.971 -13.528  0.00  0.00    +0.231 C 
ATOM     33  C   UNL     1      35.913 -23.899 -11.964  0.00  0.00    +0.207 C 
ATOM     34  H   UNL     1      32.343 -24.680 -13.255  0.00  0.00    +0.145 HD
ATOM     35  H   UNL     1      32.662 -24.117 -14.832  0.00  0.00    +0.145 HD
ATOM     36  H   UNL     1      37.264 -23.919 -10.375  0.00  0.00    +0.156 HD
ATOM     37  H   UNL     1      35.722 -24.533  -9.985  0.00  0.00    +0.156 HD
ENDBRANCH  21  28
ENDBRANCH   1  21
TORSDOF 6
ENDMDL
MODEL 4
REMARK VINA RESULT:     -11.8      3.863     11.472
REMARK  Name = 25243853
REMARK  6 active torsions:
REMARK  status: ('A' for Active; 'I' for Inactive)
REMARK    1  A    between atoms: N_1  and  C_6
REMARK    2  A    between atoms: N_1  and  C_21
REMARK    3  A    between atoms: C_3  and  C_16
REMARK    4  A    between atoms: C_11  and  C_18
REMARK    5  A    between atoms: C_18  and  O_19
REMARK    6  A    between atoms: C_21  and  C_28
REMARK                            x       y       z     vdW  Elec       q    Type
REMARK                         _______ _______ _______ _____ _____    ______ ____
ROOT
ATOM      1  N   UNL     1      35.333 -19.081 -22.158  0.00  0.00    -0.327 N 
ATOM      2  H   UNL     1      35.635 -19.478 -23.007  0.00  0.00    +0.147 HD
ENDROOT
BRANCH   1   6
ATOM      3  C   UNL     1      33.999 -21.644 -19.110  0.00  0.00    +0.054 C 
ATOM      4  C   UNL     1      35.352 -21.606 -19.446  0.00  0.00    +0.006 C 
ATOM      5  C   UNL     1      33.089 -20.831 -19.786  0.00  0.00    +0.006 C 
ATOM      6  C   UNL     1      34.885 -19.942 -21.134  0.00  0.00    +0.045 C 
ATOM      7  C   UNL     1      35.795 -20.754 -20.458  0.00  0.00    +0.014 C 
ATOM      8  C   UNL     1      33.531 -19.980 -20.798  0.00  0.00    +0.014 C 
BRANCH   3  16
ATOM      9  O   UNL     1      32.327 -22.787 -18.033  0.00  0.00    -0.270 OA
ATOM     10  N   UNL     1      34.475 -23.038 -17.143  0.00  0.00    -0.276 N 
ATOM     11  C   UNL     1      35.894 -22.936 -14.611  0.00  0.00    +0.102 C 
ATOM     12  C   UNL     1      34.413 -23.319 -14.699  0.00  0.00    +0.033 C 
ATOM     13  C   UNL     1      36.354 -22.129 -15.828  0.00  0.00    +0.033 C 
ATOM     14  C   UNL     1      34.044 -23.914 -16.056  0.00  0.00    +0.094 C 
ATOM     15  C   UNL     1      35.912 -22.742 -17.158  0.00  0.00    +0.094 C 
ATOM     16  C   UNL     1      33.532 -22.540 -18.044  0.00  0.00    +0.249 C 
BRANCH  11  18
ATOM     17  O   UNL     1      36.296 -25.255 -14.090  0.00  0.00    -0.250 OA
ATOM     18  C   UNL     1      36.739 -24.165 -14.425  0.00  0.00    +0.317 C 
BRANCH  18  19
ATOM     19  O   UNL     1      38.043 -23.864 -14.686  0.00  0.00    -0.444 OA
ATOM     20  C   UNL     1      38.965 -24.947 -14.527  0.00  0.00    +0.256 C 
ENDBRANCH  18  19
ENDBRANCH  11  18
ENDBRANCH   3  16
ENDBRANCH   1   6
BRANCH   1  21
ATOM     21  C   UNL     1      35.369 -17.659 -22.017  0.00  0.00    +0.145 C 
BRANCH  21  28
ATOM     22  N   UNL     1      34.554 -15.679 -23.185  0.00  0.00    -0.392 NA
ATOM     23  N   UNL     1      34.123 -17.119 -25.510  0.00  0.00    -0.200 NA
ATOM     24  N   UNL     1      33.359 -15.207 -26.569  0.00  0.00    -0.271 NA
ATOM     25  N   UNL     1      33.267 -13.108 -25.412  0.00  0.00    -0.310 NA
ATOM     26  N   UNL     1      33.964 -12.987 -23.158  0.00  0.00    -0.329 N 
ATOM     27  N   UNL     1      32.583 -13.271 -27.646  0.00  0.00    -0.283 N 
ATOM     28  C   UNL     1      34.824 -16.992 -23.250  0.00  0.00    +0.133 C 
ATOM     29  C   UNL     1      34.611 -17.703 -24.399  0.00  0.00    +0.193 C 
ATOM     30  C   UNL     1      34.066 -15.096 -24.298  0.00  0.00    +0.248 C 
ATOM     31  C   UNL     1      33.844 -15.810 -25.478  0.00  0.00    +0.131 C 
ATOM     32  C   UNL     1      33.757 -13.751 -24.336  0.00  0.00    +0.231 C 
ATOM     33  C   UNL     1      33.095 -13.890 -26.485  0.00  0.00    +0.207 C 
ATOM     34  H   UNL     1      33.753 -12.025 -23.151  0.00  0.00    +0.145 HD
ATOM     35  H   UNL     1      34.319 -13.418 -22.348  0.00  0.00    +0.145 HD
ATOM     36  H   UNL     1      32.437 -13.802 -28.462  0.00  0.00    +0.156 HD
ATOM     37  H   UNL     1      32.372 -12.309 -27.640  0.00  0.00    +0.156 HD
ENDBRANCH  21  28
ENDBRANCH   1  21
TORSDOF 6
ENDMDL
MODEL 5
REMARK VINA RESULT:     -11.6      1.401      2.242
REMARK  Name = 25243853
REMARK  6 active torsions:
REMARK  status: ('A' for Active; 'I' for Inactive)
REMARK    1  A    between atoms: N_1  and  C_6
REMARK    2  A    between atoms: N_1  and  C_21
REMARK    3  A    between atoms: C_3  and  C_16
REMARK    4  A    between atoms: C_11  and  C_18
REMARK    5  A    between atoms: C_18  and  O_19
REMARK    6  A    between atoms: C_21  and  C_28
REMARK                            x       y       z     vdW  Elec       q    Type
REMARK                         _______ _______ _______ _____ _____    ______ ____
ROOT
ATOM      1  N   UNL     1      36.108 -21.787 -18.492  0.00  0.00    -0.327 N 
ATOM      2  H   UNL     1      35.733 -22.696 -18.526  0.00  0.00    +0.147 HD
ENDROOT
BRANCH   1   6
ATOM      3  C   UNL     1      35.263 -19.149 -21.650  0.00  0.00    +0.054 C 
ATOM      4  C   UNL     1      36.551 -19.208 -21.116  0.00  0.00    +0.006 C 
ATOM      5  C   UNL     1      34.257 -19.966 -21.135  0.00  0.00    +0.006 C 
ATOM      6  C   UNL     1      35.824 -20.901 -19.553  0.00  0.00    +0.045 C 
ATOM      7  C   UNL     1      36.831 -20.085 -20.067  0.00  0.00    +0.014 C 
ATOM      8  C   UNL     1      34.537 -20.842 -20.087  0.00  0.00    +0.014 C 
BRANCH   3  16
ATOM      9  O   UNL     1      35.353 -18.574 -23.868  0.00  0.00    -0.270 OA
ATOM     10  N   UNL     1      34.280 -17.046 -22.458  0.00  0.00    -0.276 N 
ATOM     11  C   UNL     1      34.221 -14.211 -21.834  0.00  0.00    +0.102 C 
ATOM     12  C   UNL     1      34.605 -14.730 -23.223  0.00  0.00    +0.033 C 
ATOM     13  C   UNL     1      34.413 -15.274 -20.748  0.00  0.00    +0.033 C 
ATOM     14  C   UNL     1      33.989 -16.094 -23.527  0.00  0.00    +0.094 C 
ATOM     15  C   UNL     1      33.823 -16.633 -21.127  0.00  0.00    +0.094 C 
ATOM     16  C   UNL     1      34.968 -18.226 -22.753  0.00  0.00    +0.249 C 
BRANCH  11  18
ATOM     17  O   UNL     1      32.152 -13.520 -22.860  0.00  0.00    -0.250 OA
ATOM     18  C   UNL     1      32.810 -13.694 -21.843  0.00  0.00    +0.317 C 
BRANCH  18  19
ATOM     19  O   UNL     1      32.403 -13.459 -20.564  0.00  0.00    -0.444 OA
ATOM     20  C   UNL     1      31.792 -12.185 -20.338  0.00  0.00    +0.256 C 
ENDBRANCH  18  19
ENDBRANCH  11  18
ENDBRANCH   3  16
ENDBRANCH   1   6
BRANCH   1  21
ATOM     21  C   UNL     1      36.914 -21.421 -17.369  0.00  0.00    +0.145 C 
BRANCH  21  28
ATOM     22  N   UNL     1      37.747 -23.247 -15.985  0.00  0.00    -0.392 NA
ATOM     23  N   UNL     1      35.403 -23.323 -14.515  0.00  0.00    -0.200 NA
ATOM     24  N   UNL     1      36.246 -25.056 -13.233  0.00  0.00    -0.271 NA
ATOM     25  N   UNL     1      38.442 -25.934 -13.635  0.00  0.00    -0.310 NA
ATOM     26  N   UNL     1      39.765 -25.020 -15.365  0.00  0.00    -0.329 N 
ATOM     27  N   UNL     1      37.098 -26.814 -11.931  0.00  0.00    -0.283 N 
ATOM     28  C   UNL     1      36.735 -22.407 -16.248  0.00  0.00    +0.133 C 
ATOM     29  C   UNL     1      35.576 -22.444 -15.521  0.00  0.00    +0.193 C 
ATOM     30  C   UNL     1      37.572 -24.125 -14.978  0.00  0.00    +0.248 C 
ATOM     31  C   UNL     1      36.395 -24.174 -14.228  0.00  0.00    +0.131 C 
ATOM     32  C   UNL     1      38.553 -25.032 -14.627  0.00  0.00    +0.231 C 
ATOM     33  C   UNL     1      37.273 -25.891 -12.984  0.00  0.00    +0.207 C 
ATOM     34  H   UNL     1      40.484 -25.653 -15.141  0.00  0.00    +0.145 HD
ATOM     35  H   UNL     1      39.887 -24.378 -16.101  0.00  0.00    +0.145 HD
ATOM     36  H   UNL     1      36.256 -26.824 -11.421  0.00  0.00    +0.156 HD
ATOM     37  H   UNL     1      37.817 -27.448 -11.706  0.00  0.00    +0.156 HD
ENDBRANCH  21  28
ENDBRANCH   1  21
TORSDOF 6
ENDMDL
MODEL 6
REMARK VINA RESULT:     -11.5      3.645     10.973
REMARK  Name = 25243853
REMARK  6 active torsions:
REMARK  status: ('A' for Active; 'I' for Inactive)
REMARK    1  A    between atoms: N_1  and  C_6
REMARK    2  A    between atoms: N_1  and  C_21
REMARK    3  A    between atoms: C_3  and  C_16
REMARK    4  A    between atoms: C_11  and  C_18
REMARK    5  A    between atoms: C_18  and  O_19
REMARK    6  A    between atoms: C_21  and  C_28
REMARK                            x       y       z     vdW  Elec       q    Type
REMARK                         _______ _______ _______ _____ _____    ______ ____
ROOT
ATOM      1  N   UNL     1      34.919 -18.696 -22.648  0.00  0.00    -0.327 N 
ATOM      2  H   UNL     1      34.584 -18.914 -23.548  0.00  0.00    +0.147 HD
ENDROOT
BRANCH   1   6
ATOM      3  C   UNL     1      34.040 -21.320 -19.489  0.00  0.00    +0.054 C 
ATOM      4  C   UNL     1      35.362 -21.138 -19.896  0.00  0.00    +0.006 C 
ATOM      5  C   UNL     1      33.011 -20.630 -20.130  0.00  0.00    +0.006 C 
ATOM      6  C   UNL     1      34.624 -19.577 -21.586  0.00  0.00    +0.045 C 
ATOM      7  C   UNL     1      35.654 -20.265 -20.945  0.00  0.00    +0.014 C 
ATOM      8  C   UNL     1      33.303 -19.759 -21.179  0.00  0.00    +0.014 C 
BRANCH   3  16
ATOM      9  O   UNL     1      32.550 -22.551 -18.254  0.00  0.00    -0.270 OA
ATOM     10  N   UNL     1      34.787 -22.680 -17.583  0.00  0.00    -0.276 N 
ATOM     11  C   UNL     1      36.444 -22.493 -15.205  0.00  0.00    +0.102 C 
ATOM     12  C   UNL     1      34.985 -22.957 -15.146  0.00  0.00    +0.033 C 
ATOM     13  C   UNL     1      36.734 -21.664 -16.460  0.00  0.00    +0.033 C 
ATOM     14  C   UNL     1      34.516 -23.575 -16.461  0.00  0.00    +0.094 C 
ATOM     15  C   UNL     1      36.197 -22.305 -17.741  0.00  0.00    +0.094 C 
ATOM     16  C   UNL     1      33.732 -22.237 -18.385  0.00  0.00    +0.249 C 
BRANCH  11  18
ATOM     17  O   UNL     1      38.540 -23.654 -15.463  0.00  0.00    -0.250 OA
ATOM     18  C   UNL     1      37.369 -23.672 -15.108  0.00  0.00    +0.317 C 
BRANCH  18  19
ATOM     19  O   UNL     1      36.701 -24.733 -14.574  0.00  0.00    -0.444 OA
ATOM     20  C   UNL     1      37.254 -26.019 -14.869  0.00  0.00    +0.256 C 
ENDBRANCH  18  19
ENDBRANCH  11  18
ENDBRANCH   3  16
ENDBRANCH   1   6
BRANCH   1  21
ATOM     21  C   UNL     1      35.685 -17.500 -22.475  0.00  0.00    +0.145 C 
BRANCH  21  28
ATOM     22  N   UNL     1      34.250 -15.611 -23.041  0.00  0.00    -0.392 NA
ATOM     23  N   UNL     1      33.756 -15.072 -20.371  0.00  0.00    -0.200 NA
ATOM     24  N   UNL     1      32.404 -13.289 -20.966  0.00  0.00    -0.271 NA
ATOM     25  N   UNL     1      32.043 -12.730 -23.270  0.00  0.00    -0.310 NA
ATOM     26  N   UNL     1      33.083 -14.013 -24.959  0.00  0.00    -0.329 N 
ATOM     27  N   UNL     1      31.033 -11.481 -21.566  0.00  0.00    -0.283 N 
ATOM     28  C   UNL     1      34.795 -16.359 -22.069  0.00  0.00    +0.133 C 
ATOM     29  C   UNL     1      34.550 -16.092 -20.749  0.00  0.00    +0.193 C 
ATOM     30  C   UNL     1      33.456 -14.591 -22.660  0.00  0.00    +0.248 C 
ATOM     31  C   UNL     1      33.197 -14.308 -21.317  0.00  0.00    +0.131 C 
ATOM     32  C   UNL     1      32.846 -13.763 -23.583  0.00  0.00    +0.231 C 
ATOM     33  C   UNL     1      31.867 -12.551 -21.956  0.00  0.00    +0.207 C 
ATOM     34  H   UNL     1      32.664 -13.441 -25.643  0.00  0.00    +0.145 HD
ATOM     35  H   UNL     1      33.666 -14.758 -25.232  0.00  0.00    +0.145 HD
ATOM     36  H   UNL     1      30.871 -11.306 -20.611  0.00  0.00    +0.156 HD
ATOM     37  H   UNL     1      30.614 -10.908 -22.249  0.00  0.00    +0.156 HD
ENDBRANCH  21  28
ENDBRANCH   1  21
TORSDOF 6
ENDMDL
MODEL 7
REMARK VINA RESULT:     -11.2      3.725     11.104
REMARK  Name = 25243853
REMARK  6 active torsions:
REMARK  status: ('A' for Active; 'I' for Inactive)
REMARK    1  A    between atoms: N_1  and  C_6
REMARK    2  A    between atoms: N_1  and  C_21
REMARK    3  A    between atoms: C_3  and  C_16
REMARK    4  A    between atoms: C_11  and  C_18
REMARK    5  A    between atoms: C_18  and  O_19
REMARK    6  A    between atoms: C_21  and  C_28
REMARK                            x       y       z     vdW  Elec       q    Type
REMARK                         _______ _______ _______ _____ _____    ______ ____
ROOT
ATOM      1  N   UNL     1      35.468 -19.114 -22.152  0.00  0.00    -0.327 N 
ATOM      2  H   UNL     1      36.176 -18.463 -21.938  0.00  0.00    +0.147 HD
ENDROOT
BRANCH   1   6
ATOM      3  C   UNL     1      34.076 -21.643 -19.102  0.00  0.00    +0.054 C 
ATOM      4  C   UNL     1      35.437 -21.601 -19.406  0.00  0.00    +0.006 C 
ATOM      5  C   UNL     1      33.179 -20.845 -19.810  0.00  0.00    +0.006 C 
ATOM      6  C   UNL     1      35.001 -19.963 -21.127  0.00  0.00    +0.045 C 
ATOM      7  C   UNL     1      35.899 -20.760 -20.419  0.00  0.00    +0.014 C 
ATOM      8  C   UNL     1      33.640 -20.005 -20.823  0.00  0.00    +0.014 C 
BRANCH   3  16
ATOM      9  O   UNL     1      32.382 -22.761 -18.035  0.00  0.00    -0.270 OA
ATOM     10  N   UNL     1      34.519 -23.031 -17.122  0.00  0.00    -0.276 N 
ATOM     11  C   UNL     1      35.914 -22.930 -14.577  0.00  0.00    +0.102 C 
ATOM     12  C   UNL     1      34.430 -23.296 -14.677  0.00  0.00    +0.033 C 
ATOM     13  C   UNL     1      36.395 -22.134 -15.795  0.00  0.00    +0.033 C 
ATOM     14  C   UNL     1      34.067 -23.895 -16.034  0.00  0.00    +0.094 C 
ATOM     15  C   UNL     1      35.959 -22.750 -17.125  0.00  0.00    +0.094 C 
ATOM     16  C   UNL     1      33.589 -22.528 -18.036  0.00  0.00    +0.249 C 
BRANCH  11  18
ATOM     17  O   UNL     1      36.290 -25.240 -14.005  0.00  0.00    -0.250 OA
ATOM     18  C   UNL     1      36.743 -24.166 -14.376  0.00  0.00    +0.317 C 
BRANCH  18  19
ATOM     19  O   UNL     1      38.046 -23.893 -14.669  0.00  0.00    -0.444 OA
ATOM     20  C   UNL     1      38.935 -25.014 -14.617  0.00  0.00    +0.256 C 
ENDBRANCH  18  19
ENDBRANCH  11  18
ENDBRANCH   3  16
ENDBRANCH   1   6
BRANCH   1  21
ATOM     21  C   UNL     1      34.958 -19.155 -23.487  0.00  0.00    +0.145 C 
BRANCH  21  28
ATOM     22  N   UNL     1      34.604 -16.782 -23.050  0.00  0.00    -0.392 NA
ATOM     23  N   UNL     1      33.899 -16.310 -25.685  0.00  0.00    -0.200 NA
ATOM     24  N   UNL     1      33.578 -14.066 -25.212  0.00  0.00    -0.271 NA
ATOM     25  N   UNL     1      33.928 -13.210 -22.999  0.00  0.00    -0.310 NA
ATOM     26  N   UNL     1      34.608 -14.674 -21.274  0.00  0.00    -0.329 N 
ATOM     27  N   UNL     1      33.251 -11.791 -24.735  0.00  0.00    -0.283 N 
ATOM     28  C   UNL     1      34.585 -17.775 -23.952  0.00  0.00    +0.133 C 
ATOM     29  C   UNL     1      34.237 -17.540 -25.255  0.00  0.00    +0.193 C 
ATOM     30  C   UNL     1      34.266 -15.551 -23.481  0.00  0.00    +0.248 C 
ATOM     31  C   UNL     1      33.909 -15.298 -24.808  0.00  0.00    +0.131 C 
ATOM     32  C   UNL     1      34.254 -14.462 -22.632  0.00  0.00    +0.231 C 
ATOM     33  C   UNL     1      33.603 -13.084 -24.291  0.00  0.00    +0.207 C 
ATOM     34  H   UNL     1      34.609 -13.919 -20.642  0.00  0.00    +0.145 HD
ATOM     35  H   UNL     1      34.851 -15.575 -20.963  0.00  0.00    +0.145 HD
ATOM     36  H   UNL     1      33.003 -11.645 -25.676  0.00  0.00    +0.156 HD
ATOM     37  H   UNL     1      33.252 -11.036 -24.103  0.00  0.00    +0.156 HD
ENDBRANCH  21  28
ENDBRANCH   1  21
TORSDOF 6
ENDMDL
MODEL 8
REMARK VINA RESULT:     -11.2      4.045     11.048
REMARK  Name = 25243853
REMARK  6 active torsions:
REMARK  status: ('A' for Active; 'I' for Inactive)
REMARK    1  A    between atoms: N_1  and  C_6
REMARK    2  A    between atoms: N_1  and  C_21
REMARK    3  A    between atoms: C_3  and  C_16
REMARK    4  A    between atoms: C_11  and  C_18
REMARK    5  A    between atoms: C_18  and  O_19
REMARK    6  A    between atoms: C_21  and  C_28
REMARK                            x       y       z     vdW  Elec       q    Type
REMARK                         _______ _______ _______ _____ _____    ______ ____
ROOT
ATOM      1  N   UNL     1      35.439 -20.737 -20.734  0.00  0.00    -0.327 N 
ATOM      2  H   UNL     1      35.114 -21.103 -21.588  0.00  0.00    +0.147 HD
ENDROOT
BRANCH   1   6
ATOM      3  C   UNL     1      34.521 -22.800 -17.192  0.00  0.00    +0.054 C 
ATOM      4  C   UNL     1      35.779 -22.222 -17.356  0.00  0.00    +0.006 C 
ATOM      5  C   UNL     1      33.567 -22.693 -18.205  0.00  0.00    +0.006 C 
ATOM      6  C   UNL     1      35.130 -21.430 -19.544  0.00  0.00    +0.045 C 
ATOM      7  C   UNL     1      36.084 -21.536 -18.532  0.00  0.00    +0.014 C 
ATOM      8  C   UNL     1      33.871 -22.008 -19.380  0.00  0.00    +0.014 C 
BRANCH   3  16
ATOM      9  O   UNL     1      33.005 -23.709 -15.731  0.00  0.00    -0.270 OA
ATOM     10  N   UNL     1      35.257 -23.937 -15.141  0.00  0.00    -0.276 N 
ATOM     11  C   UNL     1      37.048 -23.560 -12.886  0.00  0.00    +0.102 C 
ATOM     12  C   UNL     1      35.562 -23.882 -12.700  0.00  0.00    +0.033 C 
ATOM     13  C   UNL     1      37.336 -22.946 -14.259  0.00  0.00    +0.033 C 
ATOM     14  C   UNL     1      34.974 -24.637 -13.891  0.00  0.00    +0.094 C 
ATOM     15  C   UNL     1      36.682 -23.712 -15.410  0.00  0.00    +0.094 C 
ATOM     16  C   UNL     1      34.199 -23.522 -15.955  0.00  0.00    +0.249 C 
BRANCH  11  18
ATOM     17  O   UNL     1      37.466 -25.802 -12.109  0.00  0.00    -0.250 OA
ATOM     18  C   UNL     1      37.879 -24.790 -12.657  0.00  0.00    +0.317 C 
BRANCH  18  19
ATOM     19  O   UNL     1      39.134 -24.589 -13.150  0.00  0.00    -0.444 OA
ATOM     20  C   UNL     1      39.674 -25.672 -13.914  0.00  0.00    +0.256 C 
ENDBRANCH  18  19
ENDBRANCH  11  18
ENDBRANCH   3  16
ENDBRANCH   1   6
BRANCH   1  21
ATOM     21  C   UNL     1      36.203 -19.529 -20.753  0.00  0.00    +0.145 C 
BRANCH  21  28
ATOM     22  N   UNL     1      35.299 -17.337 -21.323  0.00  0.00    -0.392 NA
ATOM     23  N   UNL     1      34.959 -18.066 -23.972  0.00  0.00    -0.200 NA
ATOM     24  N   UNL     1      34.108 -15.968 -24.456  0.00  0.00    -0.271 NA
ATOM     25  N   UNL     1      33.901 -14.297 -22.748  0.00  0.00    -0.310 NA
ATOM     26  N   UNL     1      34.573 -14.796 -20.539  0.00  0.00    -0.329 N 
ATOM     27  N   UNL     1      33.244 -13.842 -24.949  0.00  0.00    -0.283 N 
ATOM     28  C   UNL     1      35.635 -18.562 -21.755  0.00  0.00    +0.133 C 
ATOM     29  C   UNL     1      35.468 -18.922 -23.065  0.00  0.00    +0.193 C 
ATOM     30  C   UNL     1      34.791 -16.482 -22.232  0.00  0.00    +0.248 C 
ATOM     31  C   UNL     1      34.615 -16.836 -23.572  0.00  0.00    +0.131 C 
ATOM     32  C   UNL     1      34.414 -15.198 -21.890  0.00  0.00    +0.231 C 
ATOM     33  C   UNL     1      33.777 -14.744 -24.003  0.00  0.00    +0.207 C 
ATOM     34  H   UNL     1      34.313 -13.888 -20.261  0.00  0.00    +0.145 HD
ATOM     35  H   UNL     1      34.942 -15.425 -19.878  0.00  0.00    +0.145 HD
ATOM     36  H   UNL     1      33.131 -14.122 -25.886  0.00  0.00    +0.156 HD
ATOM     37  H   UNL     1      32.984 -12.934 -24.672  0.00  0.00    +0.156 HD
ENDBRANCH  21  28
ENDBRANCH   1  21
TORSDOF 6
ENDMDL
MODEL 9
REMARK VINA RESULT:     -11.2      2.976      4.589
REMARK  Name = 25243853
REMARK  6 active torsions:
REMARK  status: ('A' for Active; 'I' for Inactive)
REMARK    1  A    between atoms: N_1  and  C_6
REMARK    2  A    between atoms: N_1  and  C_21
REMARK    3  A    between atoms: C_3  and  C_16
REMARK    4  A    between atoms: C_11  and  C_18
REMARK    5  A    between atoms: C_18  and  O_19
REMARK    6  A    between atoms: C_21  and  C_28
REMARK                            x       y       z     vdW  Elec       q    Type
REMARK                         _______ _______ _______ _____ _____    ______ ____
ROOT
ATOM      1  N   UNL     1      34.931 -21.825 -18.988  0.00  0.00    -0.327 N 
ATOM      2  H   UNL     1      35.598 -21.763 -18.267  0.00  0.00    +0.147 HD
ENDROOT
BRANCH   1   6
ATOM      3  C   UNL     1      34.786 -18.758 -21.854  0.00  0.00    +0.054 C 
ATOM      4  C   UNL     1      36.007 -19.126 -21.289  0.00  0.00    +0.006 C 
ATOM      5  C   UNL     1      33.614 -19.408 -21.468  0.00  0.00    +0.006 C 
ATOM      6  C   UNL     1      34.883 -20.795 -19.951  0.00  0.00    +0.045 C 
ATOM      7  C   UNL     1      36.055 -20.146 -20.338  0.00  0.00    +0.014 C 
ATOM      8  C   UNL     1      33.662 -20.426 -20.517  0.00  0.00    +0.014 C 
BRANCH   3  16
ATOM      9  O   UNL     1      35.340 -17.894 -23.905  0.00  0.00    -0.270 OA
ATOM     10  N   UNL     1      34.011 -16.531 -22.547  0.00  0.00    -0.276 N 
ATOM     11  C   UNL     1      33.846 -13.804 -21.560  0.00  0.00    +0.102 C 
ATOM     12  C   UNL     1      34.507 -14.146 -22.899  0.00  0.00    +0.033 C 
ATOM     13  C   UNL     1      33.798 -15.010 -20.616  0.00  0.00    +0.033 C 
ATOM     14  C   UNL     1      33.957 -15.433 -23.509  0.00  0.00    +0.094 C 
ATOM     15  C   UNL     1      33.289 -16.283 -21.294  0.00  0.00    +0.094 C 
ATOM     16  C   UNL     1      34.734 -17.685 -22.855  0.00  0.00    +0.249 C 
BRANCH  11  18
ATOM     17  O   UNL     1      31.922 -13.198 -22.878  0.00  0.00    -0.250 OA
ATOM     18  C   UNL     1      32.473 -13.239 -21.787  0.00  0.00    +0.317 C 
BRANCH  18  19
ATOM     19  O   UNL     1      31.962 -12.794 -20.604  0.00  0.00    -0.444 OA
ATOM     20  C   UNL     1      31.373 -11.490 -20.641  0.00  0.00    +0.256 C 
ENDBRANCH  18  19
ENDBRANCH  11  18
ENDBRANCH   3  16
ENDBRANCH   1   6
BRANCH   1  21
ATOM     21  C   UNL     1      34.056 -22.955 -19.016  0.00  0.00    +0.145 C 
BRANCH  21  28
ATOM     22  N   UNL     1      32.176 -23.086 -17.469  0.00  0.00    -0.392 NA
ATOM     23  N   UNL     1      33.830 -23.840 -15.381  0.00  0.00    -0.200 NA
ATOM     24  N   UNL     1      32.007 -23.948 -13.957  0.00  0.00    -0.271 NA
ATOM     25  N   UNL     1      29.797 -23.445 -14.742  0.00  0.00    -0.310 NA
ATOM     26  N   UNL     1      29.472 -22.828 -16.999  0.00  0.00    -0.329 N 
ATOM     27  N   UNL     1      30.162 -24.057 -12.511  0.00  0.00    -0.283 N 
ATOM     28  C   UNL     1      33.499 -23.224 -17.646  0.00  0.00    +0.133 C 
ATOM     29  C   UNL     1      34.316 -23.598 -16.613  0.00  0.00    +0.193 C 
ATOM     30  C   UNL     1      31.691 -23.329 -16.236  0.00  0.00    +0.248 C 
ATOM     31  C   UNL     1      32.514 -23.711 -15.173  0.00  0.00    +0.131 C 
ATOM     32  C   UNL     1      30.345 -23.216 -15.949  0.00  0.00    +0.231 C 
ATOM     33  C   UNL     1      30.678 -23.804 -13.800  0.00  0.00    +0.207 C 
ATOM     34  H   UNL     1      28.507 -22.737 -16.828  0.00  0.00    +0.145 HD
ATOM     35  H   UNL     1      29.831 -22.649 -17.897  0.00  0.00    +0.145 HD
ATOM     36  H   UNL     1      30.767 -24.324 -11.782  0.00  0.00    +0.156 HD
ATOM     37  H   UNL     1      29.196 -23.966 -12.340  0.00  0.00    +0.156 HD
ENDBRANCH  21  28
ENDBRANCH   1  21
TORSDOF 6
ENDMDL
