MODEL 1
REMARK VINA RESULT:      -9.9      0.000      0.000
REMARK  Name = 5329099
REMARK  5 active torsions:
REMARK  status: ('A' for Active; 'I' for Inactive)
REMARK    1  A    between atoms: C_2  and  C_21
REMARK    2  A    between atoms: C_4  and  C_11
REMARK    3  A    between atoms: C_21  and  C_22
REMARK    4  A    between atoms: C_22  and  C_24
REMARK    5  A    between atoms: C_24  and  O_25
REMARK                            x       y       z     vdW  Elec       q    Type
REMARK                         _______ _______ _______ _____ _____    ______ ____
ROOT
ATOM      1  N   UNL     1      34.431 -11.816 -23.945  0.00  0.00    -0.357 N 
ATOM      2  C   UNL     1      32.744 -10.583 -23.191  0.00  0.00    -0.013 A 
ATOM      3  C   UNL     1      32.635 -11.884 -22.639  0.00  0.00    -0.009 A 
ATOM      4  C   UNL     1      33.670 -12.558 -23.131  0.00  0.00    +0.052 A 
ATOM      5  C   UNL     1      33.863 -10.570 -23.994  0.00  0.00    +0.030 A 
ATOM      6  C   UNL     1      31.583 -12.357 -21.715  0.00  0.00    +0.032 C 
ATOM      7  C   UNL     1      34.458  -9.494 -24.810  0.00  0.00    +0.049 C 
ATOM      8  H   UNL     1      35.242 -12.109 -24.418  0.00  0.00    +0.166 HD
ENDROOT
BRANCH   4  11
ATOM      9  O   UNL     1      32.958 -13.715 -25.662  0.00  0.00    -0.270 OA
ATOM     10  N   UNL     1      33.515 -16.007 -25.797  0.00  0.00    -0.280 N 
ATOM     11  C   UNL     1      34.120 -13.950 -22.943  0.00  0.00    +0.021 C 
ATOM     12  C   UNL     1      34.020 -14.932 -23.840  0.00  0.00    +0.056 C 
ATOM     13  C   UNL     1      34.442 -16.323 -23.716  0.00  0.00    +0.018 C 
ATOM     14  C   UNL     1      34.113 -16.931 -24.932  0.00  0.00    +0.051 C 
ATOM     15  C   UNL     1      33.418 -14.744 -25.203  0.00  0.00    +0.250 C 
ATOM     16  C   UNL     1      35.043 -17.048 -22.705  0.00  0.00    +0.001 C 
ATOM     17  C   UNL     1      34.366 -18.264 -25.185  0.00  0.00    +0.015 C 
ATOM     18  C   UNL     1      35.310 -18.402 -22.941  0.00  0.00    +0.000 C 
ATOM     19  C   UNL     1      34.974 -19.003 -24.169  0.00  0.00    +0.001 C 
ATOM     20  H   UNL     1      33.205 -16.218 -26.707  0.00  0.00    +0.155 HD
ENDBRANCH   4  11
BRANCH   2  21
ATOM     21  C   UNL     1      31.830  -9.448 -22.950  0.00  0.00    +0.039 C 
BRANCH  21  22
ATOM     22  C   UNL     1      32.428  -8.314 -22.093  0.00  0.00    +0.114 C 
BRANCH  22  24
ATOM     23  O   UNL     1      31.642  -9.423 -20.070  0.00  0.00    -0.250 OA
ATOM     24  C   UNL     1      32.347  -8.580 -20.605  0.00  0.00    +0.314 C 
BRANCH  24  25
ATOM     25  O   UNL     1      33.147  -7.733 -19.906  0.00  0.00    -0.480 OA
ATOM     26  H   UNL     1      34.044  -7.622 -20.154  0.00  0.00    +0.295 HD
ENDBRANCH  24  25
ENDBRANCH  22  24
ENDBRANCH  21  22
ENDBRANCH   2  21
TORSDOF 5
ENDMDL
MODEL 2
REMARK VINA RESULT:      -9.9     13.373     15.835
REMARK  Name = 5329099
REMARK  5 active torsions:
REMARK  status: ('A' for Active; 'I' for Inactive)
REMARK    1  A    between atoms: C_2  and  C_21
REMARK    2  A    between atoms: C_4  and  C_11
REMARK    3  A    between atoms: C_21  and  C_22
REMARK    4  A    between atoms: C_22  and  C_24
REMARK    5  A    between atoms: C_24  and  O_25
REMARK                            x       y       z     vdW  Elec       q    Type
REMARK                         _______ _______ _______ _____ _____    ______ ____
ROOT
ATOM      1  N   UNL     1      35.748 -23.076 -13.483  0.00  0.00    -0.357 N 
ATOM      2  C   UNL     1      37.214 -24.741 -13.588  0.00  0.00    -0.013 A 
ATOM      3  C   UNL     1      36.219 -24.953 -14.575  0.00  0.00    -0.009 A 
ATOM      4  C   UNL     1      35.384 -23.925 -14.452  0.00  0.00    +0.052 A 
ATOM      5  C   UNL     1      36.898 -23.574 -12.929  0.00  0.00    +0.030 A 
ATOM      6  C   UNL     1      36.153 -26.086 -15.522  0.00  0.00    +0.032 C 
ATOM      7  C   UNL     1      37.573 -22.873 -11.820  0.00  0.00    +0.049 C 
ATOM      8  H   UNL     1      35.279 -22.253 -13.219  0.00  0.00    +0.166 HD
ENDROOT
BRANCH   4  11
ATOM      9  O   UNL     1      33.372 -24.994 -12.704  0.00  0.00    -0.270 OA
ATOM     10  N   UNL     1      31.182 -24.625 -13.514  0.00  0.00    -0.280 N 
ATOM     11  C   UNL     1      34.154 -23.561 -15.181  0.00  0.00    +0.021 C 
ATOM     12  C   UNL     1      32.907 -23.831 -14.793  0.00  0.00    +0.056 C 
ATOM     13  C   UNL     1      31.655 -23.502 -15.464  0.00  0.00    +0.018 C 
ATOM     14  C   UNL     1      30.639 -24.006 -14.646  0.00  0.00    +0.051 C 
ATOM     15  C   UNL     1      32.580 -24.563 -13.523  0.00  0.00    +0.250 C 
ATOM     16  C   UNL     1      31.351 -22.849 -16.643  0.00  0.00    +0.001 C 
ATOM     17  C   UNL     1      29.302 -23.881 -14.964  0.00  0.00    +0.015 C 
ATOM     18  C   UNL     1      30.001 -22.710 -16.985  0.00  0.00    +0.000 C 
ATOM     19  C   UNL     1      28.987 -23.222 -16.154  0.00  0.00    +0.001 C 
ATOM     20  H   UNL     1      30.650 -25.048 -12.803  0.00  0.00    +0.155 HD
ENDBRANCH   4  11
BRANCH   2  21
ATOM     21  C   UNL     1      38.378 -25.609 -13.316  0.00  0.00    +0.039 C 
BRANCH  21  22
ATOM     22  C   UNL     1      39.724 -25.056 -13.827  0.00  0.00    +0.114 C 
BRANCH  22  24
ATOM     23  O   UNL     1      41.295 -26.893 -14.144  0.00  0.00    -0.250 OA
ATOM     24  C   UNL     1      40.526 -26.068 -14.617  0.00  0.00    +0.314 C 
BRANCH  24  25
ATOM     25  O   UNL     1      40.315 -25.935 -15.953  0.00  0.00    -0.480 OA
ATOM     26  H   UNL     1      39.470 -26.113 -16.314  0.00  0.00    +0.295 HD
ENDBRANCH  24  25
ENDBRANCH  22  24
ENDBRANCH  21  22
ENDBRANCH   2  21
TORSDOF 5
ENDMDL
MODEL 3
REMARK VINA RESULT:      -9.8      5.017      8.985
REMARK  Name = 5329099
REMARK  5 active torsions:
REMARK  status: ('A' for Active; 'I' for Inactive)
REMARK    1  A    between atoms: C_2  and  C_21
REMARK    2  A    between atoms: C_4  and  C_11
REMARK    3  A    between atoms: C_21  and  C_22
REMARK    4  A    between atoms: C_22  and  C_24
REMARK    5  A    between atoms: C_24  and  O_25
REMARK                            x       y       z     vdW  Elec       q    Type
REMARK                         _______ _______ _______ _____ _____    ______ ____
ROOT
ATOM      1  N   UNL     1      33.747 -19.553 -21.249  0.00  0.00    -0.357 N 
ATOM      2  C   UNL     1      35.647 -20.360 -20.429  0.00  0.00    -0.013 A 
ATOM      3  C   UNL     1      35.956 -19.355 -21.379  0.00  0.00    -0.009 A 
ATOM      4  C   UNL     1      34.779 -18.922 -21.822  0.00  0.00    +0.052 A 
ATOM      5  C   UNL     1      34.274 -20.461 -20.369  0.00  0.00    +0.030 A 
ATOM      6  C   UNL     1      37.309 -18.907 -21.770  0.00  0.00    +0.032 C 
ATOM      7  C   UNL     1      33.401 -21.332 -19.560  0.00  0.00    +0.049 C 
ATOM      8  H   UNL     1      32.792 -19.395 -21.426  0.00  0.00    +0.166 HD
ENDROOT
BRANCH   4  11
ATOM      9  O   UNL     1      35.004 -16.535 -20.241  0.00  0.00    -0.270 OA
ATOM     10  N   UNL     1      34.492 -14.584 -21.472  0.00  0.00    -0.280 N 
ATOM     11  C   UNL     1      34.417 -17.891 -22.813  0.00  0.00    +0.021 C 
ATOM     12  C   UNL     1      34.362 -16.577 -22.590  0.00  0.00    +0.056 C 
ATOM     13  C   UNL     1      34.012 -15.511 -23.521  0.00  0.00    +0.018 C 
ATOM     14  C   UNL     1      34.107 -14.321 -22.792  0.00  0.00    +0.051 C 
ATOM     15  C   UNL     1      34.672 -15.955 -21.259  0.00  0.00    +0.250 C 
ATOM     16  C   UNL     1      33.643 -15.493 -24.852  0.00  0.00    +0.001 C 
ATOM     17  C   UNL     1      33.843 -13.087 -23.351  0.00  0.00    +0.015 C 
ATOM     18  C   UNL     1      33.372 -14.253 -25.440  0.00  0.00    +0.000 C 
ATOM     19  C   UNL     1      33.470 -13.062 -24.696  0.00  0.00    +0.001 C 
ATOM     20  H   UNL     1      34.621 -13.893 -20.783  0.00  0.00    +0.155 HD
ENDBRANCH   4  11
BRANCH   2  21
ATOM     21  C   UNL     1      36.615 -21.153 -19.644  0.00  0.00    +0.039 C 
BRANCH  21  22
ATOM     22  C   UNL     1      36.043 -21.767 -18.351  0.00  0.00    +0.114 C 
BRANCH  22  24
ATOM     23  O   UNL     1      37.291 -22.615 -16.436  0.00  0.00    -0.250 OA
ATOM     24  C   UNL     1      36.994 -21.688 -17.177  0.00  0.00    +0.314 C 
BRANCH  24  25
ATOM     25  O   UNL     1      37.474 -20.427 -17.012  0.00  0.00    -0.480 OA
ATOM     26  H   UNL     1      36.961 -19.785 -16.562  0.00  0.00    +0.295 HD
ENDBRANCH  24  25
ENDBRANCH  22  24
ENDBRANCH  21  22
ENDBRANCH   2  21
TORSDOF 5
ENDMDL
MODEL 4
REMARK VINA RESULT:      -9.6      1.787      2.695
REMARK  Name = 5329099
REMARK  5 active torsions:
REMARK  status: ('A' for Active; 'I' for Inactive)
REMARK    1  A    between atoms: C_2  and  C_21
REMARK    2  A    between atoms: C_4  and  C_11
REMARK    3  A    between atoms: C_21  and  C_22
REMARK    4  A    between atoms: C_22  and  C_24
REMARK    5  A    between atoms: C_24  and  O_25
REMARK                            x       y       z     vdW  Elec       q    Type
REMARK                         _______ _______ _______ _____ _____    ______ ____
ROOT
ATOM      1  N   UNL     1      31.802 -12.750 -22.356  0.00  0.00    -0.357 N 
ATOM      2  C   UNL     1      32.284 -10.628 -22.797  0.00  0.00    -0.013 A 
ATOM      3  C   UNL     1      33.073 -11.455 -23.636  0.00  0.00    -0.009 A 
ATOM      4  C   UNL     1      32.732 -12.700 -23.317  0.00  0.00    +0.052 A 
ATOM      5  C   UNL     1      31.508 -11.456 -22.017  0.00  0.00    +0.030 A 
ATOM      6  C   UNL     1      34.056 -10.998 -24.641  0.00  0.00    +0.032 C 
ATOM      7  C   UNL     1      30.509 -11.149 -20.976  0.00  0.00    +0.049 C 
ATOM      8  H   UNL     1      31.405 -13.562 -21.967  0.00  0.00    +0.166 HD
ENDROOT
BRANCH   4  11
ATOM      9  O   UNL     1      33.923 -13.823 -20.958  0.00  0.00    -0.270 OA
ATOM     10  N   UNL     1      34.809 -15.981 -21.333  0.00  0.00    -0.280 N 
ATOM     11  C   UNL     1      33.186 -14.008 -23.825  0.00  0.00    +0.021 C 
ATOM     12  C   UNL     1      33.820 -14.944 -23.117  0.00  0.00    +0.056 C 
ATOM     13  C   UNL     1      34.294 -16.251 -23.557  0.00  0.00    +0.018 C 
ATOM     14  C   UNL     1      34.886 -16.839 -22.436  0.00  0.00    +0.051 C 
ATOM     15  C   UNL     1      34.164 -14.785 -21.664  0.00  0.00    +0.250 C 
ATOM     16  C   UNL     1      34.256 -16.919 -24.767  0.00  0.00    +0.001 C 
ATOM     17  C   UNL     1      35.455 -18.097 -22.474  0.00  0.00    +0.015 C 
ATOM     18  C   UNL     1      34.826 -18.196 -24.827  0.00  0.00    +0.000 C 
ATOM     19  C   UNL     1      35.420 -18.778 -23.691  0.00  0.00    +0.001 C 
ATOM     20  H   UNL     1      35.162 -16.193 -20.439  0.00  0.00    +0.155 HD
ENDBRANCH   4  11
BRANCH   2  21
ATOM     21  C   UNL     1      32.290  -9.151 -22.766  0.00  0.00    +0.039 C 
BRANCH  21  22
ATOM     22  C   UNL     1      33.255  -8.535 -21.733  0.00  0.00    +0.114 C 
BRANCH  22  24
ATOM     23  O   UNL     1      31.961  -6.943 -20.417  0.00  0.00    -0.250 OA
ATOM     24  C   UNL     1      32.556  -8.008 -20.499  0.00  0.00    +0.314 C 
BRANCH  24  25
ATOM     25  O   UNL     1      32.692  -8.861 -19.450  0.00  0.00    -0.480 OA
ATOM     26  H   UNL     1      33.546  -9.112 -19.158  0.00  0.00    +0.295 HD
ENDBRANCH  24  25
ENDBRANCH  22  24
ENDBRANCH  21  22
ENDBRANCH   2  21
TORSDOF 5
ENDMDL
MODEL 5
REMARK VINA RESULT:      -9.6      3.433      7.860
REMARK  Name = 5329099
REMARK  5 active torsions:
REMARK  status: ('A' for Active; 'I' for Inactive)
REMARK    1  A    between atoms: C_2  and  C_21
REMARK    2  A    between atoms: C_4  and  C_11
REMARK    3  A    between atoms: C_21  and  C_22
REMARK    4  A    between atoms: C_22  and  C_24
REMARK    5  A    between atoms: C_24  and  O_25
REMARK                            x       y       z     vdW  Elec       q    Type
REMARK                         _______ _______ _______ _____ _____    ______ ____
ROOT
ATOM      1  N   UNL     1      34.418 -16.611 -24.201  0.00  0.00    -0.357 N 
ATOM      2  C   UNL     1      34.738 -17.840 -22.380  0.00  0.00    -0.013 A 
ATOM      3  C   UNL     1      34.723 -16.473 -22.006  0.00  0.00    -0.009 A 
ATOM      4  C   UNL     1      34.529 -15.805 -23.139  0.00  0.00    +0.052 A 
ATOM      5  C   UNL     1      34.546 -17.895 -23.743  0.00  0.00    +0.030 A 
ATOM      6  C   UNL     1      34.891 -15.939 -20.638  0.00  0.00    +0.032 C 
ATOM      7  C   UNL     1      34.471 -19.044 -24.665  0.00  0.00    +0.049 C 
ATOM      8  H   UNL     1      34.273 -16.333 -25.134  0.00  0.00    +0.166 HD
ENDROOT
BRANCH   4  11
ATOM      9  O   UNL     1      32.145 -15.139 -21.682  0.00  0.00    -0.270 OA
ATOM     10  N   UNL     1      31.576 -12.853 -21.876  0.00  0.00    -0.280 N 
ATOM     11  C   UNL     1      34.415 -14.362 -23.426  0.00  0.00    +0.021 C 
ATOM     12  C   UNL     1      33.457 -13.550 -22.980  0.00  0.00    +0.056 C 
ATOM     13  C   UNL     1      33.287 -12.122 -23.226  0.00  0.00    +0.018 C 
ATOM     14  C   UNL     1      32.131 -11.750 -22.533  0.00  0.00    +0.051 C 
ATOM     15  C   UNL     1      32.332 -14.010 -22.097  0.00  0.00    +0.250 C 
ATOM     16  C   UNL     1      34.005 -11.190 -23.952  0.00  0.00    +0.001 C 
ATOM     17  C   UNL     1      31.651 -10.455 -22.537  0.00  0.00    +0.015 C 
ATOM     18  C   UNL     1      33.536  -9.872 -23.968  0.00  0.00    +0.000 C 
ATOM     19  C   UNL     1      32.371  -9.508 -23.267  0.00  0.00    +0.001 C 
ATOM     20  H   UNL     1      30.759 -12.821 -21.328  0.00  0.00    +0.155 HD
ENDBRANCH   4  11
BRANCH   2  21
ATOM     21  C   UNL     1      34.921 -18.995 -21.477  0.00  0.00    +0.039 C 
BRANCH  21  22
ATOM     22  C   UNL     1      33.610 -19.665 -21.018  0.00  0.00    +0.114 C 
BRANCH  22  24
ATOM     23  O   UNL     1      34.877 -21.128 -19.537  0.00  0.00    -0.250 OA
ATOM     24  C   UNL     1      33.830 -20.851 -20.104  0.00  0.00    +0.314 C 
BRANCH  24  25
ATOM     25  O   UNL     1      32.710 -21.614 -20.004  0.00  0.00    -0.480 OA
ATOM     26  H   UNL     1      31.870 -21.240 -20.180  0.00  0.00    +0.295 HD
ENDBRANCH  24  25
ENDBRANCH  22  24
ENDBRANCH  21  22
ENDBRANCH   2  21
TORSDOF 5
ENDMDL
MODEL 6
REMARK VINA RESULT:      -9.6      5.113      8.956
REMARK  Name = 5329099
REMARK  5 active torsions:
REMARK  status: ('A' for Active; 'I' for Inactive)
REMARK    1  A    between atoms: C_2  and  C_21
REMARK    2  A    between atoms: C_4  and  C_11
REMARK    3  A    between atoms: C_21  and  C_22
REMARK    4  A    between atoms: C_22  and  C_24
REMARK    5  A    between atoms: C_24  and  O_25
REMARK                            x       y       z     vdW  Elec       q    Type
REMARK                         _______ _______ _______ _____ _____    ______ ____
ROOT
ATOM      1  N   UNL     1      36.017 -19.056 -20.795  0.00  0.00    -0.357 N 
ATOM      2  C   UNL     1      34.881 -20.858 -20.168  0.00  0.00    -0.013 A 
ATOM      3  C   UNL     1      33.964 -19.888 -20.643  0.00  0.00    -0.009 A 
ATOM      4  C   UNL     1      34.711 -18.847 -20.997  0.00  0.00    +0.052 A 
ATOM      5  C   UNL     1      36.143 -20.317 -20.274  0.00  0.00    +0.030 A 
ATOM      6  C   UNL     1      32.495 -20.034 -20.716  0.00  0.00    +0.032 C 
ATOM      7  C   UNL     1      37.467 -20.871 -19.933  0.00  0.00    +0.049 C 
ATOM      8  H   UNL     1      36.748 -18.424 -20.984  0.00  0.00    +0.166 HD
ENDROOT
BRANCH   4  11
ATOM      9  O   UNL     1      34.876 -19.394 -23.812  0.00  0.00    -0.270 OA
ATOM     10  N   UNL     1      34.382 -17.497 -25.132  0.00  0.00    -0.280 N 
ATOM     11  C   UNL     1      34.363 -17.529 -21.562  0.00  0.00    +0.021 C 
ATOM     12  C   UNL     1      34.293 -17.230 -22.860  0.00  0.00    +0.056 C 
ATOM     13  C   UNL     1      33.957 -15.953 -23.482  0.00  0.00    +0.018 C 
ATOM     14  C   UNL     1      34.026 -16.171 -24.861  0.00  0.00    +0.051 C 
ATOM     15  C   UNL     1      34.567 -18.225 -23.951  0.00  0.00    +0.250 C 
ATOM     16  C   UNL     1      33.623 -14.710 -22.980  0.00  0.00    +0.001 C 
ATOM     17  C   UNL     1      33.768 -15.175 -25.781  0.00  0.00    +0.015 C 
ATOM     18  C   UNL     1      33.357 -13.685 -23.895  0.00  0.00    +0.000 C 
ATOM     19  C   UNL     1      33.429 -13.916 -25.282  0.00  0.00    +0.001 C 
ATOM     20  H   UNL     1      34.488 -17.871 -26.036  0.00  0.00    +0.155 HD
ENDBRANCH   4  11
BRANCH   2  21
ATOM     21  C   UNL     1      34.549 -22.204 -19.656  0.00  0.00    +0.039 C 
BRANCH  21  22
ATOM     22  C   UNL     1      34.678 -22.358 -18.128  0.00  0.00    +0.114 C 
BRANCH  22  24
ATOM     23  O   UNL     1      33.390 -23.597 -16.470  0.00  0.00    -0.250 OA
ATOM     24  C   UNL     1      33.425 -22.895 -17.471  0.00  0.00    +0.314 C 
BRANCH  24  25
ATOM     25  O   UNL     1      32.310 -22.525 -18.154  0.00  0.00    -0.480 OA
ATOM     26  H   UNL     1      32.251 -21.668 -18.525  0.00  0.00    +0.295 HD
ENDBRANCH  24  25
ENDBRANCH  22  24
ENDBRANCH  21  22
ENDBRANCH   2  21
TORSDOF 5
ENDMDL
MODEL 7
REMARK VINA RESULT:      -9.5      4.345      7.256
REMARK  Name = 5329099
REMARK  5 active torsions:
REMARK  status: ('A' for Active; 'I' for Inactive)
REMARK    1  A    between atoms: C_2  and  C_21
REMARK    2  A    between atoms: C_4  and  C_11
REMARK    3  A    between atoms: C_21  and  C_22
REMARK    4  A    between atoms: C_22  and  C_24
REMARK    5  A    between atoms: C_24  and  O_25
REMARK                            x       y       z     vdW  Elec       q    Type
REMARK                         _______ _______ _______ _____ _____    ______ ____
ROOT
ATOM      1  N   UNL     1      35.085 -17.059 -21.852  0.00  0.00    -0.357 N 
ATOM      2  C   UNL     1      34.855 -17.155 -24.059  0.00  0.00    -0.013 A 
ATOM      3  C   UNL     1      35.134 -18.458 -23.576  0.00  0.00    -0.009 A 
ATOM      4  C   UNL     1      35.258 -18.322 -22.259  0.00  0.00    +0.052 A 
ATOM      5  C   UNL     1      34.831 -16.310 -22.971  0.00  0.00    +0.030 A 
ATOM      6  C   UNL     1      35.255 -19.686 -24.390  0.00  0.00    +0.032 C 
ATOM      7  C   UNL     1      34.590 -14.858 -22.877  0.00  0.00    +0.049 C 
ATOM      8  H   UNL     1      35.133 -16.730 -20.926  0.00  0.00    +0.166 HD
ENDROOT
BRANCH   4  11
ATOM      9  O   UNL     1      32.627 -19.343 -21.725  0.00  0.00    -0.270 OA
ATOM     10  N   UNL     1      32.621 -20.980 -20.020  0.00  0.00    -0.280 N 
ATOM     11  C   UNL     1      35.544 -19.296 -21.189  0.00  0.00    +0.021 C 
ATOM     12  C   UNL     1      34.646 -20.064 -20.570  0.00  0.00    +0.056 C 
ATOM     13  C   UNL     1      34.862 -21.041 -19.509  0.00  0.00    +0.018 C 
ATOM     14  C   UNL     1      33.602 -21.568 -19.213  0.00  0.00    +0.051 C 
ATOM     15  C   UNL     1      33.179 -20.037 -20.890  0.00  0.00    +0.250 C 
ATOM     16  C   UNL     1      35.985 -21.475 -18.830  0.00  0.00    +0.001 C 
ATOM     17  C   UNL     1      33.412 -22.533 -18.244  0.00  0.00    +0.015 C 
ATOM     18  C   UNL     1      35.816 -22.454 -17.845  0.00  0.00    +0.000 C 
ATOM     19  C   UNL     1      34.542 -22.978 -17.555  0.00  0.00    +0.001 C 
ATOM     20  H   UNL     1      31.663 -21.202 -19.982  0.00  0.00    +0.155 HD
ENDBRANCH   4  11
BRANCH   2  21
ATOM     21  C   UNL     1      34.629 -16.771 -25.467  0.00  0.00    +0.039 C 
BRANCH  21  22
ATOM     22  C   UNL     1      33.192 -16.309 -25.783  0.00  0.00    +0.114 C 
BRANCH  22  24
ATOM     23  O   UNL     1      33.757 -14.521 -27.341  0.00  0.00    -0.250 OA
ATOM     24  C   UNL     1      33.126 -14.916 -26.370  0.00  0.00    +0.314 C 
BRANCH  24  25
ATOM     25  O   UNL     1      32.286 -14.118 -25.661  0.00  0.00    -0.480 OA
ATOM     26  H   UNL     1      32.465 -13.203 -25.580  0.00  0.00    +0.295 HD
ENDBRANCH  24  25
ENDBRANCH  22  24
ENDBRANCH  21  22
ENDBRANCH   2  21
TORSDOF 5
ENDMDL
MODEL 8
REMARK VINA RESULT:      -9.4      4.793      8.714
REMARK  Name = 5329099
REMARK  5 active torsions:
REMARK  status: ('A' for Active; 'I' for Inactive)
REMARK    1  A    between atoms: C_2  and  C_21
REMARK    2  A    between atoms: C_4  and  C_11
REMARK    3  A    between atoms: C_21  and  C_22
REMARK    4  A    between atoms: C_22  and  C_24
REMARK    5  A    between atoms: C_24  and  O_25
REMARK                            x       y       z     vdW  Elec       q    Type
REMARK                         _______ _______ _______ _____ _____    ______ ____
ROOT
ATOM      1  N   UNL     1      33.549 -18.976 -20.917  0.00  0.00    -0.357 N 
ATOM      2  C   UNL     1      35.334 -20.253 -20.574  0.00  0.00    -0.013 A 
ATOM      3  C   UNL     1      35.750 -19.053 -21.203  0.00  0.00    -0.009 A 
ATOM      4  C   UNL     1      34.638 -18.346 -21.375  0.00  0.00    +0.052 A 
ATOM      5  C   UNL     1      33.968 -20.178 -20.409  0.00  0.00    +0.030 A 
ATOM      6  C   UNL     1      37.135 -18.696 -21.575  0.00  0.00    +0.032 C 
ATOM      7  C   UNL     1      33.010 -21.130 -19.817  0.00  0.00    +0.049 C 
ATOM      8  H   UNL     1      32.624 -18.641 -20.941  0.00  0.00    +0.166 HD
ENDROOT
BRANCH   4  11
ATOM      9  O   UNL     1      34.349 -19.024 -24.150  0.00  0.00    -0.270 OA
ATOM     10  N   UNL     1      33.938 -17.131 -25.505  0.00  0.00    -0.280 N 
ATOM     11  C   UNL     1      34.395 -17.017 -21.967  0.00  0.00    +0.021 C 
ATOM     12  C   UNL     1      34.191 -16.763 -23.260  0.00  0.00    +0.056 C 
ATOM     13  C   UNL     1      33.948 -15.478 -23.907  0.00  0.00    +0.018 C 
ATOM     14  C   UNL     1      33.800 -15.759 -25.269  0.00  0.00    +0.051 C 
ATOM     15  C   UNL     1      34.181 -17.829 -24.317  0.00  0.00    +0.250 C 
ATOM     16  C   UNL     1      33.852 -14.181 -23.440  0.00  0.00    +0.001 C 
ATOM     17  C   UNL     1      33.556 -14.774 -26.205  0.00  0.00    +0.015 C 
ATOM     18  C   UNL     1      33.604 -13.167 -24.372  0.00  0.00    +0.000 C 
ATOM     19  C   UNL     1      33.458 -13.461 -25.741  0.00  0.00    +0.001 C 
ATOM     20  H   UNL     1      33.870 -17.552 -26.392  0.00  0.00    +0.155 HD
ENDBRANCH   4  11
BRANCH   2  21
ATOM     21  C   UNL     1      36.202 -21.377 -20.167  0.00  0.00    +0.039 C 
BRANCH  21  22
ATOM     22  C   UNL     1      36.905 -21.185 -18.808  0.00  0.00    +0.114 C 
BRANCH  22  24
ATOM     23  O   UNL     1      35.273 -22.679 -17.787  0.00  0.00    -0.250 OA
ATOM     24  C   UNL     1      36.262 -21.967 -17.684  0.00  0.00    +0.314 C 
BRANCH  24  25
ATOM     25  O   UNL     1      36.906 -21.762 -16.505  0.00  0.00    -0.480 OA
ATOM     26  H   UNL     1      37.840 -21.818 -16.465  0.00  0.00    +0.295 HD
ENDBRANCH  24  25
ENDBRANCH  22  24
ENDBRANCH  21  22
ENDBRANCH   2  21
TORSDOF 5
ENDMDL
MODEL 9
REMARK VINA RESULT:      -9.4      4.015      6.938
REMARK  Name = 5329099
REMARK  5 active torsions:
REMARK  status: ('A' for Active; 'I' for Inactive)
REMARK    1  A    between atoms: C_2  and  C_21
REMARK    2  A    between atoms: C_4  and  C_11
REMARK    3  A    between atoms: C_21  and  C_22
REMARK    4  A    between atoms: C_22  and  C_24
REMARK    5  A    between atoms: C_24  and  O_25
REMARK                            x       y       z     vdW  Elec       q    Type
REMARK                         _______ _______ _______ _____ _____    ______ ____
ROOT
ATOM      1  N   UNL     1      34.132 -16.785 -21.943  0.00  0.00    -0.357 N 
ATOM      2  C   UNL     1      34.460 -16.627 -24.134  0.00  0.00    -0.013 A 
ATOM      3  C   UNL     1      34.285 -17.993 -23.801  0.00  0.00    -0.009 A 
ATOM      4  C   UNL     1      34.095 -18.009 -22.485  0.00  0.00    +0.052 A 
ATOM      5  C   UNL     1      34.360 -15.903 -22.966  0.00  0.00    +0.030 A 
ATOM      6  C   UNL     1      34.314 -19.133 -24.741  0.00  0.00    +0.032 C 
ATOM      7  C   UNL     1      34.458 -14.453 -22.713  0.00  0.00    +0.049 C 
ATOM      8  H   UNL     1      34.017 -16.562 -20.992  0.00  0.00    +0.166 HD
ENDROOT
BRANCH   4  11
ATOM      9  O   UNL     1      36.746 -18.449 -21.471  0.00  0.00    -0.270 OA
ATOM     10  N   UNL     1      36.825 -20.189 -19.873  0.00  0.00    -0.280 N 
ATOM     11  C   UNL     1      33.855 -19.112 -21.536  0.00  0.00    +0.021 C 
ATOM     12  C   UNL     1      34.779 -19.708 -20.781  0.00  0.00    +0.056 C 
ATOM     13  C   UNL     1      34.609 -20.800 -19.828  0.00  0.00    +0.018 C 
ATOM     14  C   UNL     1      35.881 -21.052 -19.306  0.00  0.00    +0.051 C 
ATOM     15  C   UNL     1      36.230 -19.323 -20.797  0.00  0.00    +0.250 C 
ATOM     16  C   UNL     1      33.517 -21.537 -19.412  0.00  0.00    +0.001 C 
ATOM     17  C   UNL     1      36.112 -22.033 -18.362  0.00  0.00    +0.015 C 
ATOM     18  C   UNL     1      33.729 -22.536 -18.455  0.00  0.00    +0.000 C 
ATOM     19  C   UNL     1      35.014 -22.781 -17.936  0.00  0.00    +0.001 C 
ATOM     20  H   UNL     1      37.784 -20.190 -19.651  0.00  0.00    +0.155 HD
ENDBRANCH   4  11
BRANCH   2  21
ATOM     21  C   UNL     1      34.702 -16.076 -25.484  0.00  0.00    +0.039 C 
BRANCH  21  22
ATOM     22  C   UNL     1      33.443 -15.537 -26.192  0.00  0.00    +0.114 C 
BRANCH  22  24
ATOM     23  O   UNL     1      33.253 -13.168 -25.649  0.00  0.00    -0.250 OA
ATOM     24  C   UNL     1      33.498 -14.049 -26.461  0.00  0.00    +0.314 C 
BRANCH  24  25
ATOM     25  O   UNL     1      33.831 -13.791 -27.753  0.00  0.00    -0.480 OA
ATOM     26  H   UNL     1      33.763 -14.466 -28.399  0.00  0.00    +0.295 HD
ENDBRANCH  24  25
ENDBRANCH  22  24
ENDBRANCH  21  22
ENDBRANCH   2  21
TORSDOF 5
ENDMDL
