MODEL 1
REMARK VINA RESULT:      -8.4      0.000      0.000
REMARK  Name = 146570
REMARK  6 active torsions:
REMARK  status: ('A' for Active; 'I' for Inactive)
REMARK    1  A    between atoms: C_2  and  C_11
REMARK    2  A    between atoms: C_2  and  C_19
REMARK    3  A    between atoms: C_9  and  C_18
REMARK    4  A    between atoms: C_19  and  C_20
REMARK    5  A    between atoms: C_20  and  C_21
REMARK    6  A    between atoms: C_21  and  N_22
REMARK                            x       y       z     vdW  Elec       q    Type
REMARK                         _______ _______ _______ _____ _____    ______ ____
ROOT
ATOM      1  O   UNL     1      34.251  -8.875 -23.056  0.00  0.00    -0.346 OA
ATOM      2  C   UNL     1      32.837  -9.204 -23.242  0.00  0.00    +0.130 C 
ATOM      3  C   UNL     1      32.227  -7.915 -23.711  0.00  0.00    +0.004 C 
ATOM      4  C   UNL     1      33.222  -6.963 -23.884  0.00  0.00    +0.006 C 
ATOM      5  C   UNL     1      34.541  -7.550 -23.559  0.00  0.00    +0.169 C 
ATOM      6  C   UNL     1      30.899  -7.612 -23.974  0.00  0.00    -0.001 C 
ATOM      7  C   UNL     1      32.927  -5.682 -24.319  0.00  0.00    +0.008 C 
ATOM      8  C   UNL     1      30.585  -6.323 -24.409  0.00  0.00    +0.010 C 
ATOM      9  C   UNL     1      31.593  -5.364 -24.581  0.00  0.00    +0.068 C 
ENDROOT
BRANCH   2  11
ATOM     10  F   UNL     1      30.869 -10.870 -18.249  0.00  0.00    -0.204 F 
ATOM     11  C   UNL     1      32.314  -9.647 -21.917  0.00  0.00    +0.006 C 
ATOM     12  C   UNL     1      31.695 -10.890 -21.792  0.00  0.00    +0.001 C 
ATOM     13  C   UNL     1      32.446  -8.816 -20.805  0.00  0.00    +0.001 C 
ATOM     14  C   UNL     1      31.206 -11.303 -20.552  0.00  0.00    +0.029 C 
ATOM     15  C   UNL     1      31.956  -9.230 -19.565  0.00  0.00    +0.029 C 
ATOM     16  C   UNL     1      31.337 -10.473 -19.439  0.00  0.00    +0.140 C 
ENDBRANCH   2  11
BRANCH   9  18
ATOM     17  N   UNL     1      30.974  -2.982 -25.393  0.00  0.00    -0.191 NA
ATOM     18  C   UNL     1      31.253  -4.051 -25.029  0.00  0.00    +0.100 C 
ENDBRANCH   9  18
BRANCH   2  19
ATOM     19  C   UNL     1      32.733 -10.320 -24.275  0.00  0.00    +0.034 C 
BRANCH  19  20
ATOM     20  C   UNL     1      34.052 -11.079 -24.409  0.00  0.00    -0.020 C 
BRANCH  20  21
ATOM     21  C   UNL     1      33.897 -12.292 -25.325  0.00  0.00    -0.077 C 
BRANCH  21  22
ATOM     22  N   UNL     1      33.241 -13.383 -24.614  0.00  0.00    +0.384 N 
ATOM     23  C   UNL     1      33.994 -13.741 -23.411  0.00  0.00    -0.101 C 
ATOM     24  C   UNL     1      33.092 -14.550 -25.485  0.00  0.00    -0.101 C 
ATOM     25  H   UNL     1      32.312 -13.068 -24.333  0.00  0.00    -0.080 HD
ENDBRANCH  21  22
ENDBRANCH  20  21
ENDBRANCH  19  20
ENDBRANCH   2  19
TORSDOF 6
ENDMDL
MODEL 2
REMARK VINA RESULT:      -7.9      6.279     11.473
REMARK  Name = 146570
REMARK  6 active torsions:
REMARK  status: ('A' for Active; 'I' for Inactive)
REMARK    1  A    between atoms: C_2  and  C_11
REMARK    2  A    between atoms: C_2  and  C_19
REMARK    3  A    between atoms: C_9  and  C_18
REMARK    4  A    between atoms: C_19  and  C_20
REMARK    5  A    between atoms: C_20  and  C_21
REMARK    6  A    between atoms: C_21  and  N_22
REMARK                            x       y       z     vdW  Elec       q    Type
REMARK                         _______ _______ _______ _____ _____    ______ ____
ROOT
ATOM      1  O   UNL     1      36.656 -17.968 -21.732  0.00  0.00    -0.346 OA
ATOM      2  C   UNL     1      35.221 -17.708 -21.617  0.00  0.00    +0.130 C 
ATOM      3  C   UNL     1      34.677 -18.960 -20.991  0.00  0.00    +0.004 C 
ATOM      4  C   UNL     1      35.723 -19.815 -20.674  0.00  0.00    +0.006 C 
ATOM      5  C   UNL     1      37.012 -19.194 -21.050  0.00  0.00    +0.169 C 
ATOM      6  C   UNL     1      33.364 -19.309 -20.714  0.00  0.00    -0.001 C 
ATOM      7  C   UNL     1      35.494 -21.043 -20.077  0.00  0.00    +0.008 C 
ATOM      8  C   UNL     1      33.116 -20.546 -20.116  0.00  0.00    +0.010 C 
ATOM      9  C   UNL     1      34.176 -21.408 -19.799  0.00  0.00    +0.068 C 
ENDROOT
BRANCH   2  11
ATOM     10  F   UNL     1      33.286 -16.842 -26.822  0.00  0.00    -0.204 F 
ATOM     11  C   UNL     1      34.707 -17.479 -22.999  0.00  0.00    +0.006 C 
ATOM     12  C   UNL     1      34.406 -18.565 -23.820  0.00  0.00    +0.001 C 
ATOM     13  C   UNL     1      34.530 -16.178 -23.468  0.00  0.00    +0.001 C 
ATOM     14  C   UNL     1      33.926 -18.349 -25.112  0.00  0.00    +0.029 C 
ATOM     15  C   UNL     1      34.049 -15.963 -24.761  0.00  0.00    +0.029 C 
ATOM     16  C   UNL     1      33.748 -17.049 -25.582  0.00  0.00    +0.140 C 
ENDBRANCH   2  11
BRANCH   9  18
ATOM     17  N   UNL     1      33.681 -23.694 -18.685  0.00  0.00    -0.191 NA
ATOM     18  C   UNL     1      33.903 -22.669 -19.185  0.00  0.00    +0.100 C 
ENDBRANCH   9  18
BRANCH   2  19
ATOM     19  C   UNL     1      35.022 -16.474 -20.745  0.00  0.00    +0.034 C 
BRANCH  19  20
ATOM     20  C   UNL     1      33.611 -15.909 -20.894  0.00  0.00    -0.020 C 
BRANCH  20  21
ATOM     21  C   UNL     1      33.604 -14.393 -20.705  0.00  0.00    -0.077 C 
BRANCH  21  22
ATOM     22  N   UNL     1      32.328 -13.834 -21.136  0.00  0.00    +0.384 N 
ATOM     23  C   UNL     1      32.369 -13.494 -22.559  0.00  0.00    -0.101 C 
ATOM     24  C   UNL     1      31.987 -12.652 -20.342  0.00  0.00    -0.101 C 
ATOM     25  H   UNL     1      31.606 -14.540 -20.992  0.00  0.00    -0.080 HD
ENDBRANCH  21  22
ENDBRANCH  20  21
ENDBRANCH  19  20
ENDBRANCH   2  19
TORSDOF 6
ENDMDL
MODEL 3
REMARK VINA RESULT:      -7.7     14.941     18.346
REMARK  Name = 146570
REMARK  6 active torsions:
REMARK  status: ('A' for Active; 'I' for Inactive)
REMARK    1  A    between atoms: C_2  and  C_11
REMARK    2  A    between atoms: C_2  and  C_19
REMARK    3  A    between atoms: C_9  and  C_18
REMARK    4  A    between atoms: C_19  and  C_20
REMARK    5  A    between atoms: C_20  and  C_21
REMARK    6  A    between atoms: C_21  and  N_22
REMARK                            x       y       z     vdW  Elec       q    Type
REMARK                         _______ _______ _______ _____ _____    ______ ____
ROOT
ATOM      1  O   UNL     1      35.463 -22.819 -13.852  0.00  0.00    -0.346 OA
ATOM      2  C   UNL     1      35.233 -23.931 -14.775  0.00  0.00    +0.130 C 
ATOM      3  C   UNL     1      36.512 -24.715 -14.719  0.00  0.00    +0.004 C 
ATOM      4  C   UNL     1      37.357 -24.163 -13.767  0.00  0.00    +0.006 C 
ATOM      5  C   UNL     1      36.701 -23.001 -13.126  0.00  0.00    +0.169 C 
ATOM      6  C   UNL     1      36.894 -25.833 -15.446  0.00  0.00    -0.001 C 
ATOM      7  C   UNL     1      38.606 -24.703 -13.511  0.00  0.00    +0.008 C 
ATOM      8  C   UNL     1      38.151 -26.387 -15.203  0.00  0.00    +0.010 C 
ATOM      9  C   UNL     1      39.003 -25.825 -14.240  0.00  0.00    +0.068 C 
ENDROOT
BRANCH   2  11
ATOM     10  F   UNL     1      34.257 -21.688 -19.835  0.00  0.00    -0.204 F 
ATOM     11  C   UNL     1      34.973 -23.336 -16.119  0.00  0.00    +0.006 C 
ATOM     12  C   UNL     1      33.757 -23.568 -16.760  0.00  0.00    +0.001 C 
ATOM     13  C   UNL     1      35.948 -22.549 -16.730  0.00  0.00    +0.001 C 
ATOM     14  C   UNL     1      33.516 -23.011 -18.017  0.00  0.00    +0.029 C 
ATOM     15  C   UNL     1      35.706 -21.992 -17.987  0.00  0.00    +0.029 C 
ATOM     16  C   UNL     1      34.490 -22.224 -18.629  0.00  0.00    +0.140 C 
ENDBRANCH   2  11
BRANCH   9  18
ATOM     17  N   UNL     1      41.330 -26.880 -13.811  0.00  0.00    -0.191 NA
ATOM     18  C   UNL     1      40.286 -26.407 -14.003  0.00  0.00    +0.100 C 
ENDBRANCH   9  18
BRANCH   2  19
ATOM     19  C   UNL     1      34.029 -24.725 -14.283  0.00  0.00    +0.034 C 
BRANCH  19  20
ATOM     20  C   UNL     1      33.052 -23.837 -13.515  0.00  0.00    -0.020 C 
BRANCH  20  21
ATOM     21  C   UNL     1      31.659 -24.463 -13.470  0.00  0.00    -0.077 C 
BRANCH  21  22
ATOM     22  N   UNL     1      31.013 -24.356 -14.773  0.00  0.00    +0.384 N 
ATOM     23  C   UNL     1      30.369 -23.050 -14.923  0.00  0.00    -0.101 C 
ATOM     24  C   UNL     1      30.033 -25.429 -14.952  0.00  0.00    -0.101 C 
ATOM     25  H   UNL     1      31.730 -24.449 -15.493  0.00  0.00    -0.080 HD
ENDBRANCH  21  22
ENDBRANCH  20  21
ENDBRANCH  19  20
ENDBRANCH   2  19
TORSDOF 6
ENDMDL
MODEL 4
REMARK VINA RESULT:      -7.5     15.744     17.922
REMARK  Name = 146570
REMARK  6 active torsions:
REMARK  status: ('A' for Active; 'I' for Inactive)
REMARK    1  A    between atoms: C_2  and  C_11
REMARK    2  A    between atoms: C_2  and  C_19
REMARK    3  A    between atoms: C_9  and  C_18
REMARK    4  A    between atoms: C_19  and  C_20
REMARK    5  A    between atoms: C_20  and  C_21
REMARK    6  A    between atoms: C_21  and  N_22
REMARK                            x       y       z     vdW  Elec       q    Type
REMARK                         _______ _______ _______ _____ _____    ______ ____
ROOT
ATOM      1  O   UNL     1      35.896 -23.672 -15.896  0.00  0.00    -0.346 OA
ATOM      2  C   UNL     1      35.163 -24.488 -14.927  0.00  0.00    +0.130 C 
ATOM      3  C   UNL     1      33.724 -24.143 -15.183  0.00  0.00    +0.004 C 
ATOM      4  C   UNL     1      33.635 -23.291 -16.275  0.00  0.00    +0.006 C 
ATOM      5  C   UNL     1      34.986 -23.026 -16.817  0.00  0.00    +0.169 C 
ATOM      6  C   UNL     1      32.584 -24.560 -14.511  0.00  0.00    -0.001 C 
ATOM      7  C   UNL     1      32.412 -22.825 -16.727  0.00  0.00    +0.008 C 
ATOM      8  C   UNL     1      31.344 -24.095 -14.953  0.00  0.00    +0.010 C 
ATOM      9  C   UNL     1      31.259 -23.232 -16.055  0.00  0.00    +0.068 C 
ENDROOT
BRANCH   2  11
ATOM     10  F   UNL     1      36.913 -22.935  -9.817  0.00  0.00    -0.204 F 
ATOM     11  C   UNL     1      35.627 -24.076 -13.570  0.00  0.00    +0.006 C 
ATOM     12  C   UNL     1      35.074 -24.668 -12.435  0.00  0.00    +0.001 C 
ATOM     13  C   UNL     1      36.613 -23.099 -13.440  0.00  0.00    +0.001 C 
ATOM     14  C   UNL     1      35.508 -24.281 -11.167  0.00  0.00    +0.029 C 
ATOM     15  C   UNL     1      37.047 -22.713 -12.171  0.00  0.00    +0.029 C 
ATOM     16  C   UNL     1      36.494 -23.305 -11.035  0.00  0.00    +0.140 C 
ENDBRANCH   2  11
BRANCH   9  18
ATOM     17  N   UNL     1      28.941 -22.393 -16.851  0.00  0.00    -0.191 NA
ATOM     18  C   UNL     1      29.981 -22.769 -16.494  0.00  0.00    +0.100 C 
ENDBRANCH   9  18
BRANCH   2  19
ATOM     19  C   UNL     1      35.478 -25.955 -15.195  0.00  0.00    +0.034 C 
BRANCH  19  20
ATOM     20  C   UNL     1      36.970 -26.166 -15.447  0.00  0.00    -0.020 C 
BRANCH  20  21
ATOM     21  C   UNL     1      37.613 -26.954 -14.307  0.00  0.00    -0.077 C 
BRANCH  21  22
ATOM     22  N   UNL     1      38.869 -26.331 -13.905  0.00  0.00    +0.384 N 
ATOM     23  C   UNL     1      38.754 -25.755 -12.564  0.00  0.00    -0.101 C 
ATOM     24  C   UNL     1      39.264 -25.300 -14.867  0.00  0.00    -0.101 C 
ATOM     25  H   UNL     1      39.591 -27.051 -13.888  0.00  0.00    -0.080 HD
ENDBRANCH  21  22
ENDBRANCH  20  21
ENDBRANCH  19  20
ENDBRANCH   2  19
TORSDOF 6
ENDMDL
MODEL 5
REMARK VINA RESULT:      -7.4     13.213     16.378
REMARK  Name = 146570
REMARK  6 active torsions:
REMARK  status: ('A' for Active; 'I' for Inactive)
REMARK    1  A    between atoms: C_2  and  C_11
REMARK    2  A    between atoms: C_2  and  C_19
REMARK    3  A    between atoms: C_9  and  C_18
REMARK    4  A    between atoms: C_19  and  C_20
REMARK    5  A    between atoms: C_20  and  C_21
REMARK    6  A    between atoms: C_21  and  N_22
REMARK                            x       y       z     vdW  Elec       q    Type
REMARK                         _______ _______ _______ _____ _____    ______ ____
ROOT
ATOM      1  O   UNL     1      35.621 -23.148 -14.776  0.00  0.00    -0.346 OA
ATOM      2  C   UNL     1      34.758 -23.677 -15.833  0.00  0.00    +0.130 C 
ATOM      3  C   UNL     1      35.152 -22.888 -17.047  0.00  0.00    +0.004 C 
ATOM      4  C   UNL     1      36.221 -22.058 -16.739  0.00  0.00    +0.006 C 
ATOM      5  C   UNL     1      36.612 -22.248 -15.324  0.00  0.00    +0.169 C 
ATOM      6  C   UNL     1      34.615 -22.910 -18.326  0.00  0.00    -0.001 C 
ATOM      7  C   UNL     1      36.784 -21.225 -17.690  0.00  0.00    +0.008 C 
ATOM      8  C   UNL     1      35.169 -22.072 -19.295  0.00  0.00    +0.010 C 
ATOM      9  C   UNL     1      36.248 -21.234 -18.978  0.00  0.00    +0.068 C 
ENDROOT
BRANCH   2  11
ATOM     10  F   UNL     1      29.449 -22.744 -14.245  0.00  0.00    -0.204 F 
ATOM     11  C   UNL     1      33.349 -23.430 -15.410  0.00  0.00    +0.006 C 
ATOM     12  C   UNL     1      33.028 -23.367 -14.055  0.00  0.00    +0.001 C 
ATOM     13  C   UNL     1      32.354 -23.263 -16.373  0.00  0.00    +0.001 C 
ATOM     14  C   UNL     1      31.710 -23.136 -13.661  0.00  0.00    +0.029 C 
ATOM     15  C   UNL     1      31.035 -23.031 -15.978  0.00  0.00    +0.029 C 
ATOM     16  C   UNL     1      30.714 -22.968 -14.623  0.00  0.00    +0.140 C 
ENDBRANCH   2  11
BRANCH   9  18
ATOM     17  N   UNL     1      37.255 -19.693 -20.802  0.00  0.00    -0.191 NA
ATOM     18  C   UNL     1      36.804 -20.384 -19.984  0.00  0.00    +0.100 C 
ENDBRANCH   9  18
BRANCH   2  19
ATOM     19  C   UNL     1      35.035 -25.169 -15.979  0.00  0.00    +0.034 C 
BRANCH  19  20
ATOM     20  C   UNL     1      35.802 -25.714 -14.776  0.00  0.00    -0.020 C 
BRANCH  20  21
ATOM     21  C   UNL     1      37.006 -26.542 -15.222  0.00  0.00    -0.077 C 
BRANCH  21  22
ATOM     22  N   UNL     1      37.991 -26.623 -14.150  0.00  0.00    +0.384 N 
ATOM     23  C   UNL     1      37.409 -26.182 -12.881  0.00  0.00    -0.101 C 
ATOM     24  C   UNL     1      39.172 -25.822 -14.473  0.00  0.00    -0.101 C 
ATOM     25  H   UNL     1      38.277 -27.598 -14.053  0.00  0.00    -0.080 HD
ENDBRANCH  21  22
ENDBRANCH  20  21
ENDBRANCH  19  20
ENDBRANCH   2  19
TORSDOF 6
ENDMDL
MODEL 6
REMARK VINA RESULT:      -7.3      7.442     11.637
REMARK  Name = 146570
REMARK  6 active torsions:
REMARK  status: ('A' for Active; 'I' for Inactive)
REMARK    1  A    between atoms: C_2  and  C_11
REMARK    2  A    between atoms: C_2  and  C_19
REMARK    3  A    between atoms: C_9  and  C_18
REMARK    4  A    between atoms: C_19  and  C_20
REMARK    5  A    between atoms: C_20  and  C_21
REMARK    6  A    between atoms: C_21  and  N_22
REMARK                            x       y       z     vdW  Elec       q    Type
REMARK                         _______ _______ _______ _____ _____    ______ ____
ROOT
ATOM      1  O   UNL     1      32.853 -19.787 -21.336  0.00  0.00    -0.346 OA
ATOM      2  C   UNL     1      34.135 -19.106 -21.522  0.00  0.00    +0.130 C 
ATOM      3  C   UNL     1      35.045 -19.778 -20.534  0.00  0.00    +0.004 C 
ATOM      4  C   UNL     1      34.374 -20.825 -19.918  0.00  0.00    +0.006 C 
ATOM      5  C   UNL     1      32.999 -20.925 -20.455  0.00  0.00    +0.169 C 
ATOM      6  C   UNL     1      36.365 -19.493 -20.216  0.00  0.00    -0.001 C 
ATOM      7  C   UNL     1      34.993 -21.615 -18.964  0.00  0.00    +0.008 C 
ATOM      8  C   UNL     1      37.001 -20.279 -19.253  0.00  0.00    +0.010 C 
ATOM      9  C   UNL     1      36.319 -21.334 -18.631  0.00  0.00    +0.068 C 
ENDROOT
BRANCH   2  11
ATOM     10  F   UNL     1      33.286 -13.671 -20.374  0.00  0.00    -0.204 F 
ATOM     11  C   UNL     1      33.910 -17.663 -21.216  0.00  0.00    +0.006 C 
ATOM     12  C   UNL     1      34.987 -16.849 -20.867  0.00  0.00    +0.001 C 
ATOM     13  C   UNL     1      32.623 -17.131 -21.281  0.00  0.00    +0.001 C 
ATOM     14  C   UNL     1      34.775 -15.499 -20.582  0.00  0.00    +0.029 C 
ATOM     15  C   UNL     1      32.412 -15.781 -20.996  0.00  0.00    +0.029 C 
ATOM     16  C   UNL     1      33.489 -14.966 -20.646  0.00  0.00    +0.140 C 
ENDBRANCH   2  11
BRANCH   9  18
ATOM     17  N   UNL     1      37.530 -22.774 -16.850  0.00  0.00    -0.191 NA
ATOM     18  C   UNL     1      36.987 -22.129 -17.650  0.00  0.00    +0.100 C 
ENDBRANCH   9  18
BRANCH   2  19
ATOM     19  C   UNL     1      34.580 -19.300 -22.966  0.00  0.00    +0.034 C 
BRANCH  19  20
ATOM     20  C   UNL     1      35.225 -18.033 -23.525  0.00  0.00    -0.020 C 
BRANCH  20  21
ATOM     21  C   UNL     1      34.563 -17.611 -24.835  0.00  0.00    -0.077 C 
BRANCH  21  22
ATOM     22  N   UNL     1      33.894 -16.326 -24.674  0.00  0.00    +0.384 N 
ATOM     23  C   UNL     1      33.404 -15.834 -25.963  0.00  0.00    -0.101 C 
ATOM     24  C   UNL     1      34.797 -15.346 -24.067  0.00  0.00    -0.101 C 
ATOM     25  H   UNL     1      33.095 -16.458 -24.053  0.00  0.00    -0.080 HD
ENDBRANCH  21  22
ENDBRANCH  20  21
ENDBRANCH  19  20
ENDBRANCH   2  19
TORSDOF 6
ENDMDL
MODEL 7
REMARK VINA RESULT:      -7.2      7.072      9.911
REMARK  Name = 146570
REMARK  6 active torsions:
REMARK  status: ('A' for Active; 'I' for Inactive)
REMARK    1  A    between atoms: C_2  and  C_11
REMARK    2  A    between atoms: C_2  and  C_19
REMARK    3  A    between atoms: C_9  and  C_18
REMARK    4  A    between atoms: C_19  and  C_20
REMARK    5  A    between atoms: C_20  and  C_21
REMARK    6  A    between atoms: C_21  and  N_22
REMARK                            x       y       z     vdW  Elec       q    Type
REMARK                         _______ _______ _______ _____ _____    ______ ____
ROOT
ATOM      1  O   UNL     1      36.021 -18.609 -21.764  0.00  0.00    -0.346 OA
ATOM      2  C   UNL     1      34.611 -19.000 -21.719  0.00  0.00    +0.130 C 
ATOM      3  C   UNL     1      33.899 -17.735 -21.337  0.00  0.00    +0.004 C 
ATOM      4  C   UNL     1      34.808 -16.688 -21.276  0.00  0.00    +0.006 C 
ATOM      5  C   UNL     1      36.161 -17.176 -21.622  0.00  0.00    +0.169 C 
ATOM      6  C   UNL     1      32.553 -17.525 -21.074  0.00  0.00    -0.001 C 
ATOM      7  C   UNL     1      34.406 -15.404 -20.949  0.00  0.00    +0.008 C 
ATOM      8  C   UNL     1      32.134 -16.237 -20.739  0.00  0.00    +0.010 C 
ATOM      9  C   UNL     1      33.056 -15.181 -20.677  0.00  0.00    +0.068 C 
ENDROOT
BRANCH   2  11
ATOM     10  F   UNL     1      34.150 -23.036 -17.835  0.00  0.00    -0.204 F 
ATOM     11  C   UNL     1      34.488 -20.071 -20.688  0.00  0.00    +0.006 C 
ATOM     12  C   UNL     1      33.227 -20.509 -20.285  0.00  0.00    +0.001 C 
ATOM     13  C   UNL     1      35.636 -20.633 -20.128  0.00  0.00    +0.001 C 
ATOM     14  C   UNL     1      33.114 -21.511 -19.320  0.00  0.00    +0.029 C 
ATOM     15  C   UNL     1      35.521 -21.635 -19.164  0.00  0.00    +0.029 C 
ATOM     16  C   UNL     1      34.260 -22.073 -18.760  0.00  0.00    +0.140 C 
ENDBRANCH   2  11
BRANCH   9  18
ATOM     17  N   UNL     1      32.243 -12.801 -20.057  0.00  0.00    -0.191 NA
ATOM     18  C   UNL     1      32.607 -13.869 -20.334  0.00  0.00    +0.100 C 
ENDBRANCH   9  18
BRANCH   2  19
ATOM     19  C   UNL     1      34.209 -19.514 -23.096  0.00  0.00    +0.034 C 
BRANCH  19  20
ATOM     20  C   UNL     1      35.023 -18.842 -24.201  0.00  0.00    -0.020 C 
BRANCH  20  21
ATOM     21  C   UNL     1      34.111 -18.148 -25.211  0.00  0.00    -0.077 C 
BRANCH  21  22
ATOM     22  N   UNL     1      33.963 -16.737 -24.875  0.00  0.00    +0.384 N 
ATOM     23  C   UNL     1      33.202 -16.037 -25.911  0.00  0.00    -0.101 C 
ATOM     24  C   UNL     1      35.273 -16.109 -24.695  0.00  0.00    -0.101 C 
ATOM     25  H   UNL     1      33.449 -16.671 -23.996  0.00  0.00    -0.080 HD
ENDBRANCH  21  22
ENDBRANCH  20  21
ENDBRANCH  19  20
ENDBRANCH   2  19
TORSDOF 6
ENDMDL
MODEL 8
REMARK VINA RESULT:      -6.9      2.529      4.365
REMARK  Name = 146570
REMARK  6 active torsions:
REMARK  status: ('A' for Active; 'I' for Inactive)
REMARK    1  A    between atoms: C_2  and  C_11
REMARK    2  A    between atoms: C_2  and  C_19
REMARK    3  A    between atoms: C_9  and  C_18
REMARK    4  A    between atoms: C_19  and  C_20
REMARK    5  A    between atoms: C_20  and  C_21
REMARK    6  A    between atoms: C_21  and  N_22
REMARK                            x       y       z     vdW  Elec       q    Type
REMARK                         _______ _______ _______ _____ _____    ______ ____
ROOT
ATOM      1  O   UNL     1      31.276  -8.282 -22.879  0.00  0.00    -0.346 OA
ATOM      2  C   UNL     1      32.737  -8.340 -22.950  0.00  0.00    +0.130 C 
ATOM      3  C   UNL     1      33.089  -7.294 -23.969  0.00  0.00    +0.004 C 
ATOM      4  C   UNL     1      31.941  -6.622 -24.364  0.00  0.00    +0.006 C 
ATOM      5  C   UNL     1      30.769  -7.158 -23.636  0.00  0.00    +0.169 C 
ATOM      6  C   UNL     1      34.328  -6.958 -24.495  0.00  0.00    -0.001 C 
ATOM      7  C   UNL     1      31.990  -5.599 -25.296  0.00  0.00    +0.008 C 
ATOM      8  C   UNL     1      34.393  -5.932 -25.440  0.00  0.00    +0.010 C 
ATOM      9  C   UNL     1      33.230  -5.256 -25.837  0.00  0.00    +0.068 C 
ENDROOT
BRANCH   2  11
ATOM     10  F   UNL     1      34.096 -13.542 -24.586  0.00  0.00    -0.204 F 
ATOM     11  C   UNL     1      33.098  -9.721 -23.385  0.00  0.00    +0.006 C 
ATOM     12  C   UNL     1      34.151  -9.917 -24.278  0.00  0.00    +0.001 C 
ATOM     13  C   UNL     1      32.381 -10.813 -22.897  0.00  0.00    +0.001 C 
ATOM     14  C   UNL     1      34.487 -11.209 -24.684  0.00  0.00    +0.029 C 
ATOM     15  C   UNL     1      32.719 -12.105 -23.304  0.00  0.00    +0.029 C 
ATOM     16  C   UNL     1      33.772 -12.302 -24.197  0.00  0.00    +0.140 C 
ENDBRANCH   2  11
BRANCH   9  18
ATOM     17  N   UNL     1      33.386  -3.353 -27.588  0.00  0.00    -0.191 NA
ATOM     18  C   UNL     1      33.316  -4.207 -26.803  0.00  0.00    +0.100 C 
ENDBRANCH   9  18
BRANCH   2  19
ATOM     19  C   UNL     1      33.300  -8.034 -21.567  0.00  0.00    +0.034 C 
BRANCH  19  20
ATOM     20  C   UNL     1      32.239  -8.209 -20.483  0.00  0.00    -0.020 C 
BRANCH  20  21
ATOM     21  C   UNL     1      32.451  -9.510 -19.711  0.00  0.00    -0.077 C 
BRANCH  21  22
ATOM     22  N   UNL     1      31.169 -10.092 -19.335  0.00  0.00    +0.384 N 
ATOM     23  C   UNL     1      31.302 -10.888 -18.114  0.00  0.00    -0.101 C 
ATOM     24  C   UNL     1      30.637 -10.915 -20.422  0.00  0.00    -0.101 C 
ATOM     25  H   UNL     1      30.514  -9.330 -19.155  0.00  0.00    -0.080 HD
ENDBRANCH  21  22
ENDBRANCH  20  21
ENDBRANCH  19  20
ENDBRANCH   2  19
TORSDOF 6
ENDMDL
MODEL 9
REMARK VINA RESULT:      -6.8      3.184      5.708
REMARK  Name = 146570
REMARK  6 active torsions:
REMARK  status: ('A' for Active; 'I' for Inactive)
REMARK    1  A    between atoms: C_2  and  C_11
REMARK    2  A    between atoms: C_2  and  C_19
REMARK    3  A    between atoms: C_9  and  C_18
REMARK    4  A    between atoms: C_19  and  C_20
REMARK    5  A    between atoms: C_20  and  C_21
REMARK    6  A    between atoms: C_21  and  N_22
REMARK                            x       y       z     vdW  Elec       q    Type
REMARK                         _______ _______ _______ _____ _____    ______ ____
ROOT
ATOM      1  O   UNL     1      32.075  -8.131 -24.368  0.00  0.00    -0.346 OA
ATOM      2  C   UNL     1      32.789  -7.295 -23.402  0.00  0.00    +0.130 C 
ATOM      3  C   UNL     1      32.539  -7.973 -22.086  0.00  0.00    +0.004 C 
ATOM      4  C   UNL     1      31.837  -9.152 -22.294  0.00  0.00    +0.006 C 
ATOM      5  C   UNL     1      31.589  -9.340 -23.740  0.00  0.00    +0.169 C 
ATOM      6  C   UNL     1      32.912  -7.582 -20.808  0.00  0.00    -0.001 C 
ATOM      7  C   UNL     1      31.483  -9.975 -21.238  0.00  0.00    +0.008 C 
ATOM      8  C   UNL     1      32.558  -8.399 -19.733  0.00  0.00    +0.010 C 
ATOM      9  C   UNL     1      31.847  -9.590 -19.947  0.00  0.00    +0.068 C 
ENDROOT
BRANCH   2  11
ATOM     10  F   UNL     1      30.530  -2.157 -23.687  0.00  0.00    -0.204 F 
ATOM     11  C   UNL     1      32.188  -5.931 -23.477  0.00  0.00    +0.006 C 
ATOM     12  C   UNL     1      31.472  -5.424 -22.394  0.00  0.00    +0.001 C 
ATOM     13  C   UNL     1      32.346  -5.165 -24.632  0.00  0.00    +0.001 C 
ATOM     14  C   UNL     1      30.911  -4.149 -22.466  0.00  0.00    +0.029 C 
ATOM     15  C   UNL     1      31.784  -3.889 -24.703  0.00  0.00    +0.029 C 
ATOM     16  C   UNL     1      31.067  -3.382 -23.619  0.00  0.00    +0.140 C 
ENDBRANCH   2  11
BRANCH   9  18
ATOM     17  N   UNL     1      31.209 -11.086 -17.931  0.00  0.00    -0.191 NA
ATOM     18  C   UNL     1      31.496 -10.415 -18.835  0.00  0.00    +0.100 C 
ENDBRANCH   9  18
BRANCH   2  19
ATOM     19  C   UNL     1      34.264  -7.268 -23.785  0.00  0.00    +0.034 C 
BRANCH  19  20
ATOM     20  C   UNL     1      34.599  -8.370 -24.788  0.00  0.00    -0.020 C 
BRANCH  20  21
ATOM     21  C   UNL     1      35.131  -9.615 -24.081  0.00  0.00    -0.077 C 
BRANCH  21  22
ATOM     22  N   UNL     1      35.275 -10.714 -25.028  0.00  0.00    +0.384 N 
ATOM     23  C   UNL     1      35.677 -10.212 -26.343  0.00  0.00    -0.101 C 
ATOM     24  C   UNL     1      34.026 -11.470 -25.134  0.00  0.00    -0.101 C 
ATOM     25  H   UNL     1      36.004 -11.338 -24.683  0.00  0.00    -0.080 HD
ENDBRANCH  21  22
ENDBRANCH  20  21
ENDBRANCH  19  20
ENDBRANCH   2  19
TORSDOF 6
ENDMDL
