MODEL 1
REMARK VINA RESULT:      -6.4      0.000      0.000
REMARK  Name = 12530
REMARK  12 active torsions:
REMARK  status: ('A' for Active; 'I' for Inactive)
REMARK    1  A    between atoms: C_1  and  C_2
REMARK    2  A    between atoms: C_1  and  C_9
REMARK    3  A    between atoms: C_2  and  C_3
REMARK    4  A    between atoms: C_3  and  C_4
REMARK    5  A    between atoms: C_4  and  C_5
REMARK    6  A    between atoms: C_5  and  C_6
REMARK    7  A    between atoms: C_6  and  C_7
REMARK    8  A    between atoms: C_9  and  C_10
REMARK    9  A    between atoms: C_10  and  C_11
REMARK   10  A    between atoms: C_11  and  C_12
REMARK   11  A    between atoms: C_12  and  C_14
REMARK   12  A    between atoms: C_14  and  O_15
REMARK                            x       y       z     vdW  Elec       q    Type
REMARK                         _______ _______ _______ _____ _____    ______ ____
ROOT
ATOM      1  C   UNL     1      35.695 -18.537 -22.499  0.00  0.00    +0.000 C 
ENDROOT
BRANCH   1   2
ATOM      2  C   UNL     1      34.940 -19.066 -23.721  0.00  0.00    +0.000 C 
BRANCH   2   3
ATOM      3  C   UNL     1      34.494 -17.920 -24.633  0.00  0.00    +0.000 C 
BRANCH   3   4
ATOM      4  C   UNL     1      35.072 -16.581 -24.169  0.00  0.00    +0.000 C 
BRANCH   4   5
ATOM      5  C   UNL     1      33.977 -15.522 -24.034  0.00  0.00    +0.000 C 
BRANCH   5   6
ATOM      6  C   UNL     1      34.181 -14.582 -22.842  0.00  0.00    +0.000 C 
BRANCH   6   7
ATOM      7  C   UNL     1      33.520 -15.017 -21.532  0.00  0.00    +0.000 C 
ATOM      8  C   UNL     1      34.512 -15.448 -20.464  0.00  0.00    +0.000 C 
ENDBRANCH   6   7
ENDBRANCH   5   6
ENDBRANCH   4   5
ENDBRANCH   3   4
ENDBRANCH   2   3
ENDBRANCH   1   2
BRANCH   1   9
ATOM      9  C   UNL     1      35.176 -19.101 -21.172  0.00  0.00    +0.000 C 
BRANCH   9  10
ATOM     10  C   UNL     1      33.650 -19.172 -21.096  0.00  0.00    +0.001 C 
BRANCH  10  11
ATOM     11  C   UNL     1      33.194 -20.392 -20.286  0.00  0.00    +0.012 C 
BRANCH  11  12
ATOM     12  C   UNL     1      34.365 -21.257 -19.823  0.00  0.00    +0.109 C 
BRANCH  12  14
ATOM     13  O   UNL     1      34.767 -22.793 -17.971  0.00  0.00    -0.250 OA
ATOM     14  C   UNL     1      33.993 -22.220 -18.722  0.00  0.00    +0.314 C 
BRANCH  14  15
ATOM     15  O   UNL     1      32.642 -22.347 -18.652  0.00  0.00    -0.480 OA
ATOM     16  H   UNL     1      32.193 -22.144 -17.855  0.00  0.00    +0.295 HD
ENDBRANCH  14  15
ENDBRANCH  12  14
ENDBRANCH  11  12
ENDBRANCH  10  11
ENDBRANCH   9  10
ENDBRANCH   1   9
TORSDOF 12
ENDMDL
MODEL 2
REMARK VINA RESULT:      -6.3      3.203      5.813
REMARK  Name = 12530
REMARK  12 active torsions:
REMARK  status: ('A' for Active; 'I' for Inactive)
REMARK    1  A    between atoms: C_1  and  C_2
REMARK    2  A    between atoms: C_1  and  C_9
REMARK    3  A    between atoms: C_2  and  C_3
REMARK    4  A    between atoms: C_3  and  C_4
REMARK    5  A    between atoms: C_4  and  C_5
REMARK    6  A    between atoms: C_5  and  C_6
REMARK    7  A    between atoms: C_6  and  C_7
REMARK    8  A    between atoms: C_9  and  C_10
REMARK    9  A    between atoms: C_10  and  C_11
REMARK   10  A    between atoms: C_11  and  C_12
REMARK   11  A    between atoms: C_12  and  C_14
REMARK   12  A    between atoms: C_14  and  O_15
REMARK                            x       y       z     vdW  Elec       q    Type
REMARK                         _______ _______ _______ _____ _____    ______ ____
ROOT
ATOM      1  C   UNL     1      33.000 -22.544 -18.061  0.00  0.00    +0.000 C 
ENDROOT
BRANCH   1   2
ATOM      2  C   UNL     1      34.111 -22.654 -19.107  0.00  0.00    +0.000 C 
BRANCH   2   3
ATOM      3  C   UNL     1      34.459 -21.283 -19.691  0.00  0.00    +0.000 C 
BRANCH   3   4
ATOM      4  C   UNL     1      33.213 -20.574 -20.227  0.00  0.00    +0.000 C 
BRANCH   4   5
ATOM      5  C   UNL     1      33.586 -19.308 -21.002  0.00  0.00    +0.000 C 
BRANCH   5   6
ATOM      6  C   UNL     1      35.097 -19.101 -21.141  0.00  0.00    +0.000 C 
BRANCH   6   7
ATOM      7  C   UNL     1      35.568 -18.518 -22.475  0.00  0.00    +0.000 C 
ATOM      8  C   UNL     1      34.855 -19.107 -23.682  0.00  0.00    +0.000 C 
ENDBRANCH   6   7
ENDBRANCH   5   6
ENDBRANCH   4   5
ENDBRANCH   3   4
ENDBRANCH   2   3
ENDBRANCH   1   2
BRANCH   1   9
ATOM      9  C   UNL     1      33.276 -23.354 -16.791  0.00  0.00    +0.000 C 
BRANCH   9  10
ATOM     10  C   UNL     1      32.074 -23.434 -15.847  0.00  0.00    +0.001 C 
BRANCH  10  11
ATOM     11  C   UNL     1      30.836 -22.779 -16.472  0.00  0.00    +0.012 C 
BRANCH  11  12
ATOM     12  C   UNL     1      29.548 -23.537 -16.151  0.00  0.00    +0.109 C 
BRANCH  12  14
ATOM     13  O   UNL     1      27.993 -21.817 -16.906  0.00  0.00    -0.250 OA
ATOM     14  C   UNL     1      28.341 -22.987 -16.869  0.00  0.00    +0.314 C 
BRANCH  14  15
ATOM     15  O   UNL     1      27.687 -23.988 -17.516  0.00  0.00    -0.480 OA
ATOM     16  H   UNL     1      27.386 -24.735 -17.038  0.00  0.00    +0.295 HD
ENDBRANCH  14  15
ENDBRANCH  12  14
ENDBRANCH  11  12
ENDBRANCH  10  11
ENDBRANCH   9  10
ENDBRANCH   1   9
TORSDOF 12
ENDMDL
MODEL 3
REMARK VINA RESULT:      -6.1      4.129      6.991
REMARK  Name = 12530
REMARK  12 active torsions:
REMARK  status: ('A' for Active; 'I' for Inactive)
REMARK    1  A    between atoms: C_1  and  C_2
REMARK    2  A    between atoms: C_1  and  C_9
REMARK    3  A    between atoms: C_2  and  C_3
REMARK    4  A    between atoms: C_3  and  C_4
REMARK    5  A    between atoms: C_4  and  C_5
REMARK    6  A    between atoms: C_5  and  C_6
REMARK    7  A    between atoms: C_6  and  C_7
REMARK    8  A    between atoms: C_9  and  C_10
REMARK    9  A    between atoms: C_10  and  C_11
REMARK   10  A    between atoms: C_11  and  C_12
REMARK   11  A    between atoms: C_12  and  C_14
REMARK   12  A    between atoms: C_14  and  O_15
REMARK                            x       y       z     vdW  Elec       q    Type
REMARK                         _______ _______ _______ _____ _____    ______ ____
ROOT
ATOM      1  C   UNL     1      33.188 -23.212 -16.024  0.00  0.00    +0.000 C 
ENDROOT
BRANCH   1   2
ATOM      2  C   UNL     1      33.247 -23.210 -17.553  0.00  0.00    +0.000 C 
BRANCH   2   3
ATOM      3  C   UNL     1      34.506 -22.500 -18.057  0.00  0.00    +0.000 C 
BRANCH   3   4
ATOM      4  C   UNL     1      34.289 -21.906 -19.451  0.00  0.00    +0.000 C 
BRANCH   4   5
ATOM      5  C   UNL     1      33.002 -21.080 -19.507  0.00  0.00    +0.000 C 
BRANCH   5   6
ATOM      6  C   UNL     1      32.973 -20.074 -20.662  0.00  0.00    +0.000 C 
BRANCH   6   7
ATOM      7  C   UNL     1      34.296 -19.364 -20.958  0.00  0.00    +0.000 C 
ATOM      8  C   UNL     1      34.604 -19.244 -22.442  0.00  0.00    +0.000 C 
ENDBRANCH   6   7
ENDBRANCH   5   6
ENDBRANCH   4   5
ENDBRANCH   3   4
ENDBRANCH   2   3
ENDBRANCH   1   2
BRANCH   1   9
ATOM      9  C   UNL     1      31.761 -23.233 -15.469  0.00  0.00    +0.000 C 
BRANCH   9  10
ATOM     10  C   UNL     1      30.698 -22.875 -16.510  0.00  0.00    +0.001 C 
BRANCH  10  11
ATOM     11  C   UNL     1      29.305 -22.802 -15.873  0.00  0.00    +0.012 C 
BRANCH  11  12
ATOM     12  C   UNL     1      28.186 -23.033 -16.888  0.00  0.00    +0.109 C 
BRANCH  12  14
ATOM     13  O   UNL     1      26.771 -21.159 -17.548  0.00  0.00    -0.250 OA
ATOM     14  C   UNL     1      27.053 -22.045 -16.756  0.00  0.00    +0.314 C 
BRANCH  14  15
ATOM     15  O   UNL     1      26.345 -22.296 -15.623  0.00  0.00    -0.480 OA
ATOM     16  H   UNL     1      25.423 -22.130 -15.600  0.00  0.00    +0.295 HD
ENDBRANCH  14  15
ENDBRANCH  12  14
ENDBRANCH  11  12
ENDBRANCH  10  11
ENDBRANCH   9  10
ENDBRANCH   1   9
TORSDOF 12
ENDMDL
MODEL 4
REMARK VINA RESULT:      -6.1      0.855      2.766
REMARK  Name = 12530
REMARK  12 active torsions:
REMARK  status: ('A' for Active; 'I' for Inactive)
REMARK    1  A    between atoms: C_1  and  C_2
REMARK    2  A    between atoms: C_1  and  C_9
REMARK    3  A    between atoms: C_2  and  C_3
REMARK    4  A    between atoms: C_3  and  C_4
REMARK    5  A    between atoms: C_4  and  C_5
REMARK    6  A    between atoms: C_5  and  C_6
REMARK    7  A    between atoms: C_6  and  C_7
REMARK    8  A    between atoms: C_9  and  C_10
REMARK    9  A    between atoms: C_10  and  C_11
REMARK   10  A    between atoms: C_11  and  C_12
REMARK   11  A    between atoms: C_12  and  C_14
REMARK   12  A    between atoms: C_14  and  O_15
REMARK                            x       y       z     vdW  Elec       q    Type
REMARK                         _______ _______ _______ _____ _____    ______ ____
ROOT
ATOM      1  C   UNL     1      34.977 -16.822 -20.965  0.00  0.00    +0.000 C 
ENDROOT
BRANCH   1   2
ATOM      2  C   UNL     1      34.459 -15.398 -20.747  0.00  0.00    +0.000 C 
BRANCH   2   3
ATOM      3  C   UNL     1      33.015 -15.255 -21.231  0.00  0.00    +0.000 C 
BRANCH   3   4
ATOM      4  C   UNL     1      32.915 -14.277 -22.404  0.00  0.00    +0.000 C 
BRANCH   4   5
ATOM      5  C   UNL     1      34.049 -14.498 -23.408  0.00  0.00    +0.000 C 
BRANCH   5   6
ATOM      6  C   UNL     1      33.758 -15.610 -24.421  0.00  0.00    +0.000 C 
BRANCH   6   7
ATOM      7  C   UNL     1      34.890 -16.613 -24.650  0.00  0.00    +0.000 C 
ATOM      8  C   UNL     1      34.406 -17.993 -25.065  0.00  0.00    +0.000 C 
ENDBRANCH   6   7
ENDBRANCH   5   6
ENDBRANCH   4   5
ENDBRANCH   3   4
ENDBRANCH   2   3
ENDBRANCH   1   2
BRANCH   1   9
ATOM      9  C   UNL     1      33.865 -17.841 -21.232  0.00  0.00    +0.000 C 
BRANCH   9  10
ATOM     10  C   UNL     1      34.386 -19.256 -21.492  0.00  0.00    +0.001 C 
BRANCH  10  11
ATOM     11  C   UNL     1      33.782 -20.257 -20.500  0.00  0.00    +0.012 C 
BRANCH  11  12
ATOM     12  C   UNL     1      34.848 -21.078 -19.775  0.00  0.00    +0.109 C 
BRANCH  12  14
ATOM     13  O   UNL     1      34.845 -22.861 -18.110  0.00  0.00    -0.250 OA
ATOM     14  C   UNL     1      34.275 -22.232 -18.989  0.00  0.00    +0.314 C 
BRANCH  14  15
ATOM     15  O   UNL     1      32.995 -22.470 -19.376  0.00  0.00    -0.480 OA
ATOM     16  H   UNL     1      32.499 -23.149 -18.963  0.00  0.00    +0.295 HD
ENDBRANCH  14  15
ENDBRANCH  12  14
ENDBRANCH  11  12
ENDBRANCH  10  11
ENDBRANCH   9  10
ENDBRANCH   1   9
TORSDOF 12
ENDMDL
MODEL 5
REMARK VINA RESULT:      -6.1      1.283      2.598
REMARK  Name = 12530
REMARK  12 active torsions:
REMARK  status: ('A' for Active; 'I' for Inactive)
REMARK    1  A    between atoms: C_1  and  C_2
REMARK    2  A    between atoms: C_1  and  C_9
REMARK    3  A    between atoms: C_2  and  C_3
REMARK    4  A    between atoms: C_3  and  C_4
REMARK    5  A    between atoms: C_4  and  C_5
REMARK    6  A    between atoms: C_5  and  C_6
REMARK    7  A    between atoms: C_6  and  C_7
REMARK    8  A    between atoms: C_9  and  C_10
REMARK    9  A    between atoms: C_10  and  C_11
REMARK   10  A    between atoms: C_11  and  C_12
REMARK   11  A    between atoms: C_12  and  C_14
REMARK   12  A    between atoms: C_14  and  O_15
REMARK                            x       y       z     vdW  Elec       q    Type
REMARK                         _______ _______ _______ _____ _____    ______ ____
ROOT
ATOM      1  C   UNL     1      34.266 -18.161 -24.995  0.00  0.00    +0.000 C 
ENDROOT
BRANCH   1   2
ATOM      2  C   UNL     1      34.922 -16.778 -25.025  0.00  0.00    +0.000 C 
BRANCH   2   3
ATOM      3  C   UNL     1      33.881 -15.669 -24.854  0.00  0.00    +0.000 C 
BRANCH   3   4
ATOM      4  C   UNL     1      33.474 -15.510 -23.387  0.00  0.00    +0.000 C 
BRANCH   4   5
ATOM      5  C   UNL     1      34.597 -14.874 -22.565  0.00  0.00    +0.000 C 
BRANCH   5   6
ATOM      6  C   UNL     1      34.394 -15.002 -21.053  0.00  0.00    +0.000 C 
BRANCH   6   7
ATOM      7  C   UNL     1      32.947 -14.897 -20.565  0.00  0.00    +0.000 C 
ATOM      8  C   UNL     1      32.381 -13.488 -20.637  0.00  0.00    +0.000 C 
ENDBRANCH   6   7
ENDBRANCH   5   6
ENDBRANCH   4   5
ENDBRANCH   3   4
ENDBRANCH   2   3
ENDBRANCH   1   2
BRANCH   1   9
ATOM      9  C   UNL     1      34.851 -19.090 -23.927  0.00  0.00    +0.000 C 
BRANCH   9  10
ATOM     10  C   UNL     1      35.771 -18.374 -22.936  0.00  0.00    +0.001 C 
BRANCH  10  11
ATOM     11  C   UNL     1      35.347 -18.652 -21.488  0.00  0.00    +0.012 C 
BRANCH  11  12
ATOM     12  C   UNL     1      33.947 -19.257 -21.396  0.00  0.00    +0.109 C 
BRANCH  12  14
ATOM     13  O   UNL     1      32.798 -20.870 -19.972  0.00  0.00    -0.250 OA
ATOM     14  C   UNL     1      33.825 -20.309 -20.321  0.00  0.00    +0.314 C 
BRANCH  14  15
ATOM     15  O   UNL     1      35.049 -20.584 -19.797  0.00  0.00    -0.480 OA
ATOM     16  H   UNL     1      35.357 -21.468 -19.766  0.00  0.00    +0.295 HD
ENDBRANCH  14  15
ENDBRANCH  12  14
ENDBRANCH  11  12
ENDBRANCH  10  11
ENDBRANCH   9  10
ENDBRANCH   1   9
TORSDOF 12
ENDMDL
MODEL 6
REMARK VINA RESULT:      -6.0      3.346      6.235
REMARK  Name = 12530
REMARK  12 active torsions:
REMARK  status: ('A' for Active; 'I' for Inactive)
REMARK    1  A    between atoms: C_1  and  C_2
REMARK    2  A    between atoms: C_1  and  C_9
REMARK    3  A    between atoms: C_2  and  C_3
REMARK    4  A    between atoms: C_3  and  C_4
REMARK    5  A    between atoms: C_4  and  C_5
REMARK    6  A    between atoms: C_5  and  C_6
REMARK    7  A    between atoms: C_6  and  C_7
REMARK    8  A    between atoms: C_9  and  C_10
REMARK    9  A    between atoms: C_10  and  C_11
REMARK   10  A    between atoms: C_11  and  C_12
REMARK   11  A    between atoms: C_12  and  C_14
REMARK   12  A    between atoms: C_14  and  O_15
REMARK                            x       y       z     vdW  Elec       q    Type
REMARK                         _______ _______ _______ _____ _____    ______ ____
ROOT
ATOM      1  C   UNL     1      34.548 -18.161 -24.893  0.00  0.00    +0.000 C 
ENDROOT
BRANCH   1   2
ATOM      2  C   UNL     1      35.047 -18.893 -23.645  0.00  0.00    +0.000 C 
BRANCH   2   3
ATOM      3  C   UNL     1      35.492 -17.903 -22.565  0.00  0.00    +0.000 C 
BRANCH   3   4
ATOM      4  C   UNL     1      34.875 -18.246 -21.207  0.00  0.00    +0.000 C 
BRANCH   4   5
ATOM      5  C   UNL     1      34.609 -19.747 -21.082  0.00  0.00    +0.000 C 
BRANCH   5   6
ATOM      6  C   UNL     1      33.173 -20.079 -20.665  0.00  0.00    +0.000 C 
BRANCH   6   7
ATOM      7  C   UNL     1      33.030 -21.080 -19.516  0.00  0.00    +0.000 C 
ATOM      8  C   UNL     1      34.227 -22.003 -19.359  0.00  0.00    +0.000 C 
ENDBRANCH   6   7
ENDBRANCH   5   6
ENDBRANCH   4   5
ENDBRANCH   3   4
ENDBRANCH   2   3
ENDBRANCH   1   2
BRANCH   1   9
ATOM      9  C   UNL     1      34.744 -16.644 -24.830  0.00  0.00    +0.000 C 
BRANCH   9  10
ATOM     10  C   UNL     1      33.631 -15.857 -25.526  0.00  0.00    +0.001 C 
BRANCH  10  11
ATOM     11  C   UNL     1      33.310 -14.564 -24.766  0.00  0.00    +0.012 C 
BRANCH  11  12
ATOM     12  C   UNL     1      33.803 -14.599 -23.320  0.00  0.00    +0.109 C 
BRANCH  12  14
ATOM     13  O   UNL     1      32.240 -15.287 -21.578  0.00  0.00    -0.250 OA
ATOM     14  C   UNL     1      32.695 -14.422 -22.311  0.00  0.00    +0.314 C 
BRANCH  14  15
ATOM     15  O   UNL     1      32.276 -13.129 -22.301  0.00  0.00    -0.480 OA
ATOM     16  H   UNL     1      32.586 -12.531 -22.953  0.00  0.00    +0.295 HD
ENDBRANCH  14  15
ENDBRANCH  12  14
ENDBRANCH  11  12
ENDBRANCH  10  11
ENDBRANCH   9  10
ENDBRANCH   1   9
TORSDOF 12
ENDMDL
MODEL 7
REMARK VINA RESULT:      -5.9      3.739      6.867
REMARK  Name = 12530
REMARK  12 active torsions:
REMARK  status: ('A' for Active; 'I' for Inactive)
REMARK    1  A    between atoms: C_1  and  C_2
REMARK    2  A    between atoms: C_1  and  C_9
REMARK    3  A    between atoms: C_2  and  C_3
REMARK    4  A    between atoms: C_3  and  C_4
REMARK    5  A    between atoms: C_4  and  C_5
REMARK    6  A    between atoms: C_5  and  C_6
REMARK    7  A    between atoms: C_6  and  C_7
REMARK    8  A    between atoms: C_9  and  C_10
REMARK    9  A    between atoms: C_10  and  C_11
REMARK   10  A    between atoms: C_11  and  C_12
REMARK   11  A    between atoms: C_12  and  C_14
REMARK   12  A    between atoms: C_14  and  O_15
REMARK                            x       y       z     vdW  Elec       q    Type
REMARK                         _______ _______ _______ _____ _____    ______ ____
ROOT
ATOM      1  C   UNL     1      35.577 -17.666 -21.917  0.00  0.00    +0.000 C 
ENDROOT
BRANCH   1   2
ATOM      2  C   UNL     1      34.703 -18.851 -22.336  0.00  0.00    +0.000 C 
BRANCH   2   3
ATOM      3  C   UNL     1      34.494 -19.823 -21.173  0.00  0.00    +0.000 C 
BRANCH   3   4
ATOM      4  C   UNL     1      33.047 -19.794 -20.676  0.00  0.00    +0.000 C 
BRANCH   4   5
ATOM      5  C   UNL     1      32.792 -20.896 -19.646  0.00  0.00    +0.000 C 
BRANCH   5   6
ATOM      6  C   UNL     1      34.048 -21.693 -19.283  0.00  0.00    +0.000 C 
BRANCH   6   7
ATOM      7  C   UNL     1      33.807 -23.106 -18.746  0.00  0.00    +0.000 C 
ATOM      8  C   UNL     1      33.562 -23.154 -17.247  0.00  0.00    +0.000 C 
ENDBRANCH   6   7
ENDBRANCH   5   6
ENDBRANCH   4   5
ENDBRANCH   3   4
ENDBRANCH   2   3
ENDBRANCH   1   2
BRANCH   1   9
ATOM      9  C   UNL     1      34.831 -16.626 -21.076  0.00  0.00    +0.000 C 
BRANCH   9  10
ATOM     10  C   UNL     1      33.900 -15.733 -21.898  0.00  0.00    +0.001 C 
BRANCH  10  11
ATOM     11  C   UNL     1      34.569 -15.294 -23.207  0.00  0.00    +0.012 C 
BRANCH  11  12
ATOM     12  C   UNL     1      33.568 -15.139 -24.351  0.00  0.00    +0.109 C 
BRANCH  12  14
ATOM     13  O   UNL     1      34.556 -17.002 -25.577  0.00  0.00    -0.250 OA
ATOM     14  C   UNL     1      33.930 -15.954 -25.569  0.00  0.00    +0.314 C 
BRANCH  14  15
ATOM     15  O   UNL     1      33.427 -15.368 -26.688  0.00  0.00    -0.480 OA
ATOM     16  H   UNL     1      33.974 -15.250 -27.440  0.00  0.00    +0.295 HD
ENDBRANCH  14  15
ENDBRANCH  12  14
ENDBRANCH  11  12
ENDBRANCH  10  11
ENDBRANCH   9  10
ENDBRANCH   1   9
TORSDOF 12
ENDMDL
MODEL 8
REMARK VINA RESULT:      -5.9      3.836      7.224
REMARK  Name = 12530
REMARK  12 active torsions:
REMARK  status: ('A' for Active; 'I' for Inactive)
REMARK    1  A    between atoms: C_1  and  C_2
REMARK    2  A    between atoms: C_1  and  C_9
REMARK    3  A    between atoms: C_2  and  C_3
REMARK    4  A    between atoms: C_3  and  C_4
REMARK    5  A    between atoms: C_4  and  C_5
REMARK    6  A    between atoms: C_5  and  C_6
REMARK    7  A    between atoms: C_6  and  C_7
REMARK    8  A    between atoms: C_9  and  C_10
REMARK    9  A    between atoms: C_10  and  C_11
REMARK   10  A    between atoms: C_11  and  C_12
REMARK   11  A    between atoms: C_12  and  C_14
REMARK   12  A    between atoms: C_14  and  O_15
REMARK                            x       y       z     vdW  Elec       q    Type
REMARK                         _______ _______ _______ _____ _____    ______ ____
ROOT
ATOM      1  C   UNL     1      34.395 -18.389 -21.421  0.00  0.00    +0.000 C 
ENDROOT
BRANCH   1   2
ATOM      2  C   UNL     1      34.247 -19.835 -20.944  0.00  0.00    +0.000 C 
BRANCH   2   3
ATOM      3  C   UNL     1      35.578 -20.384 -20.422  0.00  0.00    +0.000 C 
BRANCH   3   4
ATOM      4  C   UNL     1      35.357 -21.517 -19.418  0.00  0.00    +0.000 C 
BRANCH   4   5
ATOM      5  C   UNL     1      33.868 -21.828 -19.251  0.00  0.00    +0.000 C 
BRANCH   5   6
ATOM      6  C   UNL     1      33.590 -22.971 -18.271  0.00  0.00    +0.000 C 
BRANCH   6   7
ATOM      7  C   UNL     1      32.399 -22.766 -17.331  0.00  0.00    +0.000 C 
ATOM      8  C   UNL     1      32.583 -23.410 -15.966  0.00  0.00    +0.000 C 
ENDBRANCH   6   7
ENDBRANCH   5   6
ENDBRANCH   4   5
ENDBRANCH   3   4
ENDBRANCH   2   3
ENDBRANCH   1   2
BRANCH   1   9
ATOM      9  C   UNL     1      35.229 -18.250 -22.698  0.00  0.00    +0.000 C 
BRANCH   9  10
ATOM     10  C   UNL     1      34.777 -19.182 -23.825  0.00  0.00    +0.001 C 
BRANCH  10  11
ATOM     11  C   UNL     1      34.291 -18.384 -25.040  0.00  0.00    +0.012 C 
BRANCH  11  12
ATOM     12  C   UNL     1      34.855 -16.964 -25.070  0.00  0.00    +0.109 C 
BRANCH  12  14
ATOM     13  O   UNL     1      33.362 -15.703 -26.529  0.00  0.00    -0.250 OA
ATOM     14  C   UNL     1      33.821 -15.922 -25.419  0.00  0.00    +0.314 C 
BRANCH  14  15
ATOM     15  O   UNL     1      33.431 -15.258 -24.299  0.00  0.00    -0.480 OA
ATOM     16  H   UNL     1      32.909 -14.483 -24.372  0.00  0.00    +0.295 HD
ENDBRANCH  14  15
ENDBRANCH  12  14
ENDBRANCH  11  12
ENDBRANCH  10  11
ENDBRANCH   9  10
ENDBRANCH   1   9
TORSDOF 12
ENDMDL
MODEL 9
REMARK VINA RESULT:      -5.9      3.469      5.773
REMARK  Name = 12530
REMARK  12 active torsions:
REMARK  status: ('A' for Active; 'I' for Inactive)
REMARK    1  A    between atoms: C_1  and  C_2
REMARK    2  A    between atoms: C_1  and  C_9
REMARK    3  A    between atoms: C_2  and  C_3
REMARK    4  A    between atoms: C_3  and  C_4
REMARK    5  A    between atoms: C_4  and  C_5
REMARK    6  A    between atoms: C_5  and  C_6
REMARK    7  A    between atoms: C_6  and  C_7
REMARK    8  A    between atoms: C_9  and  C_10
REMARK    9  A    between atoms: C_10  and  C_11
REMARK   10  A    between atoms: C_11  and  C_12
REMARK   11  A    between atoms: C_12  and  C_14
REMARK   12  A    between atoms: C_14  and  O_15
REMARK                            x       y       z     vdW  Elec       q    Type
REMARK                         _______ _______ _______ _____ _____    ______ ____
ROOT
ATOM      1  C   UNL     1      33.592 -22.421 -18.564  0.00  0.00    +0.000 C 
ENDROOT
BRANCH   1   2
ATOM      2  C   UNL     1      35.047 -22.092 -18.908  0.00  0.00    +0.000 C 
BRANCH   2   3
ATOM      3  C   UNL     1      35.131 -20.936 -19.907  0.00  0.00    +0.000 C 
BRANCH   3   4
ATOM      4  C   UNL     1      33.738 -20.471 -20.339  0.00  0.00    +0.000 C 
BRANCH   4   5
ATOM      5  C   UNL     1      33.800 -19.114 -21.044  0.00  0.00    +0.000 C 
BRANCH   5   6
ATOM      6  C   UNL     1      34.980 -18.983 -22.011  0.00  0.00    +0.000 C 
BRANCH   6   7
ATOM      7  C   UNL     1      34.670 -19.278 -23.481  0.00  0.00    +0.000 C 
ATOM      8  C   UNL     1      34.889 -18.086 -24.400  0.00  0.00    +0.000 C 
ENDBRANCH   6   7
ENDBRANCH   5   6
ENDBRANCH   4   5
ENDBRANCH   3   4
ENDBRANCH   2   3
ENDBRANCH   1   2
BRANCH   1   9
ATOM      9  C   UNL     1      33.440 -23.235 -17.276  0.00  0.00    +0.000 C 
BRANCH   9  10
ATOM     10  C   UNL     1      32.019 -23.219 -16.709  0.00  0.00    +0.001 C 
BRANCH  10  11
ATOM     11  C   UNL     1      32.036 -23.180 -15.176  0.00  0.00    +0.012 C 
BRANCH  11  12
ATOM     12  C   UNL     1      30.643 -23.355 -14.571  0.00  0.00    +0.109 C 
BRANCH  12  14
ATOM     13  O   UNL     1      29.933 -25.664 -14.903  0.00  0.00    -0.250 OA
ATOM     14  C   UNL     1      30.346 -24.778 -14.170  0.00  0.00    +0.314 C 
BRANCH  14  15
ATOM     15  O   UNL     1      30.634 -24.963 -12.855  0.00  0.00    -0.480 OA
ATOM     16  H   UNL     1      29.940 -25.025 -12.228  0.00  0.00    +0.295 HD
ENDBRANCH  14  15
ENDBRANCH  12  14
ENDBRANCH  11  12
ENDBRANCH  10  11
ENDBRANCH   9  10
ENDBRANCH   1   9
TORSDOF 12
ENDMDL
