MODEL 1
REMARK VINA RESULT:     -10.1      0.000      0.000
REMARK  Name = 465951
REMARK  4 active torsions:
REMARK  status: ('A' for Active; 'I' for Inactive)
REMARK    1  A    between atoms: C_2  and  N_16
REMARK    2  A    between atoms: C_3  and  N_9
REMARK    3  A    between atoms: C_17  and  C_20
REMARK    4  A    between atoms: C_20  and  N_22
REMARK                            x       y       z     vdW  Elec       q    Type
REMARK                         _______ _______ _______ _____ _____    ______ ____
ROOT
ATOM      1  F   UNL     1      36.981 -19.381 -21.361  0.00  0.00    -0.203 F 
ATOM      2  C   UNL     1      34.592 -21.278 -19.384  0.00  0.00    +0.059 C 
ATOM      3  C   UNL     1      34.611 -19.424 -21.517  0.00  0.00    +0.076 C 
ATOM      4  C   UNL     1      35.802 -20.774 -19.860  0.00  0.00    +0.046 C 
ATOM      5  C   UNL     1      33.391 -20.867 -19.962  0.00  0.00    +0.016 C 
ATOM      6  C   UNL     1      35.812 -19.859 -20.912  0.00  0.00    +0.155 C 
ATOM      7  C   UNL     1      33.400 -19.951 -21.014  0.00  0.00    +0.018 C 
ENDROOT
BRANCH   3   9
ATOM      8  S   UNL     1      34.697 -16.506 -24.994  0.00  0.00    -0.137 S 
ATOM      9  N   UNL     1      34.617 -18.505 -22.573  0.00  0.00    -0.304 N 
ATOM     10  C   UNL     1      34.978 -19.024 -23.901  0.00  0.00    +0.102 C 
ATOM     11  C   UNL     1      34.937 -17.099 -22.299  0.00  0.00    +0.102 C 
ATOM     12  C   UNL     1      34.261 -18.267 -25.011  0.00  0.00    +0.079 C 
ATOM     13  C   UNL     1      34.231 -16.163 -23.275  0.00  0.00    +0.079 C 
ENDBRANCH   3   9
BRANCH   2  16
ATOM     14  O   UNL     1      35.175 -23.410 -16.492  0.00  0.00    -0.434 OA
ATOM     15  O   UNL     1      36.653 -21.853 -17.223  0.00  0.00    -0.226 OA
ATOM     16  N   UNL     1      34.582 -22.213 -18.310  0.00  0.00    -0.221 N 
ATOM     17  C   UNL     1      33.801 -23.731 -16.747  0.00  0.00    +0.210 C 
ATOM     18  C   UNL     1      33.543 -23.193 -18.140  0.00  0.00    +0.147 C 
ATOM     19  C   UNL     1      35.570 -22.408 -17.349  0.00  0.00    +0.409 C 
BRANCH  17  20
ATOM     20  C   UNL     1      32.936 -23.074 -15.681  0.00  0.00    +0.135 C 
BRANCH  20  22
ATOM     21  O   UNL     1      30.328 -22.574 -16.853  0.00  0.00    -0.275 OA
ATOM     22  N   UNL     1      31.728 -23.814 -15.465  0.00  0.00    -0.301 N 
ATOM     23  C   UNL     1      30.516 -23.504 -16.071  0.00  0.00    +0.223 C 
ATOM     24  C   UNL     1      29.416 -24.457 -15.690  0.00  0.00    +0.095 C 
ATOM     25  H   UNL     1      31.758 -24.585 -14.853  0.00  0.00    +0.150 HD
ENDBRANCH  20  22
ENDBRANCH  17  20
ENDBRANCH   2  16
TORSDOF 4
ENDMDL
MODEL 2
REMARK VINA RESULT:     -10.0      4.636      8.840
REMARK  Name = 465951
REMARK  4 active torsions:
REMARK  status: ('A' for Active; 'I' for Inactive)
REMARK    1  A    between atoms: C_2  and  N_16
REMARK    2  A    between atoms: C_3  and  N_9
REMARK    3  A    between atoms: C_17  and  C_20
REMARK    4  A    between atoms: C_20  and  N_22
REMARK                            x       y       z     vdW  Elec       q    Type
REMARK                         _______ _______ _______ _____ _____    ______ ____
ROOT
ATOM      1  F   UNL     1      32.490 -20.616 -19.507  0.00  0.00    -0.203 F 
ATOM      2  C   UNL     1      34.942 -19.114 -21.731  0.00  0.00    +0.059 C 
ATOM      3  C   UNL     1      34.841 -20.946 -19.582  0.00  0.00    +0.076 C 
ATOM      4  C   UNL     1      33.720 -19.422 -21.134  0.00  0.00    +0.046 C 
ATOM      5  C   UNL     1      36.115 -19.710 -21.267  0.00  0.00    +0.016 C 
ATOM      6  C   UNL     1      33.670 -20.327 -20.073  0.00  0.00    +0.155 C 
ATOM      7  C   UNL     1      36.065 -20.614 -20.206  0.00  0.00    +0.018 C 
ENDROOT
BRANCH   3   9
ATOM      8  S   UNL     1      34.792 -23.902 -16.137  0.00  0.00    -0.137 S 
ATOM      9  N   UNL     1      34.794 -21.854 -18.516  0.00  0.00    -0.304 N 
ATOM     10  C   UNL     1      36.051 -22.085 -17.788  0.00  0.00    +0.102 C 
ATOM     11  C   UNL     1      33.836 -22.965 -18.561  0.00  0.00    +0.102 C 
ATOM     12  C   UNL     1      35.796 -22.402 -16.320  0.00  0.00    +0.079 C 
ATOM     13  C   UNL     1      33.392 -23.378 -17.162  0.00  0.00    +0.079 C 
ENDBRANCH   3   9
BRANCH   2  16
ATOM     14  O   UNL     1      34.948 -17.297 -24.885  0.00  0.00    -0.434 OA
ATOM     15  O   UNL     1      34.596 -19.531 -24.724  0.00  0.00    -0.226 OA
ATOM     16  N   UNL     1      34.993 -18.191 -22.815  0.00  0.00    -0.221 N 
ATOM     17  C   UNL     1      34.992 -16.189 -23.976  0.00  0.00    +0.210 C 
ATOM     18  C   UNL     1      35.363 -16.812 -22.645  0.00  0.00    +0.147 C 
ATOM     19  C   UNL     1      34.813 -18.463 -24.168  0.00  0.00    +0.409 C 
BRANCH  17  20
ATOM     20  C   UNL     1      33.629 -15.510 -23.961  0.00  0.00    +0.135 C 
BRANCH  20  22
ATOM     21  O   UNL     1      32.753 -15.728 -26.719  0.00  0.00    -0.275 OA
ATOM     22  N   UNL     1      33.561 -14.464 -24.938  0.00  0.00    -0.301 N 
ATOM     23  C   UNL     1      33.126 -14.658 -26.244  0.00  0.00    +0.223 C 
ATOM     24  C   UNL     1      33.130 -13.388 -27.051  0.00  0.00    +0.095 C 
ATOM     25  H   UNL     1      33.837 -13.558 -24.669  0.00  0.00    +0.150 HD
ENDBRANCH  20  22
ENDBRANCH  17  20
ENDBRANCH   2  16
TORSDOF 4
ENDMDL
MODEL 3
REMARK VINA RESULT:     -10.0      4.555      8.335
REMARK  Name = 465951
REMARK  4 active torsions:
REMARK  status: ('A' for Active; 'I' for Inactive)
REMARK    1  A    between atoms: C_2  and  N_16
REMARK    2  A    between atoms: C_3  and  N_9
REMARK    3  A    between atoms: C_17  and  C_20
REMARK    4  A    between atoms: C_20  and  N_22
REMARK                            x       y       z     vdW  Elec       q    Type
REMARK                         _______ _______ _______ _____ _____    ______ ____
ROOT
ATOM      1  F   UNL     1      38.108 -22.230 -16.261  0.00  0.00    -0.203 F 
ATOM      2  C   UNL     1      35.230 -21.774 -18.434  0.00  0.00    +0.059 C 
ATOM      3  C   UNL     1      35.956 -23.227 -16.122  0.00  0.00    +0.076 C 
ATOM      4  C   UNL     1      36.513 -21.645 -17.903  0.00  0.00    +0.046 C 
ATOM      5  C   UNL     1      34.305 -22.620 -17.822  0.00  0.00    +0.016 C 
ATOM      6  C   UNL     1      36.872 -22.362 -16.762  0.00  0.00    +0.155 C 
ATOM      7  C   UNL     1      34.663 -23.338 -16.681  0.00  0.00    +0.018 C 
ENDROOT
BRANCH   3   9
ATOM      8  S   UNL     1      37.048 -25.642 -12.436  0.00  0.00    -0.137 S 
ATOM      9  N   UNL     1      36.314 -23.949 -14.976  0.00  0.00    -0.304 N 
ATOM     10  C   UNL     1      36.049 -25.396 -14.997  0.00  0.00    +0.102 C 
ATOM     11  C   UNL     1      36.280 -23.284 -13.669  0.00  0.00    +0.102 C 
ATOM     12  C   UNL     1      37.076 -26.163 -14.173  0.00  0.00    +0.079 C 
ATOM     13  C   UNL     1      37.315 -23.871 -12.714  0.00  0.00    +0.079 C 
ENDBRANCH   3   9
BRANCH   2  16
ATOM     14  O   UNL     1      33.661 -19.967 -21.177  0.00  0.00    -0.434 OA
ATOM     15  O   UNL     1      32.509 -20.860 -19.440  0.00  0.00    -0.226 OA
ATOM     16  N   UNL     1      34.863 -21.041 -19.599  0.00  0.00    -0.221 N 
ATOM     17  C   UNL     1      35.038 -19.696 -21.474  0.00  0.00    +0.210 C 
ATOM     18  C   UNL     1      35.806 -20.689 -20.626  0.00  0.00    +0.147 C 
ATOM     19  C   UNL     1      33.584 -20.651 -19.986  0.00  0.00    +0.409 C 
BRANCH  17  20
ATOM     20  C   UNL     1      35.341 -18.246 -21.122  0.00  0.00    +0.135 C 
BRANCH  20  22
ATOM     21  O   UNL     1      34.942 -15.511 -20.237  0.00  0.00    -0.275 OA
ATOM     22  N   UNL     1      34.213 -17.402 -21.385  0.00  0.00    -0.301 N 
ATOM     23  C   UNL     1      34.104 -16.097 -20.919  0.00  0.00    +0.223 C 
ATOM     24  C   UNL     1      32.830 -15.428 -21.360  0.00  0.00    +0.095 C 
ATOM     25  H   UNL     1      33.475 -17.767 -21.924  0.00  0.00    +0.150 HD
ENDBRANCH  20  22
ENDBRANCH  17  20
ENDBRANCH   2  16
TORSDOF 4
ENDMDL
MODEL 4
REMARK VINA RESULT:      -9.7      1.075      1.515
REMARK  Name = 465951
REMARK  4 active torsions:
REMARK  status: ('A' for Active; 'I' for Inactive)
REMARK    1  A    between atoms: C_2  and  N_16
REMARK    2  A    between atoms: C_3  and  N_9
REMARK    3  A    between atoms: C_17  and  C_20
REMARK    4  A    between atoms: C_20  and  N_22
REMARK                            x       y       z     vdW  Elec       q    Type
REMARK                         _______ _______ _______ _____ _____    ______ ____
ROOT
ATOM      1  F   UNL     1      36.946 -19.499 -21.064  0.00  0.00    -0.203 F 
ATOM      2  C   UNL     1      34.545 -21.422 -19.127  0.00  0.00    +0.059 C 
ATOM      3  C   UNL     1      34.576 -19.529 -21.225  0.00  0.00    +0.076 C 
ATOM      4  C   UNL     1      35.758 -20.914 -19.591  0.00  0.00    +0.046 C 
ATOM      5  C   UNL     1      33.347 -20.995 -19.699  0.00  0.00    +0.016 C 
ATOM      6  C   UNL     1      35.774 -19.980 -20.626  0.00  0.00    +0.155 C 
ATOM      7  C   UNL     1      33.361 -20.060 -20.734  0.00  0.00    +0.018 C 
ENDROOT
BRANCH   3   9
ATOM      8  S   UNL     1      34.553 -16.424 -24.537  0.00  0.00    -0.137 S 
ATOM      9  N   UNL     1      34.588 -18.590 -22.264  0.00  0.00    -0.304 N 
ATOM     10  C   UNL     1      34.253 -17.203 -21.906  0.00  0.00    +0.102 C 
ATOM     11  C   UNL     1      34.262 -19.024 -23.627  0.00  0.00    +0.102 C 
ATOM     12  C   UNL     1      34.991 -16.206 -22.790  0.00  0.00    +0.079 C 
ATOM     13  C   UNL     1      34.984 -18.180 -24.672  0.00  0.00    +0.079 C 
ENDBRANCH   3   9
BRANCH   2  16
ATOM     14  O   UNL     1      35.130 -23.638 -16.298  0.00  0.00    -0.434 OA
ATOM     15  O   UNL     1      36.654 -22.140 -17.057  0.00  0.00    -0.226 OA
ATOM     16  N   UNL     1      34.529 -22.377 -18.070  0.00  0.00    -0.221 N 
ATOM     17  C   UNL     1      33.733 -23.886 -16.506  0.00  0.00    +0.210 C 
ATOM     18  C   UNL     1      33.450 -23.308 -17.878  0.00  0.00    +0.147 C 
ATOM     19  C   UNL     1      35.541 -22.640 -17.151  0.00  0.00    +0.409 C 
BRANCH  17  20
ATOM     20  C   UNL     1      32.942 -23.209 -15.396  0.00  0.00    +0.135 C 
BRANCH  20  22
ATOM     21  O   UNL     1      31.764 -25.432 -13.949  0.00  0.00    -0.275 OA
ATOM     22  N   UNL     1      31.571 -23.626 -15.407  0.00  0.00    -0.301 N 
ATOM     23  C   UNL     1      31.091 -24.708 -14.679  0.00  0.00    +0.223 C 
ATOM     24  C   UNL     1      29.610 -24.912 -14.852  0.00  0.00    +0.095 C 
ATOM     25  H   UNL     1      30.935 -23.118 -15.961  0.00  0.00    +0.150 HD
ENDBRANCH  20  22
ENDBRANCH  17  20
ENDBRANCH   2  16
TORSDOF 4
ENDMDL
MODEL 5
REMARK VINA RESULT:      -9.7      1.562      1.954
REMARK  Name = 465951
REMARK  4 active torsions:
REMARK  status: ('A' for Active; 'I' for Inactive)
REMARK    1  A    between atoms: C_2  and  N_16
REMARK    2  A    between atoms: C_3  and  N_9
REMARK    3  A    between atoms: C_17  and  C_20
REMARK    4  A    between atoms: C_20  and  N_22
REMARK                            x       y       z     vdW  Elec       q    Type
REMARK                         _______ _______ _______ _____ _____    ______ ____
ROOT
ATOM      1  F   UNL     1      36.970 -19.078 -21.389  0.00  0.00    -0.203 F 
ATOM      2  C   UNL     1      34.702 -21.172 -19.468  0.00  0.00    +0.059 C 
ATOM      3  C   UNL     1      34.607 -19.265 -21.552  0.00  0.00    +0.076 C 
ATOM      4  C   UNL     1      35.879 -20.580 -19.927  0.00  0.00    +0.046 C 
ATOM      5  C   UNL     1      33.478 -20.821 -20.038  0.00  0.00    +0.016 C 
ATOM      6  C   UNL     1      35.833 -19.639 -20.956  0.00  0.00    +0.155 C 
ATOM      7  C   UNL     1      33.431 -19.879 -21.066  0.00  0.00    +0.018 C 
ENDROOT
BRANCH   3   9
ATOM      8  S   UNL     1      34.515 -16.256 -24.950  0.00  0.00    -0.137 S 
ATOM      9  N   UNL     1      34.558 -18.319 -22.583  0.00  0.00    -0.304 N 
ATOM     10  C   UNL     1      34.959 -18.778 -23.922  0.00  0.00    +0.102 C 
ATOM     11  C   UNL     1      34.781 -16.903 -22.270  0.00  0.00    +0.102 C 
ATOM     12  C   UNL     1      34.198 -18.041 -25.016  0.00  0.00    +0.079 C 
ATOM     13  C   UNL     1      34.019 -15.991 -23.227  0.00  0.00    +0.079 C 
ENDBRANCH   3   9
BRANCH   2  16
ATOM     14  O   UNL     1      35.462 -23.419 -16.707  0.00  0.00    -0.434 OA
ATOM     15  O   UNL     1      36.953 -21.949 -17.577  0.00  0.00    -0.226 OA
ATOM     16  N   UNL     1      34.749 -22.133 -18.418  0.00  0.00    -0.221 N 
ATOM     17  C   UNL     1      34.048 -23.636 -16.805  0.00  0.00    +0.210 C 
ATOM     18  C   UNL     1      33.670 -23.042 -18.146  0.00  0.00    +0.147 C 
ATOM     19  C   UNL     1      35.826 -22.424 -17.585  0.00  0.00    +0.409 C 
BRANCH  17  20
ATOM     20  C   UNL     1      33.362 -22.950 -15.631  0.00  0.00    +0.135 C 
BRANCH  20  22
ATOM     21  O   UNL     1      32.884 -24.741 -13.398  0.00  0.00    -0.275 OA
ATOM     22  N   UNL     1      34.139 -23.074 -14.433  0.00  0.00    -0.301 N 
ATOM     23  C   UNL     1      33.836 -23.964 -13.409  0.00  0.00    +0.223 C 
ATOM     24  C   UNL     1      34.829 -23.907 -12.279  0.00  0.00    +0.095 C 
ATOM     25  H   UNL     1      34.931 -22.498 -14.330  0.00  0.00    +0.150 HD
ENDBRANCH  20  22
ENDBRANCH  17  20
ENDBRANCH   2  16
TORSDOF 4
ENDMDL
MODEL 6
REMARK VINA RESULT:      -9.6      7.062     10.348
REMARK  Name = 465951
REMARK  4 active torsions:
REMARK  status: ('A' for Active; 'I' for Inactive)
REMARK    1  A    between atoms: C_2  and  N_16
REMARK    2  A    between atoms: C_3  and  N_9
REMARK    3  A    between atoms: C_17  and  C_20
REMARK    4  A    between atoms: C_20  and  N_22
REMARK                            x       y       z     vdW  Elec       q    Type
REMARK                         _______ _______ _______ _____ _____    ______ ____
ROOT
ATOM      1  F   UNL     1      30.839 -10.705 -21.214  0.00  0.00    -0.203 F 
ATOM      2  C   UNL     1      32.977 -12.663 -23.409  0.00  0.00    +0.059 C 
ATOM      3  C   UNL     1      32.452  -9.956 -22.790  0.00  0.00    +0.076 C 
ATOM      4  C   UNL     1      32.020 -12.340 -22.447  0.00  0.00    +0.046 C 
ATOM      5  C   UNL     1      33.674 -11.649 -24.065  0.00  0.00    +0.016 C 
ATOM      6  C   UNL     1      31.761 -11.004 -22.140  0.00  0.00    +0.155 C 
ATOM      7  C   UNL     1      33.415 -10.312 -23.760  0.00  0.00    +0.018 C 
ENDROOT
BRANCH   3   9
ATOM      8  S   UNL     1      31.631  -5.580 -21.903  0.00  0.00    -0.137 S 
ATOM      9  N   UNL     1      32.193  -8.614 -22.485  0.00  0.00    -0.304 N 
ATOM     10  C   UNL     1      31.810  -7.743 -23.607  0.00  0.00    +0.102 C 
ATOM     11  C   UNL     1      32.897  -7.983 -21.363  0.00  0.00    +0.102 C 
ATOM     12  C   UNL     1      30.861  -6.639 -23.159  0.00  0.00    +0.079 C 
ATOM     13  C   UNL     1      32.056  -6.885 -20.719  0.00  0.00    +0.079 C 
ENDBRANCH   3   9
BRANCH   2  16
ATOM     14  O   UNL     1      33.604 -15.946 -24.851  0.00  0.00    -0.434 OA
ATOM     15  O   UNL     1      33.215 -14.085 -26.087  0.00  0.00    -0.226 OA
ATOM     16  N   UNL     1      33.242 -14.027 -23.721  0.00  0.00    -0.221 N 
ATOM     17  C   UNL     1      33.906 -16.230 -23.478  0.00  0.00    +0.210 C 
ATOM     18  C   UNL     1      33.335 -15.052 -22.717  0.00  0.00    +0.147 C 
ATOM     19  C   UNL     1      33.345 -14.601 -24.985  0.00  0.00    +0.409 C 
BRANCH  17  20
ATOM     20  C   UNL     1      35.415 -16.368 -23.324  0.00  0.00    +0.135 C 
BRANCH  20  22
ATOM     21  O   UNL     1      35.344 -17.043 -20.502  0.00  0.00    -0.275 OA
ATOM     22  N   UNL     1      35.761 -17.620 -22.720  0.00  0.00    -0.301 N 
ATOM     23  C   UNL     1      35.697 -17.858 -21.352  0.00  0.00    +0.223 C 
ATOM     24  C   UNL     1      36.092 -19.263 -20.987  0.00  0.00    +0.095 C 
ATOM     25  H   UNL     1      36.061 -18.353 -23.306  0.00  0.00    +0.150 HD
ENDBRANCH  20  22
ENDBRANCH  17  20
ENDBRANCH   2  16
TORSDOF 4
ENDMDL
MODEL 7
REMARK VINA RESULT:      -9.5      2.053      2.652
REMARK  Name = 465951
REMARK  4 active torsions:
REMARK  status: ('A' for Active; 'I' for Inactive)
REMARK    1  A    between atoms: C_2  and  N_16
REMARK    2  A    between atoms: C_3  and  N_9
REMARK    3  A    between atoms: C_17  and  C_20
REMARK    4  A    between atoms: C_20  and  N_22
REMARK                            x       y       z     vdW  Elec       q    Type
REMARK                         _______ _______ _______ _____ _____    ______ ____
ROOT
ATOM      1  F   UNL     1      32.457 -19.920 -21.232  0.00  0.00    -0.203 F 
ATOM      2  C   UNL     1      34.952 -21.480 -19.096  0.00  0.00    +0.059 C 
ATOM      3  C   UNL     1      34.820 -19.677 -21.269  0.00  0.00    +0.076 C 
ATOM      4  C   UNL     1      33.716 -21.135 -19.643  0.00  0.00    +0.046 C 
ATOM      5  C   UNL     1      36.123 -20.935 -19.623  0.00  0.00    +0.016 C 
ATOM      6  C   UNL     1      33.650 -20.245 -20.715  0.00  0.00    +0.155 C 
ATOM      7  C   UNL     1      36.058 -20.046 -20.696  0.00  0.00    +0.018 C 
ENDROOT
BRANCH   3   9
ATOM      8  S   UNL     1      34.677 -16.849 -24.817  0.00  0.00    -0.137 S 
ATOM      9  N   UNL     1      34.757 -18.785 -22.346  0.00  0.00    -0.304 N 
ATOM     10  C   UNL     1      35.016 -19.342 -23.683  0.00  0.00    +0.102 C 
ATOM     11  C   UNL     1      35.108 -17.376 -22.132  0.00  0.00    +0.102 C 
ATOM     12  C   UNL     1      34.227 -18.605 -24.757  0.00  0.00    +0.079 C 
ATOM     13  C   UNL     1      34.341 -16.458 -23.079  0.00  0.00    +0.079 C 
ENDBRANCH   3   9
BRANCH   2  16
ATOM     14  O   UNL     1      35.771 -23.610 -16.261  0.00  0.00    -0.434 OA
ATOM     15  O   UNL     1      37.265 -22.237 -17.273  0.00  0.00    -0.226 OA
ATOM     16  N   UNL     1      35.019 -22.388 -18.001  0.00  0.00    -0.221 N 
ATOM     17  C   UNL     1      34.348 -23.783 -16.281  0.00  0.00    +0.210 C 
ATOM     18  C   UNL     1      33.925 -23.246 -17.633  0.00  0.00    +0.147 C 
ATOM     19  C   UNL     1      36.124 -22.673 -17.204  0.00  0.00    +0.409 C 
BRANCH  17  20
ATOM     20  C   UNL     1      33.742 -23.016 -15.114  0.00  0.00    +0.135 C 
BRANCH  20  22
ATOM     21  O   UNL     1      33.448 -24.705 -12.772  0.00  0.00    -0.275 OA
ATOM     22  N   UNL     1      34.595 -23.065 -13.964  0.00  0.00    -0.301 N 
ATOM     23  C   UNL     1      34.378 -23.909 -12.881  0.00  0.00    +0.223 C 
ATOM     24  C   UNL     1      35.437 -23.776 -11.820  0.00  0.00    +0.095 C 
ATOM     25  H   UNL     1      35.377 -22.467 -13.939  0.00  0.00    +0.150 HD
ENDBRANCH  20  22
ENDBRANCH  17  20
ENDBRANCH   2  16
TORSDOF 4
ENDMDL
MODEL 8
REMARK VINA RESULT:      -9.4      6.399      8.080
REMARK  Name = 465951
REMARK  4 active torsions:
REMARK  status: ('A' for Active; 'I' for Inactive)
REMARK    1  A    between atoms: C_2  and  N_16
REMARK    2  A    between atoms: C_3  and  N_9
REMARK    3  A    between atoms: C_17  and  C_20
REMARK    4  A    between atoms: C_20  and  N_22
REMARK                            x       y       z     vdW  Elec       q    Type
REMARK                         _______ _______ _______ _____ _____    ______ ____
ROOT
ATOM      1  F   UNL     1      32.329 -24.927 -13.401  0.00  0.00    -0.203 F 
ATOM      2  C   UNL     1      35.316 -24.145 -15.319  0.00  0.00    +0.059 C 
ATOM      3  C   UNL     1      32.511 -23.876 -15.524  0.00  0.00    +0.076 C 
ATOM      4  C   UNL     1      34.494 -24.610 -14.293  0.00  0.00    +0.046 C 
ATOM      5  C   UNL     1      34.753 -23.548 -16.447  0.00  0.00    +0.016 C 
ATOM      6  C   UNL     1      33.109 -24.477 -14.393  0.00  0.00    +0.155 C 
ATOM      7  C   UNL     1      33.368 -23.415 -16.548  0.00  0.00    +0.018 C 
ENDROOT
BRANCH   3   9
ATOM      8  S   UNL     1      27.999 -23.540 -15.901  0.00  0.00    -0.137 S 
ATOM      9  N   UNL     1      31.121 -23.742 -15.628  0.00  0.00    -0.304 N 
ATOM     10  C   UNL     1      30.337 -24.987 -15.659  0.00  0.00    +0.102 C 
ATOM     11  C   UNL     1      30.562 -22.585 -16.337  0.00  0.00    +0.102 C 
ATOM     12  C   UNL     1      28.966 -24.799 -15.022  0.00  0.00    +0.079 C 
ATOM     13  C   UNL     1      29.200 -22.188 -15.776  0.00  0.00    +0.079 C 
ENDBRANCH   3   9
BRANCH   2  16
ATOM     14  O   UNL     1      38.942 -23.832 -15.211  0.00  0.00    -0.434 OA
ATOM     15  O   UNL     1      37.546 -22.109 -15.685  0.00  0.00    -0.226 OA
ATOM     16  N   UNL     1      36.730 -24.280 -15.216  0.00  0.00    -0.221 N 
ATOM     17  C   UNL     1      38.804 -25.157 -14.681  0.00  0.00    +0.210 C 
ATOM     18  C   UNL     1      37.379 -25.548 -15.014  0.00  0.00    +0.147 C 
ATOM     19  C   UNL     1      37.691 -23.288 -15.391  0.00  0.00    +0.409 C 
BRANCH  17  20
ATOM     20  C   UNL     1      39.081 -25.120 -13.184  0.00  0.00    +0.135 C 
BRANCH  20  22
ATOM     21  O   UNL     1      38.232 -22.817 -11.636  0.00  0.00    -0.275 OA
ATOM     22  N   UNL     1      37.868 -24.974 -12.436  0.00  0.00    -0.301 N 
ATOM     23  C   UNL     1      37.540 -23.829 -11.720  0.00  0.00    +0.223 C 
ATOM     24  C   UNL     1      36.198 -23.931 -11.046  0.00  0.00    +0.095 C 
ATOM     25  H   UNL     1      37.232 -25.726 -12.429  0.00  0.00    +0.150 HD
ENDBRANCH  20  22
ENDBRANCH  17  20
ENDBRANCH   2  16
TORSDOF 4
ENDMDL
MODEL 9
REMARK VINA RESULT:      -9.2      3.785      5.706
REMARK  Name = 465951
REMARK  4 active torsions:
REMARK  status: ('A' for Active; 'I' for Inactive)
REMARK    1  A    between atoms: C_2  and  N_16
REMARK    2  A    between atoms: C_3  and  N_9
REMARK    3  A    between atoms: C_17  and  C_20
REMARK    4  A    between atoms: C_20  and  N_22
REMARK                            x       y       z     vdW  Elec       q    Type
REMARK                         _______ _______ _______ _____ _____    ______ ____
ROOT
ATOM      1  F   UNL     1      37.228 -20.842 -17.972  0.00  0.00    -0.203 F 
ATOM      2  C   UNL     1      35.715 -23.451 -15.942  0.00  0.00    +0.059 C 
ATOM      3  C   UNL     1      35.120 -21.906 -18.232  0.00  0.00    +0.076 C 
ATOM      4  C   UNL     1      36.632 -22.508 -16.405  0.00  0.00    +0.046 C 
ATOM      5  C   UNL     1      34.503 -23.630 -16.609  0.00  0.00    +0.016 C 
ATOM      6  C   UNL     1      36.339 -21.745 -17.535  0.00  0.00    +0.155 C 
ATOM      7  C   UNL     1      34.209 -22.867 -17.740  0.00  0.00    +0.018 C 
ENDROOT
BRANCH   3   9
ATOM      8  S   UNL     1      34.073 -19.488 -21.929  0.00  0.00    -0.137 S 
ATOM      9  N   UNL     1      34.822 -21.140 -19.366  0.00  0.00    -0.304 N 
ATOM     10  C   UNL     1      33.440 -21.207 -19.866  0.00  0.00    +0.102 C 
ATOM     11  C   UNL     1      35.876 -20.882 -20.355  0.00  0.00    +0.102 C 
ATOM     12  C   UNL     1      33.016 -19.895 -20.512  0.00  0.00    +0.079 C 
ATOM     13  C   UNL     1      35.665 -19.548 -21.063  0.00  0.00    +0.079 C 
ENDBRANCH   3   9
BRANCH   2  16
ATOM     14  O   UNL     1      36.534 -25.955 -13.430  0.00  0.00    -0.434 OA
ATOM     15  O   UNL     1      36.364 -26.407 -15.646  0.00  0.00    -0.226 OA
ATOM     16  N   UNL     1      36.014 -24.230 -14.788  0.00  0.00    -0.221 N 
ATOM     17  C   UNL     1      36.611 -24.775 -12.619  0.00  0.00    +0.210 C 
ATOM     18  C   UNL     1      35.936 -23.704 -13.452  0.00  0.00    +0.147 C 
ATOM     19  C   UNL     1      36.313 -25.589 -14.738  0.00  0.00    +0.409 C 
BRANCH  17  20
ATOM     20  C   UNL     1      38.074 -24.473 -12.327  0.00  0.00    +0.135 C 
BRANCH  20  22
ATOM     21  O   UNL     1      39.537 -24.298 -14.828  0.00  0.00    -0.275 OA
ATOM     22  N   UNL     1      38.933 -25.464 -12.904  0.00  0.00    -0.301 N 
ATOM     23  C   UNL     1      39.599 -25.296 -14.113  0.00  0.00    +0.223 C 
ATOM     24  C   UNL     1      40.454 -26.480 -14.474  0.00  0.00    +0.095 C 
ATOM     25  H   UNL     1      39.059 -26.311 -12.417  0.00  0.00    +0.150 HD
ENDBRANCH  20  22
ENDBRANCH  17  20
ENDBRANCH   2  16
TORSDOF 4
ENDMDL
