MODEL 1
REMARK VINA RESULT:      -8.5      0.000      0.000
REMARK  Name = 10634
REMARK  2 active torsions:
REMARK  status: ('A' for Active; 'I' for Inactive)
REMARK    1  A    between atoms: C_8  and  O_20
REMARK    2  A    between atoms: C_19  and  O_22
REMARK                            x       y       z     vdW  Elec       q    Type
REMARK                         _______ _______ _______ _____ _____    ______ ____
ROOT
ATOM      1  C   UNL     1      35.596 -22.820 -15.380  0.00  0.00    +0.003 C 
ATOM      2  C   UNL     1      34.551 -23.849 -14.911  0.00  0.00    +0.025 C 
ATOM      3  C   UNL     1      35.707 -22.732 -16.905  0.00  0.00    +0.005 C 
ATOM      4  C   UNL     1      34.319 -22.341 -17.507  0.00  0.00    +0.004 C 
ATOM      5  C   UNL     1      34.386 -22.267 -19.083  0.00  0.00    +0.015 C 
ATOM      6  C   UNL     1      33.182 -23.389 -15.422  0.00  0.00    +0.002 C 
ATOM      7  C   UNL     1      33.174 -23.238 -16.954  0.00  0.00    +0.000 C 
ATOM      8  C   UNL     1      34.746 -23.721 -13.386  0.00  0.00    +0.110 C 
ATOM      9  C   UNL     1      36.838 -23.173 -14.565  0.00  0.00    +0.003 C 
ATOM     10  C   UNL     1      36.795 -21.729 -17.316  0.00  0.00    +0.025 C 
ATOM     11  C   UNL     1      36.275 -23.633 -13.208  0.00  0.00    +0.029 C 
ATOM     12  C   UNL     1      35.609 -21.445 -19.513  0.00  0.00    -0.047 C 
ATOM     13  C   UNL     1      33.100 -21.599 -19.674  0.00  0.00    +0.006 C 
ATOM     14  C   UNL     1      34.822 -25.300 -15.379  0.00  0.00    +0.002 C 
ATOM     15  C   UNL     1      36.668 -21.226 -18.717  0.00  0.00    -0.035 C 
ATOM     16  C   UNL     1      34.512 -23.676 -19.709  0.00  0.00    +0.004 C 
ATOM     17  C   UNL     1      35.505 -20.773 -20.857  0.00  0.00    +0.051 C 
ATOM     18  C   UNL     1      33.245 -20.085 -19.857  0.00  0.00    +0.030 C 
ATOM     19  C   UNL     1      34.358 -19.753 -20.863  0.00  0.00    +0.115 C 
ENDROOT
BRANCH   8  20
ATOM     20  O   UNL     1      34.177 -24.780 -12.640  0.00  0.00    -0.384 OA
ATOM     21  H   UNL     1      34.854 -25.450 -12.459  0.00  0.00    +0.210 HD
ENDBRANCH   8  20
BRANCH  19  22
ATOM     22  O   UNL     1      33.813 -19.725 -22.182  0.00  0.00    -0.384 OA
ATOM     23  H   UNL     1      34.302 -20.344 -22.747  0.00  0.00    +0.210 HD
ENDBRANCH  19  22
TORSDOF 2
ENDMDL
MODEL 2
REMARK VINA RESULT:      -8.5      3.564      6.177
REMARK  Name = 10634
REMARK  2 active torsions:
REMARK  status: ('A' for Active; 'I' for Inactive)
REMARK    1  A    between atoms: C_8  and  O_20
REMARK    2  A    between atoms: C_19  and  O_22
REMARK                            x       y       z     vdW  Elec       q    Type
REMARK                         _______ _______ _______ _____ _____    ______ ____
ROOT
ATOM      1  C   UNL     1      32.625 -23.613 -15.862  0.00  0.00    +0.003 C 
ATOM      2  C   UNL     1      31.566 -23.832 -14.765  0.00  0.00    +0.025 C 
ATOM      3  C   UNL     1      34.029 -23.370 -15.299  0.00  0.00    +0.005 C 
ATOM      4  C   UNL     1      34.460 -24.596 -14.430  0.00  0.00    +0.004 C 
ATOM      5  C   UNL     1      35.894 -24.371 -13.809  0.00  0.00    +0.015 C 
ATOM      6  C   UNL     1      31.951 -25.099 -13.993  0.00  0.00    +0.002 C 
ATOM      7  C   UNL     1      33.365 -24.986 -13.396  0.00  0.00    +0.000 C 
ATOM      8  C   UNL     1      30.314 -23.976 -15.656  0.00  0.00    +0.110 C 
ATOM      9  C   UNL     1      31.993 -22.553 -16.763  0.00  0.00    +0.003 C 
ATOM     10  C   UNL     1      35.032 -23.110 -16.432  0.00  0.00    +0.025 C 
ATOM     11  C   UNL     1      30.490 -22.884 -16.731  0.00  0.00    +0.029 C 
ATOM     12  C   UNL     1      36.863 -23.891 -14.898  0.00  0.00    -0.047 C 
ATOM     13  C   UNL     1      36.455 -25.693 -13.186  0.00  0.00    +0.006 C 
ATOM     14  C   UNL     1      31.406 -22.649 -13.780  0.00  0.00    +0.002 C 
ATOM     15  C   UNL     1      36.460 -23.328 -16.049  0.00  0.00    -0.035 C 
ATOM     16  C   UNL     1      35.863 -23.303 -12.690  0.00  0.00    +0.004 C 
ATOM     17  C   UNL     1      38.318 -24.204 -14.664  0.00  0.00    +0.051 C 
ATOM     18  C   UNL     1      37.297 -26.507 -14.176  0.00  0.00    +0.030 C 
ATOM     19  C   UNL     1      38.541 -25.722 -14.619  0.00  0.00    +0.115 C 
ENDROOT
BRANCH   8  20
ATOM     20  O   UNL     1      29.091 -23.851 -14.956  0.00  0.00    -0.384 OA
ATOM     21  H   UNL     1      29.027 -24.550 -14.288  0.00  0.00    +0.210 HD
ENDBRANCH   8  20
BRANCH  19  22
ATOM     22  O   UNL     1      39.611 -25.974 -13.708  0.00  0.00    -0.384 OA
ATOM     23  H   UNL     1      39.281 -25.919 -12.798  0.00  0.00    +0.210 HD
ENDBRANCH  19  22
TORSDOF 2
ENDMDL
MODEL 3
REMARK VINA RESULT:      -7.4      3.282      5.015
REMARK  Name = 10634
REMARK  2 active torsions:
REMARK  status: ('A' for Active; 'I' for Inactive)
REMARK    1  A    between atoms: C_8  and  O_20
REMARK    2  A    between atoms: C_19  and  O_22
REMARK                            x       y       z     vdW  Elec       q    Type
REMARK                         _______ _______ _______ _____ _____    ______ ____
ROOT
ATOM      1  C   UNL     1      35.110 -23.000 -15.471  0.00  0.00    +0.003 C 
ATOM      2  C   UNL     1      35.684 -23.797 -14.284  0.00  0.00    +0.025 C 
ATOM      3  C   UNL     1      33.730 -23.496 -15.914  0.00  0.00    +0.005 C 
ATOM      4  C   UNL     1      32.731 -23.394 -14.717  0.00  0.00    +0.004 C 
ATOM      5  C   UNL     1      31.301 -23.923 -15.128  0.00  0.00    +0.015 C 
ATOM      6  C   UNL     1      34.744 -23.596 -13.091  0.00  0.00    +0.002 C 
ATOM      7  C   UNL     1      33.307 -24.038 -13.423  0.00  0.00    +0.000 C 
ATOM      8  C   UNL     1      37.051 -23.094 -14.154  0.00  0.00    +0.110 C 
ATOM      9  C   UNL     1      36.254 -22.989 -16.482  0.00  0.00    +0.003 C 
ATOM     10  C   UNL     1      33.229 -22.700 -17.128  0.00  0.00    +0.025 C 
ATOM     11  C   UNL     1      37.522 -22.911 -15.611  0.00  0.00    +0.029 C 
ATOM     12  C   UNL     1      30.880 -23.299 -16.465  0.00  0.00    -0.047 C 
ATOM     13  C   UNL     1      30.230 -23.559 -14.046  0.00  0.00    +0.006 C 
ATOM     14  C   UNL     1      35.868 -25.310 -14.555  0.00  0.00    +0.002 C 
ATOM     15  C   UNL     1      31.752 -22.770 -17.340  0.00  0.00    -0.035 C 
ATOM     16  C   UNL     1      31.295 -25.461 -15.293  0.00  0.00    +0.004 C 
ATOM     17  C   UNL     1      29.396 -23.191 -16.699  0.00  0.00    +0.051 C 
ATOM     18  C   UNL     1      29.530 -22.224 -14.326  0.00  0.00    +0.030 C 
ATOM     19  C   UNL     1      28.751 -22.276 -15.649  0.00  0.00    +0.115 C 
ENDROOT
BRANCH   8  20
ATOM     20  O   UNL     1      37.991 -23.802 -13.369  0.00  0.00    -0.384 OA
ATOM     21  H   UNL     1      37.528 -24.449 -12.813  0.00  0.00    +0.210 HD
ENDBRANCH   8  20
BRANCH  19  22
ATOM     22  O   UNL     1      27.431 -22.763 -15.405  0.00  0.00    -0.384 OA
ATOM     23  H   UNL     1      26.838 -22.459 -16.109  0.00  0.00    +0.210 HD
ENDBRANCH  19  22
TORSDOF 2
ENDMDL
MODEL 4
REMARK VINA RESULT:      -7.2      9.311     13.750
REMARK  Name = 10634
REMARK  2 active torsions:
REMARK  status: ('A' for Active; 'I' for Inactive)
REMARK    1  A    between atoms: C_8  and  O_20
REMARK    2  A    between atoms: C_19  and  O_22
REMARK                            x       y       z     vdW  Elec       q    Type
REMARK                         _______ _______ _______ _____ _____    ______ ____
ROOT
ATOM      1  C   UNL     1      32.700  -9.226 -22.120  0.00  0.00    +0.003 C 
ATOM      2  C   UNL     1      33.107  -8.672 -23.497  0.00  0.00    +0.025 C 
ATOM      3  C   UNL     1      32.235 -10.684 -22.174  0.00  0.00    +0.005 C 
ATOM      4  C   UNL     1      33.383 -11.576 -22.748  0.00  0.00    +0.004 C 
ATOM      5  C   UNL     1      32.931 -13.086 -22.845  0.00  0.00    +0.015 C 
ATOM      6  C   UNL     1      34.302  -9.493 -23.995  0.00  0.00    +0.002 C 
ATOM      7  C   UNL     1      33.964 -10.993 -24.068  0.00  0.00    +0.000 C 
ATOM      8  C   UNL     1      33.445  -7.222 -23.091  0.00  0.00    +0.110 C 
ATOM      9  C   UNL     1      31.749  -8.164 -21.573  0.00  0.00    +0.003 C 
ATOM     10  C   UNL     1      31.796 -11.168 -20.784  0.00  0.00    +0.025 C 
ATOM     11  C   UNL     1      32.326  -6.838 -22.103  0.00  0.00    +0.029 C 
ATOM     12  C   UNL     1      32.282 -13.520 -21.524  0.00  0.00    -0.047 C 
ATOM     13  C   UNL     1      34.149 -14.024 -23.138  0.00  0.00    +0.006 C 
ATOM     14  C   UNL     1      31.981  -8.696 -24.559  0.00  0.00    +0.002 C 
ATOM     15  C   UNL     1      31.778 -12.654 -20.629  0.00  0.00    -0.035 C 
ATOM     16  C   UNL     1      31.898 -13.293 -23.978  0.00  0.00    +0.004 C 
ATOM     17  C   UNL     1      32.352 -14.992 -21.214  0.00  0.00    +0.051 C 
ATOM     18  C   UNL     1      34.798 -14.572 -21.862  0.00  0.00    +0.030 C 
ATOM     19  C   UNL     1      33.812 -15.443 -21.070  0.00  0.00    +0.115 C 
ENDROOT
BRANCH   8  20
ATOM     20  O   UNL     1      33.535  -6.324 -24.179  0.00  0.00    -0.384 OA
ATOM     21  H   UNL     1      34.387  -6.441 -24.627  0.00  0.00    +0.210 HD
ENDBRANCH   8  20
BRANCH  19  22
ATOM     22  O   UNL     1      33.894 -16.792 -21.531  0.00  0.00    -0.384 OA
ATOM     23  H   UNL     1      34.632 -16.876 -22.154  0.00  0.00    +0.210 HD
ENDBRANCH  19  22
TORSDOF 2
ENDMDL
MODEL 5
REMARK VINA RESULT:      -6.9      2.201      7.396
REMARK  Name = 10634
REMARK  2 active torsions:
REMARK  status: ('A' for Active; 'I' for Inactive)
REMARK    1  A    between atoms: C_8  and  O_20
REMARK    2  A    between atoms: C_19  and  O_22
REMARK                            x       y       z     vdW  Elec       q    Type
REMARK                         _______ _______ _______ _____ _____    ______ ____
ROOT
ATOM      1  C   UNL     1      34.171 -18.412 -21.239  0.00  0.00    +0.003 C 
ATOM      2  C   UNL     1      35.403 -18.118 -22.115  0.00  0.00    +0.025 C 
ATOM      3  C   UNL     1      34.086 -19.875 -20.796  0.00  0.00    +0.005 C 
ATOM      4  C   UNL     1      35.369 -20.250 -19.987  0.00  0.00    +0.004 C 
ATOM      5  C   UNL     1      35.331 -21.762 -19.534  0.00  0.00    +0.015 C 
ATOM      6  C   UNL     1      36.651 -18.391 -21.268  0.00  0.00    +0.002 C 
ATOM      7  C   UNL     1      36.668 -19.836 -20.738  0.00  0.00    +0.000 C 
ATOM      8  C   UNL     1      35.142 -16.628 -22.417  0.00  0.00    +0.110 C 
ATOM      9  C   UNL     1      33.015 -17.809 -22.035  0.00  0.00    +0.003 C 
ATOM     10  C   UNL     1      32.815 -20.121 -19.969  0.00  0.00    +0.025 C 
ATOM     11  C   UNL     1      33.627 -16.560 -22.696  0.00  0.00    +0.029 C 
ATOM     12  C   UNL     1      33.970 -22.081 -18.902  0.00  0.00    -0.047 C 
ATOM     13  C   UNL     1      36.455 -22.069 -18.489  0.00  0.00    +0.006 C 
ATOM     14  C   UNL     1      35.472 -18.941 -23.425  0.00  0.00    +0.002 C 
ATOM     15  C   UNL     1      32.866 -21.346 -19.114  0.00  0.00    -0.035 C 
ATOM     16  C   UNL     1      35.537 -22.716 -20.736  0.00  0.00    +0.004 C 
ATOM     17  C   UNL     1      33.960 -23.212 -17.908  0.00  0.00    +0.051 C 
ATOM     18  C   UNL     1      35.983 -21.895 -17.041  0.00  0.00    +0.030 C 
ATOM     19  C   UNL     1      34.853 -22.880 -16.705  0.00  0.00    +0.115 C 
ENDROOT
BRANCH   8  20
ATOM     20  O   UNL     1      35.910 -16.114 -23.488  0.00  0.00    -0.384 OA
ATOM     21  H   UNL     1      36.518 -15.435 -23.155  0.00  0.00    +0.210 HD
ENDBRANCH   8  20
BRANCH  19  22
ATOM     22  O   UNL     1      35.416 -24.105 -16.233  0.00  0.00    -0.384 OA
ATOM     23  H   UNL     1      35.517 -24.721 -16.976  0.00  0.00    +0.210 HD
ENDBRANCH  19  22
TORSDOF 2
ENDMDL
MODEL 6
REMARK VINA RESULT:      -6.8      3.363      6.271
REMARK  Name = 10634
REMARK  2 active torsions:
REMARK  status: ('A' for Active; 'I' for Inactive)
REMARK    1  A    between atoms: C_8  and  O_20
REMARK    2  A    between atoms: C_19  and  O_22
REMARK                            x       y       z     vdW  Elec       q    Type
REMARK                         _______ _______ _______ _____ _____    ______ ____
ROOT
ATOM      1  C   UNL     1      31.829 -23.188 -14.615  0.00  0.00    +0.003 C 
ATOM      2  C   UNL     1      31.428 -23.322 -16.095  0.00  0.00    +0.025 C 
ATOM      3  C   UNL     1      33.022 -24.069 -14.235  0.00  0.00    +0.005 C 
ATOM      4  C   UNL     1      34.253 -23.688 -15.119  0.00  0.00    +0.004 C 
ATOM      5  C   UNL     1      35.499 -24.595 -14.775  0.00  0.00    +0.015 C 
ATOM      6  C   UNL     1      32.611 -22.843 -16.943  0.00  0.00    +0.002 C 
ATOM      7  C   UNL     1      33.889 -23.643 -16.631  0.00  0.00    +0.000 C 
ATOM      8  C   UNL     1      30.204 -22.382 -16.106  0.00  0.00    +0.110 C 
ATOM      9  C   UNL     1      30.508 -23.366 -13.868  0.00  0.00    +0.003 C 
ATOM     10  C   UNL     1      33.347 -23.932 -12.740  0.00  0.00    +0.025 C 
ATOM     11  C   UNL     1      29.466 -22.711 -14.793  0.00  0.00    +0.029 C 
ATOM     12  C   UNL     1      35.700 -24.647 -13.254  0.00  0.00    -0.047 C 
ATOM     13  C   UNL     1      36.805 -24.039 -15.435  0.00  0.00    +0.006 C 
ATOM     14  C   UNL     1      31.024 -24.754 -16.525  0.00  0.00    +0.002 C 
ATOM     15  C   UNL     1      34.731 -24.358 -12.371  0.00  0.00    -0.035 C 
ATOM     16  C   UNL     1      35.299 -26.044 -15.282  0.00  0.00    +0.004 C 
ATOM     17  C   UNL     1      37.106 -24.923 -12.790  0.00  0.00    +0.051 C 
ATOM     18  C   UNL     1      37.575 -23.084 -14.517  0.00  0.00    +0.030 C 
ATOM     19  C   UNL     1      38.053 -23.804 -13.246  0.00  0.00    +0.115 C 
ENDROOT
BRANCH   8  20
ATOM     20  O   UNL     1      29.374 -22.529 -17.242  0.00  0.00    -0.384 OA
ATOM     21  H   UNL     1      29.369 -21.702 -17.749  0.00  0.00    +0.210 HD
ENDBRANCH   8  20
BRANCH  19  22
ATOM     22  O   UNL     1      39.332 -24.392 -13.486  0.00  0.00    -0.384 OA
ATOM     23  H   UNL     1      39.255 -25.358 -13.452  0.00  0.00    +0.210 HD
ENDBRANCH  19  22
TORSDOF 2
ENDMDL
MODEL 7
REMARK VINA RESULT:      -6.8      8.439     11.948
REMARK  Name = 10634
REMARK  2 active torsions:
REMARK  status: ('A' for Active; 'I' for Inactive)
REMARK    1  A    between atoms: C_8  and  O_20
REMARK    2  A    between atoms: C_19  and  O_22
REMARK                            x       y       z     vdW  Elec       q    Type
REMARK                         _______ _______ _______ _____ _____    ______ ____
ROOT
ATOM      1  C   UNL     1      34.013 -13.922 -22.541  0.00  0.00    +0.003 C 
ATOM      2  C   UNL     1      33.523 -14.917 -21.473  0.00  0.00    +0.025 C 
ATOM      3  C   UNL     1      33.023 -12.781 -22.795  0.00  0.00    +0.005 C 
ATOM      4  C   UNL     1      32.775 -12.000 -21.464  0.00  0.00    +0.004 C 
ATOM      5  C   UNL     1      31.737 -10.830 -21.680  0.00  0.00    +0.015 C 
ATOM      6  C   UNL     1      33.388 -14.154 -20.151  0.00  0.00    +0.002 C 
ATOM      7  C   UNL     1      32.430 -12.957 -20.286  0.00  0.00    +0.000 C 
ATOM      8  C   UNL     1      34.691 -15.924 -21.520  0.00  0.00    +0.110 C 
ATOM      9  C   UNL     1      34.426 -14.819 -23.705  0.00  0.00    +0.003 C 
ATOM     10  C   UNL     1      33.539 -11.848 -23.900  0.00  0.00    +0.025 C 
ATOM     11  C   UNL     1      34.997 -16.076 -23.024  0.00  0.00    +0.029 C 
ATOM     12  C   UNL     1      32.121 -10.018 -22.924  0.00  0.00    -0.047 C 
ATOM     13  C   UNL     1      31.702  -9.869 -20.445  0.00  0.00    +0.006 C 
ATOM     14  C   UNL     1      32.183 -15.615 -21.811  0.00  0.00    +0.002 C 
ATOM     15  C   UNL     1      32.914 -10.491 -23.899  0.00  0.00    -0.035 C 
ATOM     16  C   UNL     1      30.305 -11.378 -21.888  0.00  0.00    +0.004 C 
ATOM     17  C   UNL     1      31.657  -8.585 -22.938  0.00  0.00    +0.051 C 
ATOM     18  C   UNL     1      32.668  -8.687 -20.582  0.00  0.00    +0.030 C 
ATOM     19  C   UNL     1      32.291  -7.802 -21.780  0.00  0.00    +0.115 C 
ENDROOT
BRANCH   8  20
ATOM     20  O   UNL     1      34.409 -17.164 -20.900  0.00  0.00    -0.384 OA
ATOM     21  H   UNL     1      35.111 -17.799 -21.111  0.00  0.00    +0.210 HD
ENDBRANCH   8  20
BRANCH  19  22
ATOM     22  O   UNL     1      31.351  -6.812 -21.362  0.00  0.00    -0.384 OA
ATOM     23  H   UNL     1      30.736  -6.624 -22.088  0.00  0.00    +0.210 HD
ENDBRANCH  19  22
TORSDOF 2
ENDMDL
MODEL 8
REMARK VINA RESULT:      -6.8     15.043     19.472
REMARK  Name = 10634
REMARK  2 active torsions:
REMARK  status: ('A' for Active; 'I' for Inactive)
REMARK    1  A    between atoms: C_8  and  O_20
REMARK    2  A    between atoms: C_19  and  O_22
REMARK                            x       y       z     vdW  Elec       q    Type
REMARK                         _______ _______ _______ _____ _____    ______ ____
ROOT
ATOM      1  C   UNL     1      33.293  -4.682 -26.556  0.00  0.00    +0.003 C 
ATOM      2  C   UNL     1      32.307  -3.499 -26.567  0.00  0.00    +0.025 C 
ATOM      3  C   UNL     1      33.439  -5.326 -25.173  0.00  0.00    +0.005 C 
ATOM      4  C   UNL     1      32.045  -5.837 -24.687  0.00  0.00    +0.004 C 
ATOM      5  C   UNL     1      32.150  -6.485 -23.251  0.00  0.00    +0.015 C 
ATOM      6  C   UNL     1      30.924  -4.042 -26.191  0.00  0.00    +0.002 C 
ATOM      7  C   UNL     1      30.948  -4.741 -24.819  0.00  0.00    +0.000 C 
ATOM      8  C   UNL     1      32.452  -3.072 -28.043  0.00  0.00    +0.110 C 
ATOM      9  C   UNL     1      34.534  -4.122 -27.248  0.00  0.00    +0.003 C 
ATOM     10  C   UNL     1      34.469  -6.466 -25.209  0.00  0.00    +0.025 C 
ATOM     11  C   UNL     1      33.967  -3.169 -28.316  0.00  0.00    +0.029 C 
ATOM     12  C   UNL     1      33.326  -7.469 -23.209  0.00  0.00    -0.047 C 
ATOM     13  C   UNL     1      30.838  -7.253 -22.878  0.00  0.00    +0.006 C 
ATOM     14  C   UNL     1      32.687  -2.336 -25.620  0.00  0.00    +0.002 C 
ATOM     15  C   UNL     1      34.347  -7.438 -24.082  0.00  0.00    -0.035 C 
ATOM     16  C   UNL     1      32.387  -5.409 -22.163  0.00  0.00    +0.004 C 
ATOM     17  C   UNL     1      33.215  -8.579 -22.196  0.00  0.00    +0.051 C 
ATOM     18  C   UNL     1      30.888  -8.736 -23.265  0.00  0.00    +0.030 C 
ATOM     19  C   UNL     1      32.003  -9.469 -22.504  0.00  0.00    +0.115 C 
ENDROOT
BRANCH   8  20
ATOM     20  O   UNL     1      31.935  -1.786 -28.325  0.00  0.00    -0.384 OA
ATOM     21  H   UNL     1      31.836  -1.288 -27.499  0.00  0.00    +0.210 HD
ENDBRANCH   8  20
BRANCH  19  22
ATOM     22  O   UNL     1      31.493  -9.948 -21.259  0.00  0.00    -0.384 OA
ATOM     23  H   UNL     1      31.855  -9.415 -20.535  0.00  0.00    +0.210 HD
ENDBRANCH  19  22
TORSDOF 2
ENDMDL
MODEL 9
REMARK VINA RESULT:      -6.7     10.867     14.569
REMARK  Name = 10634
REMARK  2 active torsions:
REMARK  status: ('A' for Active; 'I' for Inactive)
REMARK    1  A    between atoms: C_8  and  O_20
REMARK    2  A    between atoms: C_19  and  O_22
REMARK                            x       y       z     vdW  Elec       q    Type
REMARK                         _______ _______ _______ _____ _____    ______ ____
ROOT
ATOM      1  C   UNL     1      32.192 -11.795 -22.290  0.00  0.00    +0.003 C 
ATOM      2  C   UNL     1      33.029 -12.367 -23.448  0.00  0.00    +0.025 C 
ATOM      3  C   UNL     1      32.592 -10.366 -21.910  0.00  0.00    +0.005 C 
ATOM      4  C   UNL     1      32.426  -9.432 -23.152  0.00  0.00    +0.004 C 
ATOM      5  C   UNL     1      32.855  -7.952 -22.807  0.00  0.00    +0.015 C 
ATOM      6  C   UNL     1      32.769 -11.499 -24.684  0.00  0.00    +0.002 C 
ATOM      7  C   UNL     1      33.112 -10.022 -24.417  0.00  0.00    +0.000 C 
ATOM      8  C   UNL     1      32.421 -13.784 -23.516  0.00  0.00    +0.110 C 
ATOM      9  C   UNL     1      32.255 -12.890 -21.227  0.00  0.00    +0.003 C 
ATOM     10  C   UNL     1      31.760  -9.865 -20.721  0.00  0.00    +0.025 C 
ATOM     11  C   UNL     1      32.266 -14.198 -22.039  0.00  0.00    +0.029 C 
ATOM     12  C   UNL     1      32.200  -7.514 -21.490  0.00  0.00    -0.047 C 
ATOM     13  C   UNL     1      32.423  -6.958 -23.937  0.00  0.00    +0.006 C 
ATOM     14  C   UNL     1      34.551 -12.436 -23.170  0.00  0.00    +0.002 C 
ATOM     15  C   UNL     1      31.729  -8.378 -20.576  0.00  0.00    -0.035 C 
ATOM     16  C   UNL     1      34.389  -7.834 -22.642  0.00  0.00    +0.004 C 
ATOM     17  C   UNL     1      31.991  -6.031 -21.325  0.00  0.00    +0.051 C 
ATOM     18  C   UNL     1      31.043  -6.339 -23.689  0.00  0.00    +0.030 C 
ATOM     19  C   UNL     1      31.038  -5.498 -22.403  0.00  0.00    +0.115 C 
ENDROOT
BRANCH   8  20
ATOM     20  O   UNL     1      33.194 -14.708 -24.257  0.00  0.00    -0.384 OA
ATOM     21  H   UNL     1      34.112 -14.686 -23.947  0.00  0.00    +0.210 HD
ENDBRANCH   8  20
BRANCH  19  22
ATOM     22  O   UNL     1      31.436  -4.161 -22.708  0.00  0.00    -0.384 OA
ATOM     23  H   UNL     1      31.777  -3.735 -21.907  0.00  0.00    +0.210 HD
ENDBRANCH  19  22
TORSDOF 2
ENDMDL
