MODEL 1
REMARK VINA RESULT:      -8.7      0.000      0.000
REMARK  Name = 51355
REMARK  0 active torsions:
REMARK  status: ('A' for Active; 'I' for Inactive)
REMARK                            x       y       z     vdW  Elec       q    Type
REMARK                         _______ _______ _______ _____ _____    ______ ____
ROOT
ATOM      1  N   UNL     1      32.757 -12.329 -23.423  0.00  0.00    -0.309 N 
ATOM      2  N   UNL     1      33.663 -13.229 -25.975  0.00  0.00    +0.388 N 
ATOM      3  N   UNL     1      32.901  -9.245 -23.488  0.00  0.00    -0.284 N 
ATOM      4  C   UNL     1      33.802 -11.548 -24.130  0.00  0.00    +0.088 C 
ATOM      5  C   UNL     1      33.650 -11.795 -25.654  0.00  0.00    -0.051 C 
ATOM      6  C   UNL     1      32.687 -13.752 -23.774  0.00  0.00    +0.068 C 
ATOM      7  C   UNL     1      33.927 -10.057 -23.909  0.00  0.00    +0.045 C 
ATOM      8  C   UNL     1      32.563 -13.914 -25.289  0.00  0.00    -0.056 C 
ATOM      9  C   UNL     1      32.317 -11.942 -22.154  0.00  0.00    +0.046 C 
ATOM     10  C   UNL     1      31.583  -9.707 -23.098  0.00  0.00    +0.123 C 
ATOM     11  C   UNL     1      31.724 -10.674 -21.952  0.00  0.00    +0.011 C 
ATOM     12  C   UNL     1      35.032  -9.241 -24.088  0.00  0.00    +0.013 C 
ATOM     13  C   UNL     1      33.570 -13.432 -27.421  0.00  0.00    -0.101 C 
ATOM     14  C   UNL     1      33.324  -7.943 -23.417  0.00  0.00    +0.065 C 
ATOM     15  C   UNL     1      32.415 -12.799 -21.040  0.00  0.00    +0.014 C 
ATOM     16  C   UNL     1      34.650  -7.912 -23.784  0.00  0.00    +0.017 C 
ATOM     17  C   UNL     1      31.270 -10.294 -20.677  0.00  0.00    -0.001 C 
ATOM     18  C   UNL     1      31.958 -12.413 -19.776  0.00  0.00    +0.001 C 
ATOM     19  C   UNL     1      31.386 -11.160 -19.595  0.00  0.00    -0.000 C 
ATOM     20  H   UNL     1      34.546 -13.625 -25.653  0.00  0.00    -0.080 HD
ENDROOT
TORSDOF 0
ENDMDL
MODEL 2
REMARK VINA RESULT:      -8.5      2.340      5.990
REMARK  Name = 51355
REMARK  0 active torsions:
REMARK  status: ('A' for Active; 'I' for Inactive)
REMARK                            x       y       z     vdW  Elec       q    Type
REMARK                         _______ _______ _______ _____ _____    ______ ____
ROOT
ATOM      1  N   UNL     1      32.791  -7.612 -23.181  0.00  0.00    -0.309 N 
ATOM      2  N   UNL     1      31.629  -5.169 -22.271  0.00  0.00    +0.388 N 
ATOM      3  N   UNL     1      31.622  -9.848 -21.402  0.00  0.00    -0.284 N 
ATOM      4  C   UNL     1      32.472  -7.462 -21.740  0.00  0.00    +0.088 C 
ATOM      5  C   UNL     1      31.315  -6.439 -21.599  0.00  0.00    -0.051 C 
ATOM      6  C   UNL     1      33.036  -6.360 -23.906  0.00  0.00    +0.068 C 
ATOM      7  C   UNL     1      32.129  -8.672 -20.901  0.00  0.00    +0.045 C 
ATOM      8  C   UNL     1      31.867  -5.397 -23.700  0.00  0.00    -0.056 C 
ATOM      9  C   UNL     1      33.399  -8.776 -23.657  0.00  0.00    +0.046 C 
ATOM     10  C   UNL     1      31.435 -10.137 -22.810  0.00  0.00    +0.123 C 
ATOM     11  C   UNL     1      32.766 -10.032 -23.510  0.00  0.00    +0.011 C 
ATOM     12  C   UNL     1      32.233  -8.838 -19.528  0.00  0.00    +0.013 C 
ATOM     13  C   UNL     1      30.544  -4.206 -22.079  0.00  0.00    -0.101 C 
ATOM     14  C   UNL     1      31.387 -10.736 -20.384  0.00  0.00    +0.065 C 
ATOM     15  C   UNL     1      34.640  -8.750 -24.325  0.00  0.00    +0.014 C 
ATOM     16  C   UNL     1      31.761 -10.132 -19.205  0.00  0.00    +0.017 C 
ATOM     17  C   UNL     1      33.372 -11.200 -24.002  0.00  0.00    -0.001 C 
ATOM     18  C   UNL     1      35.234  -9.916 -24.814  0.00  0.00    +0.001 C 
ATOM     19  C   UNL     1      34.600 -11.142 -24.652  0.00  0.00    -0.000 C 
ATOM     20  H   UNL     1      32.477  -4.784 -21.856  0.00  0.00    -0.080 HD
ENDROOT
TORSDOF 0
ENDMDL
MODEL 3
REMARK VINA RESULT:      -8.1      3.895      6.514
REMARK  Name = 51355
REMARK  0 active torsions:
REMARK  status: ('A' for Active; 'I' for Inactive)
REMARK                            x       y       z     vdW  Elec       q    Type
REMARK                         _______ _______ _______ _____ _____    ______ ____
ROOT
ATOM      1  N   UNL     1      34.546 -16.800 -23.439  0.00  0.00    -0.309 N 
ATOM      2  N   UNL     1      35.677 -18.747 -21.685  0.00  0.00    +0.388 N 
ATOM      3  N   UNL     1      33.579 -14.476 -21.650  0.00  0.00    -0.284 N 
ATOM      4  C   UNL     1      33.970 -16.965 -22.081  0.00  0.00    +0.088 C 
ATOM      5  C   UNL     1      35.075 -17.520 -21.146  0.00  0.00    -0.051 C 
ATOM      6  C   UNL     1      35.223 -17.982 -23.983  0.00  0.00    +0.068 C 
ATOM      7  C   UNL     1      33.309 -15.797 -21.382  0.00  0.00    +0.045 C 
ATOM      8  C   UNL     1      36.278 -18.484 -22.996  0.00  0.00    -0.056 C 
ATOM      9  C   UNL     1      33.992 -15.887 -24.340  0.00  0.00    +0.046 C 
ATOM     10  C   UNL     1      34.456 -14.006 -22.704  0.00  0.00    +0.123 C 
ATOM     11  C   UNL     1      33.940 -14.508 -24.028  0.00  0.00    +0.011 C 
ATOM     12  C   UNL     1      32.360 -15.812 -20.373  0.00  0.00    +0.013 C 
ATOM     13  C   UNL     1      36.679 -19.278 -20.760  0.00  0.00    -0.101 C 
ATOM     14  C   UNL     1      32.843 -13.664 -20.827  0.00  0.00    +0.065 C 
ATOM     15  C   UNL     1      33.497 -16.287 -25.597  0.00  0.00    +0.014 C 
ATOM     16  C   UNL     1      32.072 -14.472 -20.021  0.00  0.00    +0.017 C 
ATOM     17  C   UNL     1      33.397 -13.589 -24.942  0.00  0.00    -0.001 C 
ATOM     18  C   UNL     1      32.960 -15.366 -26.501  0.00  0.00    +0.001 C 
ATOM     19  C   UNL     1      32.910 -14.017 -26.173  0.00  0.00    -0.000 C 
ATOM     20  H   UNL     1      34.943 -19.446 -21.797  0.00  0.00    -0.080 HD
ENDROOT
TORSDOF 0
ENDMDL
MODEL 4
REMARK VINA RESULT:      -8.0      1.489      4.735
REMARK  Name = 51355
REMARK  0 active torsions:
REMARK  status: ('A' for Active; 'I' for Inactive)
REMARK                            x       y       z     vdW  Elec       q    Type
REMARK                         _______ _______ _______ _____ _____    ______ ____
ROOT
ATOM      1  N   UNL     1      32.784 -10.855 -23.156  0.00  0.00    -0.309 N 
ATOM      2  N   UNL     1      31.090 -10.861 -20.860  0.00  0.00    +0.388 N 
ATOM      3  N   UNL     1      33.520  -7.904 -23.687  0.00  0.00    -0.284 N 
ATOM      4  C   UNL     1      31.872  -9.706 -22.934  0.00  0.00    +0.088 C 
ATOM      5  C   UNL     1      31.589  -9.594 -21.414  0.00  0.00    -0.051 C 
ATOM      6  C   UNL     1      32.359 -12.123 -22.553  0.00  0.00    +0.068 C 
ATOM      7  C   UNL     1      32.236  -8.330 -23.444  0.00  0.00    +0.045 C 
ATOM      8  C   UNL     1      32.075 -11.927 -21.064  0.00  0.00    -0.056 C 
ATOM      9  C   UNL     1      33.598 -10.908 -24.291  0.00  0.00    +0.046 C 
ATOM     10  C   UNL     1      34.702  -8.737 -23.588  0.00  0.00    +0.123 C 
ATOM     11  C   UNL     1      34.560  -9.900 -24.535  0.00  0.00    +0.011 C 
ATOM     12  C   UNL     1      31.401  -7.264 -23.742  0.00  0.00    +0.013 C 
ATOM     13  C   UNL     1      30.781 -10.713 -19.437  0.00  0.00    -0.101 C 
ATOM     14  C   UNL     1      33.517  -6.600 -24.108  0.00  0.00    +0.065 C 
ATOM     15  C   UNL     1      33.521 -11.969 -25.215  0.00  0.00    +0.014 C 
ATOM     16  C   UNL     1      32.208  -6.176 -24.153  0.00  0.00    +0.017 C 
ATOM     17  C   UNL     1      35.388  -9.963 -25.669  0.00  0.00    -0.001 C 
ATOM     18  C   UNL     1      34.350 -12.025 -26.339  0.00  0.00    +0.001 C 
ATOM     19  C   UNL     1      35.283 -11.021 -26.565  0.00  0.00    -0.000 C 
ATOM     20  H   UNL     1      30.231 -11.113 -21.349  0.00  0.00    -0.080 HD
ENDROOT
TORSDOF 0
ENDMDL
MODEL 5
REMARK VINA RESULT:      -7.9      1.701      5.796
REMARK  Name = 51355
REMARK  0 active torsions:
REMARK  status: ('A' for Active; 'I' for Inactive)
REMARK                            x       y       z     vdW  Elec       q    Type
REMARK                         _______ _______ _______ _____ _____    ______ ____
ROOT
ATOM      1  N   UNL     1      33.320 -11.312 -23.878  0.00  0.00    -0.309 N 
ATOM      2  N   UNL     1      31.771 -11.288 -21.481  0.00  0.00    +0.388 N 
ATOM      3  N   UNL     1      33.400 -14.247 -24.833  0.00  0.00    -0.284 N 
ATOM      4  C   UNL     1      33.373 -12.490 -22.978  0.00  0.00    +0.088 C 
ATOM      5  C   UNL     1      32.046 -12.553 -22.178  0.00  0.00    -0.051 C 
ATOM      6  C   UNL     1      32.974 -10.040 -23.233  0.00  0.00    +0.068 C 
ATOM      7  C   UNL     1      33.648 -13.869 -23.535  0.00  0.00    +0.045 C 
ATOM      8  C   UNL     1      31.671 -10.189 -22.447  0.00  0.00    -0.056 C 
ATOM      9  C   UNL     1      34.096 -11.269 -25.040  0.00  0.00    +0.046 C 
ATOM     10  C   UNL     1      32.935 -13.360 -25.881  0.00  0.00    +0.123 C 
ATOM     11  C   UNL     1      33.932 -12.243 -26.052  0.00  0.00    +0.011 C 
ATOM     12  C   UNL     1      34.163 -14.981 -22.888  0.00  0.00    +0.013 C 
ATOM     13  C   UNL     1      30.542 -11.391 -20.694  0.00  0.00    -0.101 C 
ATOM     14  C   UNL     1      33.725 -15.566 -25.014  0.00  0.00    +0.065 C 
ATOM     15  C   UNL     1      35.043 -10.251 -25.266  0.00  0.00    +0.014 C 
ATOM     16  C   UNL     1      34.206 -16.048 -23.817  0.00  0.00    +0.017 C 
ATOM     17  C   UNL     1      34.703 -12.190 -27.226  0.00  0.00    -0.001 C 
ATOM     18  C   UNL     1      35.804 -10.204 -26.438  0.00  0.00    +0.001 C 
ATOM     19  C   UNL     1      35.634 -11.174 -27.417  0.00  0.00    -0.000 C 
ATOM     20  H   UNL     1      32.544 -11.094 -20.845  0.00  0.00    -0.080 HD
ENDROOT
TORSDOF 0
ENDMDL
MODEL 6
REMARK VINA RESULT:      -7.9     12.580     14.925
REMARK  Name = 51355
REMARK  0 active torsions:
REMARK  status: ('A' for Active; 'I' for Inactive)
REMARK                            x       y       z     vdW  Elec       q    Type
REMARK                         _______ _______ _______ _____ _____    ______ ____
ROOT
ATOM      1  N   UNL     1      34.251 -24.010 -15.189  0.00  0.00    -0.309 N 
ATOM      2  N   UNL     1      31.440 -23.517 -15.211  0.00  0.00    +0.388 N 
ATOM      3  N   UNL     1      35.472 -22.183 -17.358  0.00  0.00    -0.284 N 
ATOM      4  C   UNL     1      33.592 -23.672 -16.474  0.00  0.00    +0.088 C 
ATOM      5  C   UNL     1      32.324 -22.834 -16.167  0.00  0.00    -0.051 C 
ATOM      6  C   UNL     1      33.384 -24.626 -14.178  0.00  0.00    +0.068 C 
ATOM      7  C   UNL     1      34.362 -22.968 -17.568  0.00  0.00    +0.045 C 
ATOM      8  C   UNL     1      32.147 -23.757 -13.949  0.00  0.00    -0.056 C 
ATOM      9  C   UNL     1      35.618 -24.299 -15.145  0.00  0.00    +0.046 C 
ATOM     10  C   UNL     1      36.125 -21.997 -16.077  0.00  0.00    +0.123 C 
ATOM     11  C   UNL     1      36.571 -23.339 -15.557  0.00  0.00    +0.011 C 
ATOM     12  C   UNL     1      34.118 -22.952 -18.933  0.00  0.00    +0.013 C 
ATOM     13  C   UNL     1      30.229 -22.730 -14.979  0.00  0.00    -0.101 C 
ATOM     14  C   UNL     1      35.918 -21.663 -18.545  0.00  0.00    +0.065 C 
ATOM     15  C   UNL     1      36.104 -25.532 -14.666  0.00  0.00    +0.014 C 
ATOM     16  C   UNL     1      35.093 -22.128 -19.544  0.00  0.00    +0.017 C 
ATOM     17  C   UNL     1      37.945 -23.626 -15.499  0.00  0.00    -0.001 C 
ATOM     18  C   UNL     1      37.473 -25.808 -14.608  0.00  0.00    +0.001 C 
ATOM     19  C   UNL     1      38.393 -24.855 -15.025  0.00  0.00    -0.000 C 
ATOM     20  H   UNL     1      31.167 -24.416 -15.608  0.00  0.00    -0.080 HD
ENDROOT
TORSDOF 0
ENDMDL
MODEL 7
REMARK VINA RESULT:      -7.8     12.527     14.755
REMARK  Name = 51355
REMARK  0 active torsions:
REMARK  status: ('A' for Active; 'I' for Inactive)
REMARK                            x       y       z     vdW  Elec       q    Type
REMARK                         _______ _______ _______ _____ _____    ______ ____
ROOT
ATOM      1  N   UNL     1      34.870 -23.754 -14.728  0.00  0.00    -0.309 N 
ATOM      2  N   UNL     1      37.483 -24.513 -13.865  0.00  0.00    +0.388 N 
ATOM      3  N   UNL     1      35.155 -22.840 -17.664  0.00  0.00    -0.284 N 
ATOM      4  C   UNL     1      36.045 -23.032 -15.275  0.00  0.00    +0.088 C 
ATOM      5  C   UNL     1      37.271 -23.980 -15.218  0.00  0.00    -0.051 C 
ATOM      6  C   UNL     1      35.065 -24.367 -13.409  0.00  0.00    +0.068 C 
ATOM      7  C   UNL     1      35.992 -22.420 -16.657  0.00  0.00    +0.045 C 
ATOM      8  C   UNL     1      36.303 -25.265 -13.426  0.00  0.00    -0.056 C 
ATOM      9  C   UNL     1      33.573 -23.384 -15.095  0.00  0.00    +0.046 C 
ATOM     10  C   UNL     1      34.134 -23.859 -17.521  0.00  0.00    +0.123 C 
ATOM     11  C   UNL     1      33.166 -23.433 -16.449  0.00  0.00    +0.011 C 
ATOM     12  C   UNL     1      36.743 -21.377 -17.175  0.00  0.00    +0.013 C 
ATOM     13  C   UNL     1      38.674 -25.361 -13.827  0.00  0.00    -0.101 C 
ATOM     14  C   UNL     1      35.373 -22.106 -18.800  0.00  0.00    +0.065 C 
ATOM     15  C   UNL     1      32.616 -22.981 -14.143  0.00  0.00    +0.014 C 
ATOM     16  C   UNL     1      36.357 -21.185 -18.523  0.00  0.00    +0.017 C 
ATOM     17  C   UNL     1      31.857 -23.074 -16.813  0.00  0.00    -0.001 C 
ATOM     18  C   UNL     1      31.315 -22.629 -14.515  0.00  0.00    +0.001 C 
ATOM     19  C   UNL     1      30.936 -22.675 -15.850  0.00  0.00    -0.000 C 
ATOM     20  H   UNL     1      37.626 -23.730 -13.227  0.00  0.00    -0.080 HD
ENDROOT
TORSDOF 0
ENDMDL
MODEL 8
REMARK VINA RESULT:      -7.4      1.961      4.995
REMARK  Name = 51355
REMARK  0 active torsions:
REMARK  status: ('A' for Active; 'I' for Inactive)
REMARK                            x       y       z     vdW  Elec       q    Type
REMARK                         _______ _______ _______ _____ _____    ______ ____
ROOT
ATOM      1  N   UNL     1      33.576 -14.493 -23.676  0.00  0.00    -0.309 N 
ATOM      2  N   UNL     1      33.945 -15.698 -21.115  0.00  0.00    +0.388 N 
ATOM      3  N   UNL     1      32.972 -11.510 -23.155  0.00  0.00    -0.284 N 
ATOM      4  C   UNL     1      32.797 -13.980 -22.522  0.00  0.00    +0.088 C 
ATOM      5  C   UNL     1      33.594 -14.275 -21.225  0.00  0.00    -0.051 C 
ATOM      6  C   UNL     1      34.012 -15.890 -23.571  0.00  0.00    +0.068 C 
ATOM      7  C   UNL     1      32.353 -12.535 -22.479  0.00  0.00    +0.045 C 
ATOM      8  C   UNL     1      34.767 -16.107 -22.258  0.00  0.00    -0.056 C 
ATOM      9  C   UNL     1      33.392 -13.957 -24.953  0.00  0.00    +0.046 C 
ATOM     10  C   UNL     1      34.073 -11.675 -24.083  0.00  0.00    +0.123 C 
ATOM     11  C   UNL     1      33.637 -12.586 -25.201  0.00  0.00    +0.011 C 
ATOM     12  C   UNL     1      31.299 -11.970 -21.779  0.00  0.00    +0.013 C 
ATOM     13  C   UNL     1      34.650 -15.957 -19.859  0.00  0.00    -0.101 C 
ATOM     14  C   UNL     1      32.350 -10.319 -22.884  0.00  0.00    +0.065 C 
ATOM     15  C   UNL     1      32.991 -14.752 -26.044  0.00  0.00    +0.014 C 
ATOM     16  C   UNL     1      31.303 -10.577 -22.029  0.00  0.00    +0.017 C 
ATOM     17  C   UNL     1      33.465 -12.052 -26.490  0.00  0.00    -0.001 C 
ATOM     18  C   UNL     1      32.825 -14.213 -27.324  0.00  0.00    +0.001 C 
ATOM     19  C   UNL     1      33.062 -12.863 -27.545  0.00  0.00    -0.000 C 
ATOM     20  H   UNL     1      33.085 -16.246 -21.118  0.00  0.00    -0.080 HD
ENDROOT
TORSDOF 0
ENDMDL
MODEL 9
REMARK VINA RESULT:      -7.2      1.820      4.499
REMARK  Name = 51355
REMARK  0 active torsions:
REMARK  status: ('A' for Active; 'I' for Inactive)
REMARK                            x       y       z     vdW  Elec       q    Type
REMARK                         _______ _______ _______ _____ _____    ______ ____
ROOT
ATOM      1  N   UNL     1      32.506  -9.586 -23.399  0.00  0.00    -0.309 N 
ATOM      2  N   UNL     1      33.231 -12.279 -24.001  0.00  0.00    +0.388 N 
ATOM      3  N   UNL     1      32.078  -9.463 -20.343  0.00  0.00    -0.284 N 
ATOM      4  C   UNL     1      31.930 -10.684 -22.584  0.00  0.00    +0.088 C 
ATOM      5  C   UNL     1      32.909 -11.886 -22.622  0.00  0.00    -0.051 C 
ATOM      6  C   UNL     1      32.911  -9.956 -24.759  0.00  0.00    +0.068 C 
ATOM      7  C   UNL     1      31.541 -10.445 -21.142  0.00  0.00    +0.045 C 
ATOM      8  C   UNL     1      33.853 -11.160 -24.716  0.00  0.00    -0.056 C 
ATOM      9  C   UNL     1      32.142  -8.257 -23.161  0.00  0.00    +0.046 C 
ATOM     10  C   UNL     1      33.017  -8.453 -20.789  0.00  0.00    +0.123 C 
ATOM     11  C   UNL     1      32.386  -7.658 -21.903  0.00  0.00    +0.011 C 
ATOM     12  C   UNL     1      30.626 -11.134 -20.362  0.00  0.00    +0.013 C 
ATOM     13  C   UNL     1      34.114 -13.446 -24.010  0.00  0.00    -0.101 C 
ATOM     14  C   UNL     1      31.542  -9.529 -19.083  0.00  0.00    +0.065 C 
ATOM     15  C   UNL     1      31.553  -7.456 -24.158  0.00  0.00    +0.014 C 
ATOM     16  C   UNL     1      30.632 -10.561 -19.068  0.00  0.00    +0.017 C 
ATOM     17  C   UNL     1      32.033  -6.317 -21.670  0.00  0.00    -0.001 C 
ATOM     18  C   UNL     1      31.208  -6.122 -23.919  0.00  0.00    +0.001 C 
ATOM     19  C   UNL     1      31.447  -5.554 -22.675  0.00  0.00    -0.000 C 
ATOM     20  H   UNL     1      32.365 -12.530 -24.478  0.00  0.00    -0.080 HD
ENDROOT
TORSDOF 0
ENDMDL
