MODEL 1
REMARK VINA RESULT:      -7.3      0.000      0.000
REMARK  Name = 76962649
REMARK  5 active torsions:
REMARK  status: ('A' for Active; 'I' for Inactive)
REMARK    1  A    between atoms: C_9  and  O_24
REMARK    2  A    between atoms: C_9  and  C_29
REMARK    3  A    between atoms: C_13  and  O_26
REMARK    4  A    between atoms: C_29  and  C_30
REMARK    5  A    between atoms: C_30  and  O_31
REMARK                            x       y       z     vdW  Elec       q    Type
REMARK                         _______ _______ _______ _____ _____    ______ ____
ROOT
ATOM      1 CL   UNL     1      35.675 -25.882 -15.362  0.00  0.00    -0.114 Cl
ATOM      2 CL   UNL     1      34.600 -23.762 -11.660  0.00  0.00    -0.114 Cl
ATOM      3  F   UNL     1      38.038 -22.422 -17.135  0.00  0.00    -0.233 F 
ATOM      4  O   UNL     1      40.548 -26.089 -15.045  0.00  0.00    -0.287 OA
ATOM      5  C   UNL     1      32.571 -23.753 -14.438  0.00  0.00    +0.033 C 
ATOM      6  C   UNL     1      33.554 -23.514 -15.609  0.00  0.00    +0.006 C 
ATOM      7  C   UNL     1      34.989 -23.184 -15.153  0.00  0.00    +0.019 C 
ATOM      8  C   UNL     1      35.586 -24.352 -14.269  0.00  0.00    +0.088 C 
ATOM      9  C   UNL     1      31.273 -24.012 -15.261  0.00  0.00    +0.166 C 
ATOM     10  C   UNL     1      33.110 -24.941 -13.609  0.00  0.00    +0.020 C 
ATOM     11  C   UNL     1      32.813 -22.522 -16.509  0.00  0.00    +0.032 C 
ATOM     12  C   UNL     1      34.583 -24.785 -13.128  0.00  0.00    +0.094 C 
ATOM     13  C   UNL     1      31.328 -22.921 -16.365  0.00  0.00    +0.142 C 
ATOM     14  C   UNL     1      37.100 -24.033 -13.852  0.00  0.00    +0.050 C 
ATOM     15  C   UNL     1      35.881 -22.847 -16.363  0.00  0.00    +0.041 C 
ATOM     16  C   UNL     1      32.364 -22.497 -13.547  0.00  0.00    +0.003 C 
ATOM     17  C   UNL     1      37.332 -22.589 -15.978  0.00  0.00    +0.180 C 
ATOM     18  C   UNL     1      37.890 -23.710 -15.135  0.00  0.00    -0.005 C 
ATOM     19  C   UNL     1      37.288 -22.800 -12.929  0.00  0.00    +0.010 C 
ATOM     20  C   UNL     1      37.717 -25.200 -13.094  0.00  0.00    -0.018 C 
ATOM     21  C   UNL     1      38.995 -24.378 -15.508  0.00  0.00    +0.036 C 
ATOM     22  C   UNL     1      38.817 -25.864 -13.466  0.00  0.00    +0.038 C 
ATOM     23  C   UNL     1      39.535 -25.491 -14.698  0.00  0.00    +0.195 C 
ENDROOT
BRANCH   9  24
ATOM     24  O   UNL     1      31.291 -25.316 -15.832  0.00  0.00    -0.377 OA
ATOM     25  H   UNL     1      32.036 -25.818 -15.467  0.00  0.00    +0.211 HD
ENDBRANCH   9  24
BRANCH  13  26
ATOM     26  O   UNL     1      30.824 -23.394 -17.605  0.00  0.00    -0.382 OA
ATOM     27  H   UNL     1      30.796 -24.364 -17.594  0.00  0.00    +0.210 HD
ENDBRANCH  13  26
BRANCH   9  29
ATOM     28  O   UNL     1      29.844 -24.702 -13.484  0.00  0.00    -0.291 OA
ATOM     29  C   UNL     1      30.009 -23.968 -14.457  0.00  0.00    +0.206 C 
BRANCH  29  30
ATOM     30  C   UNL     1      28.959 -22.976 -14.911  0.00  0.00    +0.204 C 
BRANCH  30  31
ATOM     31  O   UNL     1      28.145 -23.539 -15.918  0.00  0.00    -0.375 OA
ATOM     32  H   UNL     1      27.508 -24.150 -15.515  0.00  0.00    +0.211 HD
ENDBRANCH  30  31
ENDBRANCH  29  30
ENDBRANCH   9  29
TORSDOF 5
ENDMDL
MODEL 2
REMARK VINA RESULT:      -5.8     14.659     17.122
REMARK  Name = 76962649
REMARK  5 active torsions:
REMARK  status: ('A' for Active; 'I' for Inactive)
REMARK    1  A    between atoms: C_9  and  O_24
REMARK    2  A    between atoms: C_9  and  C_29
REMARK    3  A    between atoms: C_13  and  O_26
REMARK    4  A    between atoms: C_29  and  C_30
REMARK    5  A    between atoms: C_30  and  O_31
REMARK                            x       y       z     vdW  Elec       q    Type
REMARK                         _______ _______ _______ _____ _____    ______ ____
ROOT
ATOM      1 CL   UNL     1      30.717  -9.249 -23.541  0.00  0.00    -0.114 Cl
ATOM      2 CL   UNL     1      34.924  -9.471 -24.808  0.00  0.00    -0.114 Cl
ATOM      3  F   UNL     1      31.644  -7.845 -19.313  0.00  0.00    -0.233 F 
ATOM      4  O   UNL     1      30.186  -4.485 -22.585  0.00  0.00    -0.287 OA
ATOM      5  C   UNL     1      33.252 -12.180 -23.504  0.00  0.00    +0.033 C 
ATOM      6  C   UNL     1      32.487 -11.590 -22.295  0.00  0.00    +0.006 C 
ATOM      7  C   UNL     1      32.859 -10.128 -21.982  0.00  0.00    +0.019 C 
ATOM      8  C   UNL     1      32.571  -9.190 -23.223  0.00  0.00    +0.088 C 
ATOM      9  C   UNL     1      32.658 -13.620 -23.488  0.00  0.00    +0.166 C 
ATOM     10  C   UNL     1      32.919 -11.310 -24.739  0.00  0.00    +0.020 C 
ATOM     11  C   UNL     1      32.657 -12.651 -21.205  0.00  0.00    +0.032 C 
ATOM     12  C   UNL     1      33.181  -9.787 -24.552  0.00  0.00    +0.094 C 
ATOM     13  C   UNL     1      32.658 -13.988 -21.979  0.00  0.00    +0.142 C 
ATOM     14  C   UNL     1      32.899  -7.662 -22.870  0.00  0.00    +0.050 C 
ATOM     15  C   UNL     1      32.147  -9.647 -20.703  0.00  0.00    +0.041 C 
ATOM     16  C   UNL     1      34.787 -12.262 -23.274  0.00  0.00    +0.003 C 
ATOM     17  C   UNL     1      32.416  -8.181 -20.388  0.00  0.00    +0.180 C 
ATOM     18  C   UNL     1      32.139  -7.297 -21.580  0.00  0.00    -0.005 C 
ATOM     19  C   UNL     1      34.391  -7.356 -22.571  0.00  0.00    +0.010 C 
ATOM     20  C   UNL     1      32.522  -6.740 -24.022  0.00  0.00    -0.018 C 
ATOM     21  C   UNL     1      31.269  -6.276 -21.501  0.00  0.00    +0.036 C 
ATOM     22  C   UNL     1      31.657  -5.724 -23.941  0.00  0.00    +0.038 C 
ATOM     23  C   UNL     1      30.976  -5.419 -22.670  0.00  0.00    +0.195 C 
ENDROOT
BRANCH   9  24
ATOM     24  O   UNL     1      31.335 -13.625 -24.014  0.00  0.00    -0.377 OA
ATOM     25  H   UNL     1      31.101 -12.730 -24.306  0.00  0.00    +0.211 HD
ENDBRANCH   9  24
BRANCH  13  26
ATOM     26  O   UNL     1      31.524 -14.764 -21.621  0.00  0.00    -0.382 OA
ATOM     27  H   UNL     1      31.712 -15.703 -21.783  0.00  0.00    +0.210 HD
ENDBRANCH  13  26
BRANCH   9  29
ATOM     28  O   UNL     1      34.271 -15.337 -23.847  0.00  0.00    -0.291 OA
ATOM     29  C   UNL     1      33.406 -14.609 -24.331  0.00  0.00    +0.206 C 
BRANCH  29  30
ATOM     30  C   UNL     1      33.034 -14.655 -25.798  0.00  0.00    +0.204 C 
BRANCH  30  31
ATOM     31  O   UNL     1      33.701 -15.717 -26.448  0.00  0.00    -0.375 OA
ATOM     32  H   UNL     1      33.068 -16.213 -26.991  0.00  0.00    +0.211 HD
ENDBRANCH  30  31
ENDBRANCH  29  30
ENDBRANCH   9  29
TORSDOF 5
ENDMDL
