MODEL 1
REMARK VINA RESULT:     -10.0      0.000      0.000
REMARK  Name = 25021186
REMARK  8 active torsions:
REMARK  status: ('A' for Active; 'I' for Inactive)
REMARK    1  A    between atoms: C_2  and  C_24
REMARK    2  A    between atoms: C_3  and  N_8
REMARK    3  A    between atoms: N_8  and  C_11
REMARK    4  A    between atoms: C_11  and  C_12
REMARK    5  A    between atoms: C_12  and  N_13
REMARK    6  A    between atoms: N_13  and  C_16
REMARK    7  A    between atoms: C_16  and  C_18
REMARK    8  A    between atoms: C_24  and  C_26
REMARK                            x       y       z     vdW  Elec       q    Type
REMARK                         _______ _______ _______ _____ _____    ______ ____
ROOT
ATOM      1  N   UNL     1      32.696 -14.953 -20.248  0.00  0.00    +0.382 N 
ATOM      2  C   UNL     1      33.035 -13.480 -22.116  0.00  0.00    -0.036 C 
ATOM      3  C   UNL     1      33.044 -14.941 -22.559  0.00  0.00    -0.085 C 
ATOM      4  C   UNL     1      32.506 -13.562 -20.681  0.00  0.00    -0.083 C 
ATOM      5  C   UNL     1      33.474 -15.641 -21.280  0.00  0.00    -0.104 C 
ATOM      6  H   UNL     1      31.790 -15.408 -20.134  0.00  0.00    -0.085 HD
ATOM      7  H   UNL     1      33.184 -14.983 -19.353  0.00  0.00    -0.085 HD
ENDROOT
BRANCH   3   8
ATOM      8  N   UNL     1      33.943 -15.202 -23.671  0.00  0.00    +0.382 N 
ATOM      9  H   UNL     1      34.435 -14.342 -23.911  0.00  0.00    -0.085 HD
ATOM     10  H   UNL     1      33.391 -15.531 -24.464  0.00  0.00    -0.085 HD
BRANCH   8  11
ATOM     11  C   UNL     1      34.918 -16.228 -23.326  0.00  0.00    -0.106 C 
BRANCH  11  12
ATOM     12  C   UNL     1      34.857 -17.372 -24.334  0.00  0.00    -0.105 C 
BRANCH  12  13
ATOM     13  N   UNL     1      35.372 -18.598 -23.734  0.00  0.00    +0.385 N 
ATOM     14  H   UNL     1      36.191 -18.908 -24.257  0.00  0.00    -0.084 HD
ATOM     15  H   UNL     1      34.641 -19.309 -23.765  0.00  0.00    -0.084 HD
BRANCH  13  16
ATOM     16  C   UNL     1      35.749 -18.378 -22.345  0.00  0.00    -0.054 C 
BRANCH  16  18
ATOM     17 CL   UNL     1      36.107 -21.953 -18.575  0.00  0.00    -0.082 Cl
ATOM     18  C   UNL     1      35.063 -19.338 -21.417  0.00  0.00    -0.043 C 
ATOM     19  C   UNL     1      35.816 -20.107 -20.530  0.00  0.00    +0.005 C 
ATOM     20  C   UNL     1      33.675 -19.462 -21.444  0.00  0.00    -0.006 C 
ATOM     21  C   UNL     1      35.179 -21.002 -19.669  0.00  0.00    +0.057 C 
ATOM     22  C   UNL     1      33.037 -20.356 -20.583  0.00  0.00    +0.000 C 
ATOM     23  C   UNL     1      33.791 -21.127 -19.696  0.00  0.00    +0.011 C 
ENDBRANCH  16  18
ENDBRANCH  13  16
ENDBRANCH  12  13
ENDBRANCH  11  12
ENDBRANCH   8  11
ENDBRANCH   3   8
BRANCH   2  24
ATOM     24  C   UNL     1      32.217 -12.562 -23.011  0.00  0.00    +0.055 C 
BRANCH  24  26
ATOM     25  N   UNL     1      32.740 -10.199 -22.759  0.00  0.00    -0.396 NA
ATOM     26  C   UNL     1      33.000 -11.344 -23.429  0.00  0.00    +0.109 C 
ATOM     27  C   UNL     1      33.926 -11.451 -24.453  0.00  0.00    +0.020 C 
ATOM     28  C   UNL     1      34.632 -10.308 -24.814  0.00  0.00    -0.033 C 
ATOM     29  C   UNL     1      33.446  -9.109 -23.137  0.00  0.00    +0.157 C 
ATOM     30  C   UNL     1      34.393  -9.112 -24.148  0.00  0.00    +0.096 C 
ATOM     31  C   UNL     1      35.641 -10.368 -25.910  0.00  0.00    +0.027 C 
ATOM     32  N   UNL     1      33.214  -7.882 -22.468  0.00  0.00    -0.336 N 
ATOM     33  H   UNL     1      32.549  -7.834 -21.743  0.00  0.00    +0.144 HD
ATOM     34  H   UNL     1      33.716  -7.076 -22.728  0.00  0.00    +0.144 HD
ENDBRANCH  24  26
ENDBRANCH   2  24
TORSDOF 8
ENDMDL
MODEL 2
REMARK VINA RESULT:      -9.9      1.677      2.831
REMARK  Name = 25021186
REMARK  8 active torsions:
REMARK  status: ('A' for Active; 'I' for Inactive)
REMARK    1  A    between atoms: C_2  and  C_24
REMARK    2  A    between atoms: C_3  and  N_8
REMARK    3  A    between atoms: N_8  and  C_11
REMARK    4  A    between atoms: C_11  and  C_12
REMARK    5  A    between atoms: C_12  and  N_13
REMARK    6  A    between atoms: N_13  and  C_16
REMARK    7  A    between atoms: C_16  and  C_18
REMARK    8  A    between atoms: C_24  and  C_26
REMARK                            x       y       z     vdW  Elec       q    Type
REMARK                         _______ _______ _______ _____ _____    ______ ____
ROOT
ATOM      1  N   UNL     1      33.421 -15.113 -26.057  0.00  0.00    +0.382 N 
ATOM      2  C   UNL     1      33.361 -13.155 -24.666  0.00  0.00    -0.036 C 
ATOM      3  C   UNL     1      34.223 -14.248 -24.039  0.00  0.00    -0.085 C 
ATOM      4  C   UNL     1      33.135 -13.672 -26.089  0.00  0.00    -0.083 C 
ATOM      5  C   UNL     1      33.620 -15.498 -24.659  0.00  0.00    -0.104 C 
ATOM      6  H   UNL     1      34.264 -15.311 -26.596  0.00  0.00    -0.085 HD
ATOM      7  H   UNL     1      32.647 -15.638 -26.466  0.00  0.00    -0.085 HD
ENDROOT
BRANCH   3   8
ATOM      8  N   UNL     1      34.173 -14.262 -22.587  0.00  0.00    +0.382 N 
ATOM      9  H   UNL     1      33.889 -13.341 -22.254  0.00  0.00    -0.085 HD
ATOM     10  H   UNL     1      35.100 -14.500 -22.233  0.00  0.00    -0.085 HD
BRANCH   8  11
ATOM     11  C   UNL     1      33.222 -15.256 -22.105  0.00  0.00    -0.106 C 
BRANCH  11  12
ATOM     12  C   UNL     1      33.809 -16.009 -20.915  0.00  0.00    -0.105 C 
BRANCH  12  13
ATOM     13  N   UNL     1      34.963 -16.795 -21.337  0.00  0.00    +0.385 N 
ATOM     14  H   UNL     1      35.488 -17.089 -20.513  0.00  0.00    -0.084 HD
ATOM     15  H   UNL     1      35.547 -16.218 -21.942  0.00  0.00    -0.084 HD
BRANCH  13  16
ATOM     16  C   UNL     1      34.545 -17.975 -22.080  0.00  0.00    -0.054 C 
BRANCH  16  18
ATOM     17 CL   UNL     1      36.742 -21.670 -19.141  0.00  0.00    -0.082 Cl
ATOM     18  C   UNL     1      34.383 -19.172 -21.190  0.00  0.00    -0.043 C 
ATOM     19  C   UNL     1      35.507 -19.790 -20.642  0.00  0.00    +0.005 C 
ATOM     20  C   UNL     1      33.109 -19.667 -20.913  0.00  0.00    -0.006 C 
ATOM     21  C   UNL     1      35.357 -20.905 -19.817  0.00  0.00    +0.057 C 
ATOM     22  C   UNL     1      32.958 -20.782 -20.087  0.00  0.00    +0.000 C 
ATOM     23  C   UNL     1      34.083 -21.401 -19.539  0.00  0.00    +0.011 C 
ENDBRANCH  16  18
ENDBRANCH  13  16
ENDBRANCH  12  13
ENDBRANCH  11  12
ENDBRANCH   8  11
ENDBRANCH   3   8
BRANCH   2  24
ATOM     24  C   UNL     1      33.982 -11.767 -24.618  0.00  0.00    +0.055 C 
BRANCH  24  26
ATOM     25  N   UNL     1      32.393 -11.465 -22.800  0.00  0.00    -0.396 NA
ATOM     26  C   UNL     1      33.273 -10.871 -23.636  0.00  0.00    +0.109 C 
ATOM     27  C   UNL     1      33.550  -9.513 -23.634  0.00  0.00    +0.020 C 
ATOM     28  C   UNL     1      32.879  -8.714 -22.714  0.00  0.00    -0.033 C 
ATOM     29  C   UNL     1      31.760 -10.657 -21.920  0.00  0.00    +0.157 C 
ATOM     30  C   UNL     1      31.966  -9.289 -21.838  0.00  0.00    +0.096 C 
ATOM     31  C   UNL     1      33.140  -7.247 -22.669  0.00  0.00    +0.027 C 
ATOM     32  N   UNL     1      30.826 -11.228 -21.020  0.00  0.00    -0.336 N 
ATOM     33  H   UNL     1      30.649 -12.196 -21.044  0.00  0.00    +0.144 HD
ATOM     34  H   UNL     1      30.354 -10.657 -20.372  0.00  0.00    +0.144 HD
ENDBRANCH  24  26
ENDBRANCH   2  24
TORSDOF 8
ENDMDL
MODEL 3
REMARK VINA RESULT:      -9.9      8.751     12.179
REMARK  Name = 25021186
REMARK  8 active torsions:
REMARK  status: ('A' for Active; 'I' for Inactive)
REMARK    1  A    between atoms: C_2  and  C_24
REMARK    2  A    between atoms: C_3  and  N_8
REMARK    3  A    between atoms: N_8  and  C_11
REMARK    4  A    between atoms: C_11  and  C_12
REMARK    5  A    between atoms: C_12  and  N_13
REMARK    6  A    between atoms: N_13  and  C_16
REMARK    7  A    between atoms: C_16  and  C_18
REMARK    8  A    between atoms: C_24  and  C_26
REMARK                            x       y       z     vdW  Elec       q    Type
REMARK                         _______ _______ _______ _____ _____    ______ ____
ROOT
ATOM      1  N   UNL     1      38.600 -25.332 -13.643  0.00  0.00    +0.382 N 
ATOM      2  C   UNL     1      37.315 -23.820 -14.998  0.00  0.00    -0.036 C 
ATOM      3  C   UNL     1      37.079 -23.562 -13.511  0.00  0.00    -0.085 C 
ATOM      4  C   UNL     1      38.525 -24.758 -14.993  0.00  0.00    -0.083 C 
ATOM      5  C   UNL     1      37.396 -24.924 -12.916  0.00  0.00    -0.104 C 
ATOM      6  H   UNL     1      39.431 -24.983 -13.163  0.00  0.00    -0.085 HD
ATOM      7  H   UNL     1      38.661 -26.349 -13.691  0.00  0.00    -0.085 HD
ENDROOT
BRANCH   3   8
ATOM      8  N   UNL     1      35.728 -23.118 -13.209  0.00  0.00    +0.382 N 
ATOM      9  H   UNL     1      35.326 -22.685 -14.039  0.00  0.00    -0.085 HD
ATOM     10  H   UNL     1      35.772 -22.448 -12.441  0.00  0.00    -0.085 HD
BRANCH   8  11
ATOM     11  C   UNL     1      34.888 -24.238 -12.802  0.00  0.00    -0.106 C 
BRANCH  11  12
ATOM     12  C   UNL     1      33.765 -24.446 -13.814  0.00  0.00    -0.105 C 
BRANCH  12  13
ATOM     13  N   UNL     1      33.139 -23.168 -14.138  0.00  0.00    +0.385 N 
ATOM     14  H   UNL     1      32.992 -23.114 -15.146  0.00  0.00    -0.084 HD
ATOM     15  H   UNL     1      33.752 -22.415 -13.827  0.00  0.00    -0.084 HD
BRANCH  13  16
ATOM     16  C   UNL     1      31.856 -23.033 -13.462  0.00  0.00    -0.054 C 
BRANCH  16  18
ATOM     17 CL   UNL     1      28.000 -22.244 -16.872  0.00  0.00    -0.082 Cl
ATOM     18  C   UNL     1      30.728 -23.595 -14.278  0.00  0.00    -0.043 C 
ATOM     19  C   UNL     1      29.978 -22.756 -15.101  0.00  0.00    +0.005 C 
ATOM     20  C   UNL     1      30.431 -24.956 -14.211  0.00  0.00    -0.006 C 
ATOM     21  C   UNL     1      28.928 -23.278 -15.858  0.00  0.00    +0.057 C 
ATOM     22  C   UNL     1      29.381 -25.479 -14.967  0.00  0.00    +0.000 C 
ATOM     23  C   UNL     1      28.629 -24.639 -15.791  0.00  0.00    +0.011 C 
ENDBRANCH  16  18
ENDBRANCH  13  16
ENDBRANCH  12  13
ENDBRANCH  11  12
ENDBRANCH   8  11
ENDBRANCH   3   8
BRANCH   2  24
ATOM     24  C   UNL     1      37.530 -22.560 -15.822  0.00  0.00    +0.055 C 
BRANCH  24  26
ATOM     25  N   UNL     1      35.280 -22.988 -16.643  0.00  0.00    -0.396 NA
ATOM     26  C   UNL     1      36.473 -22.399 -16.884  0.00  0.00    +0.109 C 
ATOM     27  C   UNL     1      36.764 -21.674 -18.027  0.00  0.00    +0.020 C 
ATOM     28  C   UNL     1      35.765 -21.544 -18.987  0.00  0.00    -0.033 C 
ATOM     29  C   UNL     1      34.334 -22.840 -17.598  0.00  0.00    +0.157 C 
ATOM     30  C   UNL     1      34.525 -22.135 -18.776  0.00  0.00    +0.096 C 
ATOM     31  C   UNL     1      36.026 -20.774 -20.237  0.00  0.00    +0.027 C 
ATOM     32  N   UNL     1      33.064 -23.436 -17.398  0.00  0.00    -0.336 N 
ATOM     33  H   UNL     1      32.884 -23.947 -16.575  0.00  0.00    +0.144 HD
ATOM     34  H   UNL     1      32.362 -23.341 -18.081  0.00  0.00    +0.144 HD
ENDBRANCH  24  26
ENDBRANCH   2  24
TORSDOF 8
ENDMDL
MODEL 4
REMARK VINA RESULT:      -9.8      3.453      9.451
REMARK  Name = 25021186
REMARK  8 active torsions:
REMARK  status: ('A' for Active; 'I' for Inactive)
REMARK    1  A    between atoms: C_2  and  C_24
REMARK    2  A    between atoms: C_3  and  N_8
REMARK    3  A    between atoms: N_8  and  C_11
REMARK    4  A    between atoms: C_11  and  C_12
REMARK    5  A    between atoms: C_12  and  N_13
REMARK    6  A    between atoms: N_13  and  C_16
REMARK    7  A    between atoms: C_16  and  C_18
REMARK    8  A    between atoms: C_24  and  C_26
REMARK                            x       y       z     vdW  Elec       q    Type
REMARK                         _______ _______ _______ _____ _____    ______ ____
ROOT
ATOM      1  N   UNL     1      35.184 -17.847 -24.189  0.00  0.00    +0.382 N 
ATOM      2  C   UNL     1      34.596 -18.762 -22.047  0.00  0.00    -0.036 C 
ATOM      3  C   UNL     1      34.581 -17.236 -22.015  0.00  0.00    -0.085 C 
ATOM      4  C   UNL     1      34.693 -19.071 -23.543  0.00  0.00    -0.083 C 
ATOM      5  C   UNL     1      35.555 -16.902 -23.134  0.00  0.00    -0.104 C 
ATOM      6  H   UNL     1      34.451 -17.445 -24.774  0.00  0.00    -0.085 HD
ATOM      7  H   UNL     1      35.989 -18.055 -24.781  0.00  0.00    -0.085 HD
ENDROOT
BRANCH   3   8
ATOM      8  N   UNL     1      34.985 -16.680 -20.734  0.00  0.00    +0.382 N 
ATOM      9  H   UNL     1      35.960 -16.387 -20.792  0.00  0.00    -0.085 HD
ATOM     10  H   UNL     1      34.869 -17.397 -20.019  0.00  0.00    -0.085 HD
BRANCH   8  11
ATOM     11  C   UNL     1      34.163 -15.530 -20.379  0.00  0.00    -0.106 C 
BRANCH  11  12
ATOM     12  C   UNL     1      32.818 -15.606 -21.096  0.00  0.00    -0.105 C 
BRANCH  12  13
ATOM     13  N   UNL     1      32.408 -14.277 -21.537  0.00  0.00    +0.385 N 
ATOM     14  H   UNL     1      32.888 -13.575 -20.973  0.00  0.00    -0.084 HD
ATOM     15  H   UNL     1      31.398 -14.192 -21.426  0.00  0.00    -0.084 HD
BRANCH  13  16
ATOM     16  C   UNL     1      32.742 -14.070 -22.939  0.00  0.00    -0.054 C 
BRANCH  16  18
ATOM     17 CL   UNL     1      35.332 -10.452 -25.645  0.00  0.00    -0.082 Cl
ATOM     18  C   UNL     1      32.968 -12.620 -23.255  0.00  0.00    -0.043 C 
ATOM     19  C   UNL     1      33.931 -12.254 -24.195  0.00  0.00    +0.005 C 
ATOM     20  C   UNL     1      32.215 -11.641 -22.608  0.00  0.00    -0.006 C 
ATOM     21  C   UNL     1      34.143 -10.906 -24.487  0.00  0.00    +0.057 C 
ATOM     22  C   UNL     1      32.426 -10.292 -22.900  0.00  0.00    +0.000 C 
ATOM     23  C   UNL     1      33.391  -9.926 -23.840  0.00  0.00    +0.011 C 
ENDBRANCH  16  18
ENDBRANCH  13  16
ENDBRANCH  12  13
ENDBRANCH  11  12
ENDBRANCH   8  11
ENDBRANCH   3   8
BRANCH   2  24
ATOM     24  C   UNL     1      33.398 -19.412 -21.371  0.00  0.00    +0.055 C 
BRANCH  24  26
ATOM     25  N   UNL     1      32.827 -21.070 -19.685  0.00  0.00    -0.396 NA
ATOM     26  C   UNL     1      33.819 -20.408 -20.323  0.00  0.00    +0.109 C 
ATOM     27  C   UNL     1      35.167 -20.597 -20.067  0.00  0.00    +0.020 C 
ATOM     28  C   UNL     1      35.521 -21.525 -19.093  0.00  0.00    -0.033 C 
ATOM     29  C   UNL     1      33.209 -21.964 -18.746  0.00  0.00    +0.157 C 
ATOM     30  C   UNL     1      34.530 -22.225 -18.416  0.00  0.00    +0.096 C 
ATOM     31  C   UNL     1      36.958 -21.766 -18.778  0.00  0.00    +0.027 C 
ATOM     32  N   UNL     1      32.211 -22.686 -18.046  0.00  0.00    -0.336 N 
ATOM     33  H   UNL     1      31.259 -22.532 -18.248  0.00  0.00    +0.144 HD
ATOM     34  H   UNL     1      32.468 -23.341 -17.357  0.00  0.00    +0.144 HD
ENDBRANCH  24  26
ENDBRANCH   2  24
TORSDOF 8
ENDMDL
MODEL 5
REMARK VINA RESULT:      -9.7      1.567      2.852
REMARK  Name = 25021186
REMARK  8 active torsions:
REMARK  status: ('A' for Active; 'I' for Inactive)
REMARK    1  A    between atoms: C_2  and  C_24
REMARK    2  A    between atoms: C_3  and  N_8
REMARK    3  A    between atoms: N_8  and  C_11
REMARK    4  A    between atoms: C_11  and  C_12
REMARK    5  A    between atoms: C_12  and  N_13
REMARK    6  A    between atoms: N_13  and  C_16
REMARK    7  A    between atoms: C_16  and  C_18
REMARK    8  A    between atoms: C_24  and  C_26
REMARK                            x       y       z     vdW  Elec       q    Type
REMARK                         _______ _______ _______ _____ _____    ______ ____
ROOT
ATOM      1  N   UNL     1      33.326 -15.195 -26.006  0.00  0.00    +0.382 N 
ATOM      2  C   UNL     1      33.343 -13.250 -24.597  0.00  0.00    -0.036 C 
ATOM      3  C   UNL     1      34.364 -14.281 -24.122  0.00  0.00    -0.085 C 
ATOM      4  C   UNL     1      32.941 -13.779 -25.976  0.00  0.00    -0.083 C 
ATOM      5  C   UNL     1      33.761 -15.569 -24.659  0.00  0.00    -0.104 C 
ATOM      6  H   UNL     1      34.089 -15.334 -26.669  0.00  0.00    -0.085 HD
ATOM      7  H   UNL     1      32.538 -15.773 -26.300  0.00  0.00    -0.085 HD
ENDROOT
BRANCH   3   8
ATOM      8  N   UNL     1      34.536 -14.302 -22.678  0.00  0.00    +0.382 N 
ATOM      9  H   UNL     1      34.264 -13.396 -22.298  0.00  0.00    -0.085 HD
ATOM     10  H   UNL     1      35.516 -14.496 -22.472  0.00  0.00    -0.085 HD
BRANCH   8  11
ATOM     11  C   UNL     1      33.717 -15.341 -22.068  0.00  0.00    -0.106 C 
BRANCH  11  12
ATOM     12  C   UNL     1      34.469 -15.989 -20.909  0.00  0.00    -0.105 C 
BRANCH  12  13
ATOM     13  N   UNL     1      35.327 -17.061 -21.405  0.00  0.00    +0.385 N 
ATOM     14  H   UNL     1      35.848 -17.460 -20.624  0.00  0.00    -0.084 HD
ATOM     15  H   UNL     1      35.967 -16.673 -22.097  0.00  0.00    -0.084 HD
BRANCH  13  16
ATOM     16  C   UNL     1      34.537 -18.108 -22.036  0.00  0.00    -0.054 C 
BRANCH  16  18
ATOM     17 CL   UNL     1      36.598 -21.815 -19.014  0.00  0.00    -0.082 Cl
ATOM     18  C   UNL     1      34.332 -19.284 -21.125  0.00  0.00    -0.043 C 
ATOM     19  C   UNL     1      35.432 -19.926 -20.558  0.00  0.00    +0.005 C 
ATOM     20  C   UNL     1      33.042 -19.734 -20.849  0.00  0.00    -0.006 C 
ATOM     21  C   UNL     1      35.241 -21.021 -19.713  0.00  0.00    +0.057 C 
ATOM     22  C   UNL     1      32.850 -20.828 -20.005  0.00  0.00    +0.000 C 
ATOM     23  C   UNL     1      33.951 -21.472 -19.437  0.00  0.00    +0.011 C 
ENDBRANCH  16  18
ENDBRANCH  13  16
ENDBRANCH  12  13
ENDBRANCH  11  12
ENDBRANCH   8  11
ENDBRANCH   3   8
BRANCH   2  24
ATOM     24  C   UNL     1      33.867 -11.822 -24.625  0.00  0.00    +0.055 C 
BRANCH  24  26
ATOM     25  N   UNL     1      33.533  -9.649 -23.585  0.00  0.00    -0.396 NA
ATOM     26  C   UNL     1      33.192 -10.957 -23.594  0.00  0.00    +0.109 C 
ATOM     27  C   UNL     1      32.275 -11.525 -22.725  0.00  0.00    +0.020 C 
ATOM     28  C   UNL     1      31.670 -10.698 -21.785  0.00  0.00    -0.033 C 
ATOM     29  C   UNL     1      32.924  -8.876 -22.658  0.00  0.00    +0.157 C 
ATOM     30  C   UNL     1      31.995  -9.347 -21.744  0.00  0.00    +0.096 C 
ATOM     31  C   UNL     1      30.676 -11.260 -20.825  0.00  0.00    +0.027 C 
ATOM     32  N   UNL     1      33.245  -7.496 -22.603  0.00  0.00    -0.336 N 
ATOM     33  H   UNL     1      33.900  -7.118 -23.234  0.00  0.00    +0.144 HD
ATOM     34  H   UNL     1      32.813  -6.916 -21.936  0.00  0.00    +0.144 HD
ENDBRANCH  24  26
ENDBRANCH   2  24
TORSDOF 8
ENDMDL
MODEL 6
REMARK VINA RESULT:      -9.7      3.920      9.693
REMARK  Name = 25021186
REMARK  8 active torsions:
REMARK  status: ('A' for Active; 'I' for Inactive)
REMARK    1  A    between atoms: C_2  and  C_24
REMARK    2  A    between atoms: C_3  and  N_8
REMARK    3  A    between atoms: N_8  and  C_11
REMARK    4  A    between atoms: C_11  and  C_12
REMARK    5  A    between atoms: C_12  and  N_13
REMARK    6  A    between atoms: N_13  and  C_16
REMARK    7  A    between atoms: C_16  and  C_18
REMARK    8  A    between atoms: C_24  and  C_26
REMARK                            x       y       z     vdW  Elec       q    Type
REMARK                         _______ _______ _______ _____ _____    ______ ____
ROOT
ATOM      1  N   UNL     1      35.246 -17.654 -24.202  0.00  0.00    +0.382 N 
ATOM      2  C   UNL     1      34.584 -18.577 -22.084  0.00  0.00    -0.036 C 
ATOM      3  C   UNL     1      34.408 -17.060 -22.102  0.00  0.00    -0.085 C 
ATOM      4  C   UNL     1      34.834 -18.908 -23.558  0.00  0.00    -0.083 C 
ATOM      5  C   UNL     1      35.430 -16.651 -23.150  0.00  0.00    -0.104 C 
ATOM      6  H   UNL     1      34.525 -17.346 -24.855  0.00  0.00    -0.085 HD
ATOM      7  H   UNL     1      36.114 -17.789 -24.722  0.00  0.00    -0.085 HD
ENDROOT
BRANCH   3   8
ATOM      8  N   UNL     1      34.647 -16.435 -20.812  0.00  0.00    +0.382 N 
ATOM      9  H   UNL     1      35.601 -16.636 -20.516  0.00  0.00    -0.085 HD
ATOM     10  H   UNL     1      33.977 -16.812 -20.140  0.00  0.00    -0.085 HD
BRANCH   8  11
ATOM     11  C   UNL     1      34.467 -14.991 -20.888  0.00  0.00    -0.106 C 
BRANCH  11  12
ATOM     12  C   UNL     1      33.050 -14.662 -21.351  0.00  0.00    -0.105 C 
BRANCH  12  13
ATOM     13  N   UNL     1      33.050 -13.430 -22.132  0.00  0.00    +0.385 N 
ATOM     14  H   UNL     1      33.280 -13.648 -23.101  0.00  0.00    -0.084 HD
ATOM     15  H   UNL     1      33.742 -12.793 -21.737  0.00  0.00    -0.084 HD
BRANCH  13  16
ATOM     16  C   UNL     1      31.745 -12.786 -22.085  0.00  0.00    -0.054 C 
BRANCH  16  18
ATOM     17 CL   UNL     1      32.137  -7.598 -21.855  0.00  0.00    -0.082 Cl
ATOM     18  C   UNL     1      31.765 -11.535 -21.255  0.00  0.00    -0.043 C 
ATOM     19  C   UNL     1      31.921 -10.293 -21.869  0.00  0.00    +0.005 C 
ATOM     20  C   UNL     1      31.628 -11.616 -19.869  0.00  0.00    -0.006 C 
ATOM     21  C   UNL     1      31.943  -9.131 -21.098  0.00  0.00    +0.057 C 
ATOM     22  C   UNL     1      31.649 -10.454 -19.097  0.00  0.00    +0.000 C 
ATOM     23  C   UNL     1      31.806  -9.211 -19.712  0.00  0.00    +0.011 C 
ENDBRANCH  16  18
ENDBRANCH  13  16
ENDBRANCH  12  13
ENDBRANCH  11  12
ENDBRANCH   8  11
ENDBRANCH   3   8
BRANCH   2  24
ATOM     24  C   UNL     1      33.409 -19.334 -21.484  0.00  0.00    +0.055 C 
BRANCH  24  26
ATOM     25  N   UNL     1      32.881 -20.999 -19.791  0.00  0.00    -0.396 NA
ATOM     26  C   UNL     1      33.856 -20.333 -20.449  0.00  0.00    +0.109 C 
ATOM     27  C   UNL     1      35.210 -20.520 -20.226  0.00  0.00    +0.020 C 
ATOM     28  C   UNL     1      35.589 -21.450 -19.264  0.00  0.00    -0.033 C 
ATOM     29  C   UNL     1      33.287 -21.895 -18.864  0.00  0.00    +0.157 C 
ATOM     30  C   UNL     1      34.615 -22.155 -18.566  0.00  0.00    +0.096 C 
ATOM     31  C   UNL     1      37.034 -21.690 -18.984  0.00  0.00    +0.027 C 
ATOM     32  N   UNL     1      32.307 -22.622 -18.144  0.00  0.00    -0.336 N 
ATOM     33  H   UNL     1      31.351 -22.470 -18.323  0.00  0.00    +0.144 HD
ATOM     34  H   UNL     1      32.581 -23.279 -17.463  0.00  0.00    +0.144 HD
ENDBRANCH  24  26
ENDBRANCH   2  24
TORSDOF 8
ENDMDL
MODEL 7
REMARK VINA RESULT:      -9.7      7.364     12.324
REMARK  Name = 25021186
REMARK  8 active torsions:
REMARK  status: ('A' for Active; 'I' for Inactive)
REMARK    1  A    between atoms: C_2  and  C_24
REMARK    2  A    between atoms: C_3  and  N_8
REMARK    3  A    between atoms: N_8  and  C_11
REMARK    4  A    between atoms: C_11  and  C_12
REMARK    5  A    between atoms: C_12  and  N_13
REMARK    6  A    between atoms: N_13  and  C_16
REMARK    7  A    between atoms: C_16  and  C_18
REMARK    8  A    between atoms: C_24  and  C_26
REMARK                            x       y       z     vdW  Elec       q    Type
REMARK                         _______ _______ _______ _____ _____    ______ ____
ROOT
ATOM      1  N   UNL     1      36.883 -23.888 -10.974  0.00  0.00    +0.382 N 
ATOM      2  C   UNL     1      35.519 -23.804 -12.949  0.00  0.00    -0.036 C 
ATOM      3  C   UNL     1      36.962 -23.415 -13.261  0.00  0.00    -0.085 C 
ATOM      4  C   UNL     1      35.620 -24.383 -11.535  0.00  0.00    -0.083 C 
ATOM      5  C   UNL     1      37.435 -22.906 -11.909  0.00  0.00    -0.104 C 
ATOM      6  H   UNL     1      37.538 -24.662 -10.856  0.00  0.00    -0.085 HD
ATOM      7  H   UNL     1      36.724 -23.461 -10.060  0.00  0.00    -0.085 HD
ENDROOT
BRANCH   3   8
ATOM      8  N   UNL     1      37.077 -22.414 -14.309  0.00  0.00    +0.382 N 
ATOM      9  H   UNL     1      37.947 -21.898 -14.182  0.00  0.00    -0.085 HD
ATOM     10  H   UNL     1      36.276 -21.786 -14.247  0.00  0.00    -0.085 HD
BRANCH   8  11
ATOM     11  C   UNL     1      37.080 -23.035 -15.628  0.00  0.00    -0.106 C 
BRANCH  11  12
ATOM     12  C   UNL     1      37.212 -21.968 -16.710  0.00  0.00    -0.105 C 
BRANCH  12  13
ATOM     13  N   UNL     1      36.095 -22.059 -17.644  0.00  0.00    +0.385 N 
ATOM     14  H   UNL     1      35.340 -21.453 -17.323  0.00  0.00    -0.084 HD
ATOM     15  H   UNL     1      35.780 -23.028 -17.684  0.00  0.00    -0.084 HD
BRANCH  13  16
ATOM     16  C   UNL     1      36.500 -21.646 -18.980  0.00  0.00    -0.054 C 
BRANCH  16  18
ATOM     17 CL   UNL     1      34.971 -18.100 -22.474  0.00  0.00    -0.082 Cl
ATOM     18  C   UNL     1      35.382 -20.977 -19.726  0.00  0.00    -0.043 C 
ATOM     19  C   UNL     1      35.664 -19.969 -20.647  0.00  0.00    +0.005 C 
ATOM     20  C   UNL     1      34.062 -21.362 -19.495  0.00  0.00    -0.006 C 
ATOM     21  C   UNL     1      34.625 -19.345 -21.338  0.00  0.00    +0.057 C 
ATOM     22  C   UNL     1      33.022 -20.739 -20.185  0.00  0.00    +0.000 C 
ATOM     23  C   UNL     1      33.304 -19.729 -21.107  0.00  0.00    +0.011 C 
ENDBRANCH  16  18
ENDBRANCH  13  16
ENDBRANCH  12  13
ENDBRANCH  11  12
ENDBRANCH   8  11
ENDBRANCH   3   8
BRANCH   2  24
ATOM     24  C   UNL     1      34.902 -24.765 -13.954  0.00  0.00    +0.055 C 
BRANCH  24  26
ATOM     25  N   UNL     1      32.530 -24.767 -13.411  0.00  0.00    -0.396 NA
ATOM     26  C   UNL     1      33.483 -24.387 -14.291  0.00  0.00    +0.109 C 
ATOM     27  C   UNL     1      33.226 -23.685 -15.457  0.00  0.00    +0.020 C 
ATOM     28  C   UNL     1      31.906 -23.351 -15.739  0.00  0.00    -0.033 C 
ATOM     29  C   UNL     1      31.258 -24.425 -13.718  0.00  0.00    +0.157 C 
ATOM     30  C   UNL     1      30.898 -23.724 -14.857  0.00  0.00    +0.096 C 
ATOM     31  C   UNL     1      31.574 -22.596 -16.981  0.00  0.00    +0.027 C 
ATOM     32  N   UNL     1      30.219 -24.798 -12.829  0.00  0.00    -0.336 N 
ATOM     33  H   UNL     1      30.430 -25.297 -12.007  0.00  0.00    +0.144 HD
ATOM     34  H   UNL     1      29.286 -24.559 -13.034  0.00  0.00    +0.144 HD
ENDBRANCH  24  26
ENDBRANCH   2  24
TORSDOF 8
ENDMDL
MODEL 8
REMARK VINA RESULT:      -9.7      4.848      7.565
REMARK  Name = 25021186
REMARK  8 active torsions:
REMARK  status: ('A' for Active; 'I' for Inactive)
REMARK    1  A    between atoms: C_2  and  C_24
REMARK    2  A    between atoms: C_3  and  N_8
REMARK    3  A    between atoms: N_8  and  C_11
REMARK    4  A    between atoms: C_11  and  C_12
REMARK    5  A    between atoms: C_12  and  N_13
REMARK    6  A    between atoms: N_13  and  C_16
REMARK    7  A    between atoms: C_16  and  C_18
REMARK    8  A    between atoms: C_24  and  C_26
REMARK                            x       y       z     vdW  Elec       q    Type
REMARK                         _______ _______ _______ _____ _____    ______ ____
ROOT
ATOM      1  N   UNL     1      32.678 -21.028 -20.265  0.00  0.00    +0.382 N 
ATOM      2  C   UNL     1      34.588 -19.645 -20.723  0.00  0.00    -0.036 C 
ATOM      3  C   UNL     1      35.014 -21.008 -20.182  0.00  0.00    -0.085 C 
ATOM      4  C   UNL     1      33.102 -19.849 -21.031  0.00  0.00    -0.083 C 
ATOM      5  C   UNL     1      33.784 -21.412 -19.385  0.00  0.00    -0.104 C 
ATOM      6  H   UNL     1      32.457 -21.795 -20.901  0.00  0.00    -0.085 HD
ATOM      7  H   UNL     1      31.843 -20.816 -19.717  0.00  0.00    -0.085 HD
ENDROOT
BRANCH   3   8
ATOM      8  N   UNL     1      36.217 -20.957 -19.369  0.00  0.00    +0.382 N 
ATOM      9  H   UNL     1      36.352 -20.004 -19.033  0.00  0.00    -0.085 HD
ATOM     10  H   UNL     1      37.009 -21.249 -19.942  0.00  0.00    -0.085 HD
BRANCH   8  11
ATOM     11  C   UNL     1      36.114 -21.854 -18.225  0.00  0.00    -0.106 C 
BRANCH  11  12
ATOM     12  C   UNL     1      37.091 -21.427 -17.133  0.00  0.00    -0.105 C 
BRANCH  12  13
ATOM     13  N   UNL     1      37.577 -22.596 -16.408  0.00  0.00    +0.385 N 
ATOM     14  H   UNL     1      38.433 -22.350 -15.912  0.00  0.00    -0.084 HD
ATOM     15  H   UNL     1      37.757 -23.344 -17.078  0.00  0.00    -0.084 HD
BRANCH  13  16
ATOM     16  C   UNL     1      36.586 -23.060 -15.448  0.00  0.00    -0.054 C 
BRANCH  16  18
ATOM     17 CL   UNL     1      40.554 -26.134 -14.059  0.00  0.00    -0.082 Cl
ATOM     18  C   UNL     1      37.160 -24.061 -14.487  0.00  0.00    -0.043 C 
ATOM     19  C   UNL     1      38.441 -24.571 -14.694  0.00  0.00    +0.005 C 
ATOM     20  C   UNL     1      36.410 -24.483 -13.390  0.00  0.00    -0.006 C 
ATOM     21  C   UNL     1      38.974 -25.503 -13.804  0.00  0.00    +0.057 C 
ATOM     22  C   UNL     1      36.942 -25.416 -12.498  0.00  0.00    +0.000 C 
ATOM     23  C   UNL     1      38.225 -25.926 -12.706  0.00  0.00    +0.011 C 
ENDBRANCH  16  18
ENDBRANCH  13  16
ENDBRANCH  12  13
ENDBRANCH  11  12
ENDBRANCH   8  11
ENDBRANCH   3   8
BRANCH   2  24
ATOM     24  C   UNL     1      35.395 -19.171 -21.922  0.00  0.00    +0.055 C 
BRANCH  24  26
ATOM     25  N   UNL     1      34.945 -16.840 -21.387  0.00  0.00    -0.396 NA
ATOM     26  C   UNL     1      34.994 -17.784 -22.354  0.00  0.00    +0.109 C 
ATOM     27  C   UNL     1      34.703 -17.545 -23.687  0.00  0.00    +0.020 C 
ATOM     28  C   UNL     1      34.337 -16.253 -24.052  0.00  0.00    -0.033 C 
ATOM     29  C   UNL     1      34.586 -15.597 -21.779  0.00  0.00    +0.157 C 
ATOM     30  C   UNL     1      34.276 -15.256 -23.086  0.00  0.00    +0.096 C 
ATOM     31  C   UNL     1      34.013 -15.942 -25.473  0.00  0.00    +0.027 C 
ATOM     32  N   UNL     1      34.519 -14.569 -20.807  0.00  0.00    -0.336 N 
ATOM     33  H   UNL     1      34.731 -14.766 -19.866  0.00  0.00    +0.144 HD
ATOM     34  H   UNL     1      34.259 -13.657 -21.071  0.00  0.00    +0.144 HD
ENDBRANCH  24  26
ENDBRANCH   2  24
TORSDOF 8
ENDMDL
MODEL 9
REMARK VINA RESULT:      -9.5      5.936     12.061
REMARK  Name = 25021186
REMARK  8 active torsions:
REMARK  status: ('A' for Active; 'I' for Inactive)
REMARK    1  A    between atoms: C_2  and  C_24
REMARK    2  A    between atoms: C_3  and  N_8
REMARK    3  A    between atoms: N_8  and  C_11
REMARK    4  A    between atoms: C_11  and  C_12
REMARK    5  A    between atoms: C_12  and  N_13
REMARK    6  A    between atoms: N_13  and  C_16
REMARK    7  A    between atoms: C_16  and  C_18
REMARK    8  A    between atoms: C_24  and  C_26
REMARK                            x       y       z     vdW  Elec       q    Type
REMARK                         _______ _______ _______ _____ _____    ______ ____
ROOT
ATOM      1  N   UNL     1      31.144 -23.006 -15.384  0.00  0.00    +0.382 N 
ATOM      2  C   UNL     1      33.464 -23.429 -15.841  0.00  0.00    -0.036 C 
ATOM      3  C   UNL     1      32.781 -22.765 -17.035  0.00  0.00    -0.085 C 
ATOM      4  C   UNL     1      32.429 -23.271 -14.724  0.00  0.00    -0.083 C 
ATOM      5  C   UNL     1      31.335 -23.184 -16.825  0.00  0.00    -0.104 C 
ATOM      6  H   UNL     1      30.844 -22.051 -15.188  0.00  0.00    -0.085 HD
ATOM      7  H   UNL     1      30.428 -23.645 -15.037  0.00  0.00    -0.085 HD
ENDROOT
BRANCH   3   8
ATOM      8  N   UNL     1      33.310 -23.197 -18.318  0.00  0.00    +0.382 N 
ATOM      9  H   UNL     1      32.633 -23.814 -18.766  0.00  0.00    -0.085 HD
ATOM     10  H   UNL     1      34.190 -23.687 -18.157  0.00  0.00    -0.085 HD
BRANCH   8  11
ATOM     11  C   UNL     1      33.564 -22.057 -19.190  0.00  0.00    -0.106 C 
BRANCH  11  12
ATOM     12  C   UNL     1      35.066 -21.857 -19.368  0.00  0.00    -0.105 C 
BRANCH  12  13
ATOM     13  N   UNL     1      35.331 -20.554 -19.969  0.00  0.00    +0.385 N 
ATOM     14  H   UNL     1      36.074 -20.650 -20.662  0.00  0.00    -0.084 HD
ATOM     15  H   UNL     1      35.613 -19.906 -19.234  0.00  0.00    -0.084 HD
BRANCH  13  16
ATOM     16  C   UNL     1      34.139 -20.030 -20.619  0.00  0.00    -0.054 C 
BRANCH  16  18
ATOM     17 CL   UNL     1      34.567 -14.959 -21.724  0.00  0.00    -0.082 Cl
ATOM     18  C   UNL     1      34.467 -18.956 -21.616  0.00  0.00    -0.043 C 
ATOM     19  C   UNL     1      34.377 -17.614 -21.249  0.00  0.00    +0.005 C 
ATOM     20  C   UNL     1      34.860 -19.301 -22.908  0.00  0.00    -0.006 C 
ATOM     21  C   UNL     1      34.680 -16.615 -22.175  0.00  0.00    +0.057 C 
ATOM     22  C   UNL     1      35.163 -18.304 -23.836  0.00  0.00    +0.000 C 
ATOM     23  C   UNL     1      35.073 -16.960 -23.468  0.00  0.00    +0.011 C 
ENDBRANCH  16  18
ENDBRANCH  13  16
ENDBRANCH  12  13
ENDBRANCH  11  12
ENDBRANCH   8  11
ENDBRANCH   3   8
BRANCH   2  24
ATOM     24  C   UNL     1      34.823 -22.841 -15.495  0.00  0.00    +0.055 C 
BRANCH  24  26
ATOM     25  N   UNL     1      35.716 -25.104 -15.444  0.00  0.00    -0.396 NA
ATOM     26  C   UNL     1      35.741 -23.871 -14.890  0.00  0.00    +0.109 C 
ATOM     27  C   UNL     1      36.549 -23.517 -13.822  0.00  0.00    +0.020 C 
ATOM     28  C   UNL     1      37.386 -24.492 -13.287  0.00  0.00    -0.033 C 
ATOM     29  C   UNL     1      36.543 -26.024 -14.898  0.00  0.00    +0.157 C 
ATOM     30  C   UNL     1      37.388 -25.771 -13.830  0.00  0.00    +0.096 C 
ATOM     31  C   UNL     1      38.275 -24.164 -12.137  0.00  0.00    +0.027 C 
ATOM     32  N   UNL     1      36.557 -27.334 -15.441  0.00  0.00    -0.336 N 
ATOM     33  H   UNL     1      35.972 -27.558 -16.201  0.00  0.00    +0.144 HD
ATOM     34  H   UNL     1      37.151 -28.019 -15.058  0.00  0.00    +0.144 HD
ENDBRANCH  24  26
ENDBRANCH   2  24
TORSDOF 8
ENDMDL
