MODEL 1
REMARK VINA RESULT:      -9.1      0.000      0.000
REMARK  Name = 685814
REMARK  2 active torsions:
REMARK  status: ('A' for Active; 'I' for Inactive)
REMARK    1  A    between atoms: C_5  and  C_11
REMARK    2  A    between atoms: C_11  and  C_12
REMARK                            x       y       z     vdW  Elec       q    Type
REMARK                         _______ _______ _______ _____ _____    ______ ____
ROOT
ATOM      1  S   UNL     1      34.179 -14.280 -22.340  0.00  0.00    -0.018 S 
ATOM      2  O   UNL     1      34.542 -17.863 -25.792  0.00  0.00    -0.270 OA
ATOM      3  N   UNL     1      35.227 -16.715 -22.004  0.00  0.00    -0.299 N 
ATOM      4  N   UNL     1      34.402 -16.244 -24.145  0.00  0.00    -0.264 N 
ATOM      5  C   UNL     1      35.600 -17.979 -22.399  0.00  0.00    +0.036 C 
ATOM      6  C   UNL     1      35.388 -18.400 -23.654  0.00  0.00    +0.069 C 
ATOM      7  C   UNL     1      34.622 -15.810 -22.847  0.00  0.00    +0.141 C 
ATOM      8  C   UNL     1      34.742 -17.495 -24.638  0.00  0.00    +0.252 C 
ATOM      9  H   UNL     1      35.401 -16.445 -21.073  0.00  0.00    +0.154 HD
ATOM     10  H   UNL     1      33.970 -15.614 -24.766  0.00  0.00    +0.157 HD
ENDROOT
BRANCH   5  11
ATOM     11  C   UNL     1      36.246 -18.834 -21.354  0.00  0.00    +0.068 C 
BRANCH  11  12
ATOM     12  C   UNL     1      35.279 -19.791 -20.714  0.00  0.00    -0.016 C 
ATOM     13  C   UNL     1      35.763 -20.884 -20.006  0.00  0.00    -0.004 C 
ATOM     14  C   UNL     1      33.914 -19.570 -20.837  0.00  0.00    -0.004 C 
ATOM     15  C   UNL     1      34.865 -21.771 -19.413  0.00  0.00    -0.000 C 
ATOM     16  C   UNL     1      33.016 -20.457 -20.242  0.00  0.00    -0.000 C 
ATOM     17  C   UNL     1      33.492 -21.558 -19.531  0.00  0.00    -0.000 C 
ENDBRANCH  11  12
ENDBRANCH   5  11
TORSDOF 2
ENDMDL
MODEL 2
REMARK VINA RESULT:      -8.6      2.067      2.360
REMARK  Name = 685814
REMARK  2 active torsions:
REMARK  status: ('A' for Active; 'I' for Inactive)
REMARK    1  A    between atoms: C_5  and  C_11
REMARK    2  A    between atoms: C_11  and  C_12
REMARK                            x       y       z     vdW  Elec       q    Type
REMARK                         _______ _______ _______ _____ _____    ______ ____
ROOT
ATOM      1  S   UNL     1      33.964 -15.981 -25.389  0.00  0.00    -0.018 S 
ATOM      2  O   UNL     1      33.835 -14.470 -20.637  0.00  0.00    -0.270 OA
ATOM      3  N   UNL     1      34.977 -17.271 -23.281  0.00  0.00    -0.299 N 
ATOM      4  N   UNL     1      33.930 -15.226 -22.822  0.00  0.00    -0.264 N 
ATOM      5  C   UNL     1      35.269 -17.448 -21.948  0.00  0.00    +0.036 C 
ATOM      6  C   UNL     1      34.906 -16.535 -21.034  0.00  0.00    +0.069 C 
ATOM      7  C   UNL     1      34.306 -16.170 -23.765  0.00  0.00    +0.141 C 
ATOM      8  C   UNL     1      34.177 -15.314 -21.460  0.00  0.00    +0.252 C 
ATOM      9  H   UNL     1      35.261 -17.964 -23.918  0.00  0.00    +0.154 HD
ATOM     10  H   UNL     1      33.449 -14.430 -23.145  0.00  0.00    +0.157 HD
ENDROOT
BRANCH   5  11
ATOM     11  C   UNL     1      36.005 -18.702 -21.593  0.00  0.00    +0.068 C 
BRANCH  11  12
ATOM     12  C   UNL     1      35.139 -19.691 -20.862  0.00  0.00    -0.016 C 
ATOM     13  C   UNL     1      35.733 -20.676 -20.082  0.00  0.00    -0.004 C 
ATOM     14  C   UNL     1      33.758 -19.606 -20.974  0.00  0.00    -0.004 C 
ATOM     15  C   UNL     1      34.929 -21.592 -19.405  0.00  0.00    -0.000 C 
ATOM     16  C   UNL     1      32.955 -20.523 -20.295  0.00  0.00    -0.000 C 
ATOM     17  C   UNL     1      33.540 -21.516 -19.511  0.00  0.00    -0.000 C 
ENDBRANCH  11  12
ENDBRANCH   5  11
TORSDOF 2
ENDMDL
MODEL 3
REMARK VINA RESULT:      -8.0      3.401      5.468
REMARK  Name = 685814
REMARK  2 active torsions:
REMARK  status: ('A' for Active; 'I' for Inactive)
REMARK    1  A    between atoms: C_5  and  C_11
REMARK    2  A    between atoms: C_11  and  C_12
REMARK                            x       y       z     vdW  Elec       q    Type
REMARK                         _______ _______ _______ _____ _____    ______ ____
ROOT
ATOM      1  S   UNL     1      36.663 -21.638 -18.395  0.00  0.00    -0.018 S 
ATOM      2  O   UNL     1      32.309 -20.835 -20.692  0.00  0.00    -0.270 OA
ATOM      3  N   UNL     1      36.183 -19.843 -20.315  0.00  0.00    -0.299 N 
ATOM      4  N   UNL     1      34.357 -21.159 -19.666  0.00  0.00    -0.264 N 
ATOM      5  C   UNL     1      35.407 -19.177 -21.236  0.00  0.00    +0.036 C 
ATOM      6  C   UNL     1      34.110 -19.480 -21.392  0.00  0.00    +0.069 C 
ATOM      7  C   UNL     1      35.698 -20.846 -19.506  0.00  0.00    +0.141 C 
ATOM      8  C   UNL     1      33.495 -20.546 -20.563  0.00  0.00    +0.252 C 
ATOM      9  H   UNL     1      37.131 -19.590 -20.232  0.00  0.00    +0.154 HD
ATOM     10  H   UNL     1      33.988 -21.873 -19.098  0.00  0.00    +0.157 HD
ENDROOT
BRANCH   5  11
ATOM     11  C   UNL     1      36.095 -18.114 -22.034  0.00  0.00    +0.068 C 
BRANCH  11  12
ATOM     12  C   UNL     1      35.291 -16.846 -22.117  0.00  0.00    -0.016 C 
ATOM     13  C   UNL     1      34.833 -16.246 -20.951  0.00  0.00    -0.004 C 
ATOM     14  C   UNL     1      35.016 -16.289 -23.359  0.00  0.00    -0.004 C 
ATOM     15  C   UNL     1      34.087 -15.071 -21.029  0.00  0.00    -0.000 C 
ATOM     16  C   UNL     1      34.271 -15.112 -23.437  0.00  0.00    -0.000 C 
ATOM     17  C   UNL     1      33.806 -14.503 -22.272  0.00  0.00    -0.000 C 
ENDBRANCH  11  12
ENDBRANCH   5  11
TORSDOF 2
ENDMDL
MODEL 4
REMARK VINA RESULT:      -7.9      6.086      8.057
REMARK  Name = 685814
REMARK  2 active torsions:
REMARK  status: ('A' for Active; 'I' for Inactive)
REMARK    1  A    between atoms: C_5  and  C_11
REMARK    2  A    between atoms: C_11  and  C_12
REMARK                            x       y       z     vdW  Elec       q    Type
REMARK                         _______ _______ _______ _____ _____    ______ ____
ROOT
ATOM      1  S   UNL     1      35.838 -23.253 -14.107  0.00  0.00    -0.018 S 
ATOM      2  O   UNL     1      30.936 -22.754 -14.880  0.00  0.00    -0.270 OA
ATOM      3  N   UNL     1      34.583 -23.325 -16.464  0.00  0.00    -0.299 N 
ATOM      4  N   UNL     1      33.218 -22.995 -14.589  0.00  0.00    -0.264 N 
ATOM      5  C   UNL     1      33.489 -23.275 -17.299  0.00  0.00    +0.036 C 
ATOM      6  C   UNL     1      32.255 -23.087 -16.808  0.00  0.00    +0.069 C 
ATOM      7  C   UNL     1      34.493 -23.189 -15.097  0.00  0.00    +0.141 C 
ATOM      8  C   UNL     1      32.058 -22.929 -15.346  0.00  0.00    +0.252 C 
ATOM      9  H   UNL     1      35.471 -23.464 -16.865  0.00  0.00    +0.154 HD
ATOM     10  H   UNL     1      33.130 -22.895 -13.614  0.00  0.00    +0.157 HD
ENDROOT
BRANCH   5  11
ATOM     11  C   UNL     1      33.766 -23.441 -18.760  0.00  0.00    +0.068 C 
BRANCH  11  12
ATOM     12  C   UNL     1      34.125 -22.143 -19.430  0.00  0.00    -0.016 C 
ATOM     13  C   UNL     1      33.116 -21.285 -19.847  0.00  0.00    -0.004 C 
ATOM     14  C   UNL     1      35.461 -21.819 -19.622  0.00  0.00    -0.004 C 
ATOM     15  C   UNL     1      33.450 -20.082 -20.468  0.00  0.00    -0.000 C 
ATOM     16  C   UNL     1      35.794 -20.615 -20.243  0.00  0.00    -0.000 C 
ATOM     17  C   UNL     1      34.789 -19.747 -20.667  0.00  0.00    -0.000 C 
ENDBRANCH  11  12
ENDBRANCH   5  11
TORSDOF 2
ENDMDL
MODEL 5
REMARK VINA RESULT:      -7.9      6.032      7.915
REMARK  Name = 685814
REMARK  2 active torsions:
REMARK  status: ('A' for Active; 'I' for Inactive)
REMARK    1  A    between atoms: C_5  and  C_11
REMARK    2  A    between atoms: C_11  and  C_12
REMARK                            x       y       z     vdW  Elec       q    Type
REMARK                         _______ _______ _______ _____ _____    ______ ____
ROOT
ATOM      1  S   UNL     1      30.432 -22.914 -15.011  0.00  0.00    -0.018 S 
ATOM      2  O   UNL     1      35.358 -23.016 -14.235  0.00  0.00    -0.270 OA
ATOM      3  N   UNL     1      32.332 -23.142 -16.875  0.00  0.00    -0.299 N 
ATOM      4  N   UNL     1      33.084 -22.973 -14.663  0.00  0.00    -0.264 N 
ATOM      5  C   UNL     1      33.627 -23.226 -17.334  0.00  0.00    +0.036 C 
ATOM      6  C   UNL     1      34.664 -23.187 -16.485  0.00  0.00    +0.069 C 
ATOM      7  C   UNL     1      32.013 -23.013 -15.541  0.00  0.00    +0.141 C 
ATOM      8  C   UNL     1      34.420 -23.052 -15.027  0.00  0.00    +0.252 C 
ATOM      9  H   UNL     1      31.600 -23.174 -17.531  0.00  0.00    +0.154 HD
ATOM     10  H   UNL     1      32.880 -22.882 -13.704  0.00  0.00    +0.157 HD
ENDROOT
BRANCH   5  11
ATOM     11  C   UNL     1      33.795 -23.361 -18.815  0.00  0.00    +0.068 C 
BRANCH  11  12
ATOM     12  C   UNL     1      34.132 -22.054 -19.479  0.00  0.00    -0.016 C 
ATOM     13  C   UNL     1      35.462 -21.723 -19.704  0.00  0.00    -0.004 C 
ATOM     14  C   UNL     1      33.110 -21.195 -19.858  0.00  0.00    -0.004 C 
ATOM     15  C   UNL     1      35.774 -20.512 -20.319  0.00  0.00    -0.000 C 
ATOM     16  C   UNL     1      33.423 -19.983 -20.474  0.00  0.00    -0.000 C 
ATOM     17  C   UNL     1      34.755 -19.641 -20.704  0.00  0.00    -0.000 C 
ENDBRANCH  11  12
ENDBRANCH   5  11
TORSDOF 2
ENDMDL
MODEL 6
REMARK VINA RESULT:      -7.9      4.430      6.148
REMARK  Name = 685814
REMARK  2 active torsions:
REMARK  status: ('A' for Active; 'I' for Inactive)
REMARK    1  A    between atoms: C_5  and  C_11
REMARK    2  A    between atoms: C_11  and  C_12
REMARK                            x       y       z     vdW  Elec       q    Type
REMARK                         _______ _______ _______ _____ _____    ______ ____
ROOT
ATOM      1  S   UNL     1      32.548 -23.340 -17.074  0.00  0.00    -0.018 S 
ATOM      2  O   UNL     1      36.969 -21.788 -18.785  0.00  0.00    -0.270 OA
ATOM      3  N   UNL     1      32.966 -21.645 -19.096  0.00  0.00    -0.299 N 
ATOM      4  N   UNL     1      34.887 -22.468 -18.038  0.00  0.00    -0.264 N 
ATOM      5  C   UNL     1      33.733 -20.901 -19.963  0.00  0.00    +0.036 C 
ATOM      6  C   UNL     1      35.072 -20.921 -19.891  0.00  0.00    +0.069 C 
ATOM      7  C   UNL     1      33.504 -22.446 -18.113  0.00  0.00    +0.141 C 
ATOM      8  C   UNL     1      35.744 -21.756 -18.864  0.00  0.00    +0.252 C 
ATOM      9  H   UNL     1      31.987 -21.602 -19.183  0.00  0.00    +0.154 HD
ATOM     10  H   UNL     1      35.294 -23.034 -17.343  0.00  0.00    +0.157 HD
ENDROOT
BRANCH   5  11
ATOM     11  C   UNL     1      32.987 -20.084 -20.971  0.00  0.00    +0.068 C 
BRANCH  11  12
ATOM     12  C   UNL     1      33.849 -19.032 -21.613  0.00  0.00    -0.016 C 
ATOM     13  C   UNL     1      34.517 -19.323 -22.797  0.00  0.00    -0.004 C 
ATOM     14  C   UNL     1      33.967 -17.785 -21.017  0.00  0.00    -0.004 C 
ATOM     15  C   UNL     1      35.316 -18.347 -23.391  0.00  0.00    -0.000 C 
ATOM     16  C   UNL     1      34.767 -16.809 -21.612  0.00  0.00    -0.000 C 
ATOM     17  C   UNL     1      35.442 -17.090 -22.799  0.00  0.00    -0.000 C 
ENDBRANCH  11  12
ENDBRANCH   5  11
TORSDOF 2
ENDMDL
MODEL 7
REMARK VINA RESULT:      -7.7      2.474      3.517
REMARK  Name = 685814
REMARK  2 active torsions:
REMARK  status: ('A' for Active; 'I' for Inactive)
REMARK    1  A    between atoms: C_5  and  C_11
REMARK    2  A    between atoms: C_11  and  C_12
REMARK                            x       y       z     vdW  Elec       q    Type
REMARK                         _______ _______ _______ _____ _____    ______ ____
ROOT
ATOM      1  S   UNL     1      33.772 -10.949 -24.398  0.00  0.00    -0.018 S 
ATOM      2  O   UNL     1      32.927 -15.440 -26.399  0.00  0.00    -0.270 OA
ATOM      3  N   UNL     1      34.139 -13.315 -23.212  0.00  0.00    -0.299 N 
ATOM      4  N   UNL     1      33.338 -13.388 -25.412  0.00  0.00    -0.264 N 
ATOM      5  C   UNL     1      34.128 -14.689 -23.138  0.00  0.00    +0.036 C 
ATOM      6  C   UNL     1      33.730 -15.434 -24.180  0.00  0.00    +0.069 C 
ATOM      7  C   UNL     1      33.749 -12.619 -24.335  0.00  0.00    +0.141 C 
ATOM      8  C   UNL     1      33.293 -14.774 -25.435  0.00  0.00    +0.252 C 
ATOM      9  H   UNL     1      34.438 -12.806 -22.425  0.00  0.00    +0.154 HD
ATOM     10  H   UNL     1      33.054 -12.911 -26.226  0.00  0.00    +0.157 HD
ENDROOT
BRANCH   5  11
ATOM     11  C   UNL     1      34.583 -15.284 -21.842  0.00  0.00    +0.068 C 
BRANCH  11  12
ATOM     12  C   UNL     1      34.680 -16.784 -21.898  0.00  0.00    -0.016 C 
ATOM     13  C   UNL     1      35.614 -17.379 -22.737  0.00  0.00    -0.004 C 
ATOM     14  C   UNL     1      33.835 -17.555 -21.112  0.00  0.00    -0.004 C 
ATOM     15  C   UNL     1      35.703 -18.769 -22.789  0.00  0.00    -0.000 C 
ATOM     16  C   UNL     1      33.925 -18.946 -21.164  0.00  0.00    -0.000 C 
ATOM     17  C   UNL     1      34.858 -19.554 -22.003  0.00  0.00    -0.000 C 
ENDBRANCH  11  12
ENDBRANCH   5  11
TORSDOF 2
ENDMDL
MODEL 8
REMARK VINA RESULT:      -7.7      1.180      1.967
REMARK  Name = 685814
REMARK  2 active torsions:
REMARK  status: ('A' for Active; 'I' for Inactive)
REMARK    1  A    between atoms: C_5  and  C_11
REMARK    2  A    between atoms: C_11  and  C_12
REMARK                            x       y       z     vdW  Elec       q    Type
REMARK                         _______ _______ _______ _____ _____    ______ ____
ROOT
ATOM      1  S   UNL     1      34.527 -14.905 -20.876  0.00  0.00    -0.018 S 
ATOM      2  O   UNL     1      35.196 -17.620 -25.006  0.00  0.00    -0.270 OA
ATOM      3  N   UNL     1      33.975 -17.501 -21.181  0.00  0.00    -0.299 N 
ATOM      4  N   UNL     1      34.860 -16.416 -23.059  0.00  0.00    -0.264 N 
ATOM      5  C   UNL     1      33.902 -18.689 -21.872  0.00  0.00    +0.036 C 
ATOM      6  C   UNL     1      34.300 -18.769 -23.150  0.00  0.00    +0.069 C 
ATOM      7  C   UNL     1      34.449 -16.334 -21.738  0.00  0.00    +0.141 C 
ATOM      8  C   UNL     1      34.827 -17.564 -23.837  0.00  0.00    +0.252 C 
ATOM      9  H   UNL     1      33.674 -17.485 -20.245  0.00  0.00    +0.154 HD
ATOM     10  H   UNL     1      35.202 -15.594 -23.479  0.00  0.00    +0.157 HD
ENDROOT
BRANCH   5  11
ATOM     11  C   UNL     1      33.362 -19.861 -21.115  0.00  0.00    +0.068 C 
BRANCH  11  12
ATOM     12  C   UNL     1      34.410 -20.539 -20.276  0.00  0.00    -0.016 C 
ATOM     13  C   UNL     1      34.028 -21.492 -19.340  0.00  0.00    -0.004 C 
ATOM     14  C   UNL     1      35.746 -20.204 -20.447  0.00  0.00    -0.004 C 
ATOM     15  C   UNL     1      35.001 -22.119 -18.562  0.00  0.00    -0.000 C 
ATOM     16  C   UNL     1      36.719 -20.832 -19.669  0.00  0.00    -0.000 C 
ATOM     17  C   UNL     1      36.347 -21.789 -18.726  0.00  0.00    -0.000 C 
ENDBRANCH  11  12
ENDBRANCH   5  11
TORSDOF 2
ENDMDL
MODEL 9
REMARK VINA RESULT:      -7.6      5.750      7.538
REMARK  Name = 685814
REMARK  2 active torsions:
REMARK  status: ('A' for Active; 'I' for Inactive)
REMARK    1  A    between atoms: C_5  and  C_11
REMARK    2  A    between atoms: C_11  and  C_12
REMARK                            x       y       z     vdW  Elec       q    Type
REMARK                         _______ _______ _______ _____ _____    ______ ____
ROOT
ATOM      1  S   UNL     1      33.316 -23.765 -14.213  0.00  0.00    -0.018 S 
ATOM      2  O   UNL     1      37.640 -21.901 -15.857  0.00  0.00    -0.270 OA
ATOM      3  N   UNL     1      33.922 -23.141 -16.739  0.00  0.00    -0.299 N 
ATOM      4  N   UNL     1      35.610 -22.763 -15.159  0.00  0.00    -0.264 N 
ATOM      5  C   UNL     1      34.733 -22.679 -17.750  0.00  0.00    +0.036 C 
ATOM      6  C   UNL     1      35.980 -22.256 -17.497  0.00  0.00    +0.069 C 
ATOM      7  C   UNL     1      34.321 -23.200 -15.422  0.00  0.00    +0.141 C 
ATOM      8  C   UNL     1      36.501 -22.283 -16.107  0.00  0.00    +0.252 C 
ATOM      9  H   UNL     1      33.014 -23.442 -16.968  0.00  0.00    +0.154 HD
ATOM     10  H   UNL     1      35.917 -22.796 -14.224  0.00  0.00    +0.157 HD
ENDROOT
BRANCH   5  11
ATOM     11  C   UNL     1      34.140 -22.682 -19.125  0.00  0.00    +0.068 C 
BRANCH  11  12
ATOM     12  C   UNL     1      34.315 -21.365 -19.831  0.00  0.00    -0.016 C 
ATOM     13  C   UNL     1      33.198 -20.598 -20.135  0.00  0.00    -0.004 C 
ATOM     14  C   UNL     1      35.590 -20.933 -20.168  0.00  0.00    -0.004 C 
ATOM     15  C   UNL     1      33.361 -19.378 -20.790  0.00  0.00    -0.000 C 
ATOM     16  C   UNL     1      35.752 -19.712 -20.823  0.00  0.00    -0.000 C 
ATOM     17  C   UNL     1      34.638 -18.934 -21.134  0.00  0.00    -0.000 C 
ENDBRANCH  11  12
ENDBRANCH   5  11
TORSDOF 2
ENDMDL
