MODEL 1
REMARK VINA RESULT:      -8.2      0.000      0.000
REMARK  Name = 8481
REMARK  2 active torsions:
REMARK  status: ('A' for Active; 'I' for Inactive)
REMARK    1  A    between atoms: C_1  and  S_13
REMARK    2  A    between atoms: C_2  and  N_8
REMARK                            x       y       z     vdW  Elec       q    Type
REMARK                         _______ _______ _______ _____ _____    ______ ____
ROOT
ATOM      1  C   UNL     1      34.201 -21.421 -19.543  0.00  0.00    +0.122 C 
ATOM      2  C   UNL     1      34.343 -19.118 -21.110  0.00  0.00    +0.050 C 
ATOM      3  C   UNL     1      35.439 -20.950 -19.978  0.00  0.00    +0.021 C 
ATOM      4  C   UNL     1      33.034 -20.742 -19.892  0.00  0.00    +0.021 C 
ATOM      5  C   UNL     1      35.511 -19.798 -20.761  0.00  0.00    +0.016 C 
ATOM      6  C   UNL     1      33.105 -19.590 -20.675  0.00  0.00    +0.016 C 
ENDROOT
BRANCH   2   8
ATOM      7  O   UNL     1      35.085 -16.294 -20.372  0.00  0.00    -0.275 OA
ATOM      8  N   UNL     1      34.415 -17.966 -21.894  0.00  0.00    -0.284 N 
ATOM      9  C   UNL     1      34.766 -16.669 -21.496  0.00  0.00    +0.227 C 
ATOM     10  C   UNL     1      34.722 -15.699 -22.650  0.00  0.00    +0.095 C 
ATOM     11  H   UNL     1      34.191 -18.078 -22.846  0.00  0.00    +0.155 HD
ENDBRANCH   2   8
BRANCH   1  13
ATOM     12 CL   UNL     1      32.343 -22.605 -17.562  0.00  0.00    +0.060 Cl
ATOM     13  S   UNL     1      34.111 -22.864 -18.562  0.00  0.00    +0.081 S 
ATOM     14  O   UNL     1      35.154 -22.820 -17.555  0.00  0.00    -0.153 OA
ATOM     15  O   UNL     1      33.901 -24.027 -19.404  0.00  0.00    -0.153 OA
ENDBRANCH   1  13
TORSDOF 2
ENDMDL
MODEL 2
REMARK VINA RESULT:      -8.0      1.575      2.036
REMARK  Name = 8481
REMARK  2 active torsions:
REMARK  status: ('A' for Active; 'I' for Inactive)
REMARK    1  A    between atoms: C_1  and  S_13
REMARK    2  A    between atoms: C_2  and  N_8
REMARK                            x       y       z     vdW  Elec       q    Type
REMARK                         _______ _______ _______ _____ _____    ______ ____
ROOT
ATOM      1  C   UNL     1      34.202 -21.543 -19.495  0.00  0.00    +0.122 C 
ATOM      2  C   UNL     1      34.460 -19.377 -21.234  0.00  0.00    +0.050 C 
ATOM      3  C   UNL     1      33.066 -20.866 -19.940  0.00  0.00    +0.021 C 
ATOM      4  C   UNL     1      35.467 -21.136 -19.919  0.00  0.00    +0.021 C 
ATOM      5  C   UNL     1      33.195 -19.784 -20.810  0.00  0.00    +0.016 C 
ATOM      6  C   UNL     1      35.596 -20.053 -20.789  0.00  0.00    +0.016 C 
ENDROOT
BRANCH   2   8
ATOM      7  O   UNL     1      34.902 -19.302 -24.212  0.00  0.00    -0.275 OA
ATOM      8  N   UNL     1      34.589 -18.294 -22.104  0.00  0.00    -0.284 N 
ATOM      9  C   UNL     1      34.796 -18.317 -23.490  0.00  0.00    +0.227 C 
ATOM     10  C   UNL     1      34.881 -16.925 -24.066  0.00  0.00    +0.095 C 
ATOM     11  H   UNL     1      34.527 -17.401 -21.693  0.00  0.00    +0.155 HD
ENDBRANCH   2   8
BRANCH   1  13
ATOM     12 CL   UNL     1      32.250 -22.515 -17.489  0.00  0.00    +0.060 Cl
ATOM     13  S   UNL     1      34.041 -22.898 -18.406  0.00  0.00    +0.081 S 
ATOM     14  O   UNL     1      35.052 -22.800 -17.371  0.00  0.00    -0.153 OA
ATOM     15  O   UNL     1      33.824 -24.120 -19.159  0.00  0.00    -0.153 OA
ENDBRANCH   1  13
TORSDOF 2
ENDMDL
MODEL 3
REMARK VINA RESULT:      -7.3      3.495      5.920
REMARK  Name = 8481
REMARK  2 active torsions:
REMARK  status: ('A' for Active; 'I' for Inactive)
REMARK    1  A    between atoms: C_1  and  S_13
REMARK    2  A    between atoms: C_2  and  N_8
REMARK                            x       y       z     vdW  Elec       q    Type
REMARK                         _______ _______ _______ _____ _____    ______ ____
ROOT
ATOM      1  C   UNL     1      34.652 -19.474 -21.322  0.00  0.00    +0.122 C 
ATOM      2  C   UNL     1      33.543 -21.277 -19.505  0.00  0.00    +0.050 C 
ATOM      3  C   UNL     1      33.277 -19.471 -21.087  0.00  0.00    +0.021 C 
ATOM      4  C   UNL     1      35.472 -20.380 -20.650  0.00  0.00    +0.021 C 
ATOM      5  C   UNL     1      32.723 -20.372 -20.178  0.00  0.00    +0.016 C 
ATOM      6  C   UNL     1      34.918 -21.281 -19.741  0.00  0.00    +0.016 C 
ENDROOT
BRANCH   2   8
ATOM      7  O   UNL     1      34.831 -22.873 -17.300  0.00  0.00    -0.275 OA
ATOM      8  N   UNL     1      32.988 -22.180 -18.597  0.00  0.00    -0.284 N 
ATOM      9  C   UNL     1      33.639 -22.900 -17.586  0.00  0.00    +0.227 C 
ATOM     10  C   UNL     1      32.679 -23.774 -16.817  0.00  0.00    +0.095 C 
ATOM     11  H   UNL     1      32.018 -22.329 -18.676  0.00  0.00    +0.155 HD
ENDBRANCH   2   8
BRANCH   1  13
ATOM     12 CL   UNL     1      34.839 -19.172 -24.263  0.00  0.00    +0.060 Cl
ATOM     13  S   UNL     1      35.346 -18.345 -22.460  0.00  0.00    +0.081 S 
ATOM     14  O   UNL     1      36.793 -18.416 -22.376  0.00  0.00    -0.153 OA
ATOM     15  O   UNL     1      34.631 -17.084 -22.409  0.00  0.00    -0.153 OA
ENDBRANCH   1  13
TORSDOF 2
ENDMDL
MODEL 4
REMARK VINA RESULT:      -7.2      3.944      4.992
REMARK  Name = 8481
REMARK  2 active torsions:
REMARK  status: ('A' for Active; 'I' for Inactive)
REMARK    1  A    between atoms: C_1  and  S_13
REMARK    2  A    between atoms: C_2  and  N_8
REMARK                            x       y       z     vdW  Elec       q    Type
REMARK                         _______ _______ _______ _____ _____    ______ ____
ROOT
ATOM      1  C   UNL     1      34.729 -17.277 -22.062  0.00  0.00    +0.122 C 
ATOM      2  C   UNL     1      34.417 -14.628 -22.878  0.00  0.00    +0.050 C 
ATOM      3  C   UNL     1      34.727 -16.961 -23.420  0.00  0.00    +0.021 C 
ATOM      4  C   UNL     1      34.573 -16.268 -21.111  0.00  0.00    +0.021 C 
ATOM      5  C   UNL     1      34.572 -15.637 -23.829  0.00  0.00    +0.016 C 
ATOM      6  C   UNL     1      34.418 -14.943 -21.520  0.00  0.00    +0.016 C 
ENDROOT
BRANCH   2   8
ATOM      7  O   UNL     1      31.998 -12.836 -22.818  0.00  0.00    -0.275 OA
ATOM      8  N   UNL     1      34.261 -13.303 -23.287  0.00  0.00    -0.284 N 
ATOM      9  C   UNL     1      33.104 -12.513 -23.238  0.00  0.00    +0.227 C 
ATOM     10  C   UNL     1      33.350 -11.127 -23.779  0.00  0.00    +0.095 C 
ATOM     11  H   UNL     1      35.063 -12.868 -23.657  0.00  0.00    +0.155 HD
ENDBRANCH   2   8
BRANCH   1  13
ATOM     12 CL   UNL     1      33.105 -19.352 -20.707  0.00  0.00    +0.060 Cl
ATOM     13  S   UNL     1      34.924 -18.935 -21.550  0.00  0.00    +0.081 S 
ATOM     14  O   UNL     1      35.891 -18.989 -20.470  0.00  0.00    -0.153 OA
ATOM     15  O   UNL     1      35.011 -19.807 -22.707  0.00  0.00    -0.153 OA
ENDBRANCH   1  13
TORSDOF 2
ENDMDL
MODEL 5
REMARK VINA RESULT:      -7.2      4.826      7.294
REMARK  Name = 8481
REMARK  2 active torsions:
REMARK  status: ('A' for Active; 'I' for Inactive)
REMARK    1  A    between atoms: C_1  and  S_13
REMARK    2  A    between atoms: C_2  and  N_8
REMARK                            x       y       z     vdW  Elec       q    Type
REMARK                         _______ _______ _______ _____ _____    ______ ____
ROOT
ATOM      1  C   UNL     1      34.010 -14.934 -22.796  0.00  0.00    +0.122 C 
ATOM      2  C   UNL     1      35.206 -17.138 -21.575  0.00  0.00    +0.050 C 
ATOM      3  C   UNL     1      34.055 -15.021 -21.404  0.00  0.00    +0.021 C 
ATOM      4  C   UNL     1      34.561 -15.950 -23.577  0.00  0.00    +0.021 C 
ATOM      5  C   UNL     1      34.654 -16.123 -20.794  0.00  0.00    +0.016 C 
ATOM      6  C   UNL     1      35.160 -17.052 -22.966  0.00  0.00    +0.016 C 
ENDROOT
BRANCH   2   8
ATOM      7  O   UNL     1      34.260 -19.986 -21.324  0.00  0.00    -0.275 OA
ATOM      8  N   UNL     1      35.804 -18.241 -20.964  0.00  0.00    -0.284 N 
ATOM      9  C   UNL     1      35.315 -19.551 -20.874  0.00  0.00    +0.227 C 
ATOM     10  C   UNL     1      36.267 -20.453 -20.128  0.00  0.00    +0.095 C 
ATOM     11  H   UNL     1      36.679 -18.079 -20.542  0.00  0.00    +0.155 HD
ENDBRANCH   2   8
BRANCH   1  13
ATOM     12 CL   UNL     1      32.751 -14.294 -25.400  0.00  0.00    +0.060 Cl
ATOM     13  S   UNL     1      33.260 -13.554 -23.560  0.00  0.00    +0.081 S 
ATOM     14  O   UNL     1      34.268 -12.538 -23.800  0.00  0.00    -0.153 OA
ATOM     15  O   UNL     1      31.997 -13.250 -22.913  0.00  0.00    -0.153 OA
ENDBRANCH   1  13
TORSDOF 2
ENDMDL
MODEL 6
REMARK VINA RESULT:      -6.9      5.245      7.390
REMARK  Name = 8481
REMARK  2 active torsions:
REMARK  status: ('A' for Active; 'I' for Inactive)
REMARK    1  A    between atoms: C_1  and  S_13
REMARK    2  A    between atoms: C_2  and  N_8
REMARK                            x       y       z     vdW  Elec       q    Type
REMARK                         _______ _______ _______ _____ _____    ______ ____
ROOT
ATOM      1  C   UNL     1      34.685 -22.748 -17.388  0.00  0.00    +0.122 C 
ATOM      2  C   UNL     1      36.044 -23.051 -14.971  0.00  0.00    +0.050 C 
ATOM      3  C   UNL     1      34.073 -23.406 -16.322  0.00  0.00    +0.021 C 
ATOM      4  C   UNL     1      35.977 -22.243 -17.247  0.00  0.00    +0.021 C 
ATOM      5  C   UNL     1      34.752 -23.557 -15.113  0.00  0.00    +0.016 C 
ATOM      6  C   UNL     1      36.656 -22.394 -16.038  0.00  0.00    +0.016 C 
ENDROOT
BRANCH   2   8
ATOM      7  O   UNL     1      37.984 -25.171 -14.072  0.00  0.00    -0.275 OA
ATOM      8  N   UNL     1      36.724 -23.203 -13.762  0.00  0.00    -0.284 N 
ATOM      9  C   UNL     1      37.619 -24.216 -13.394  0.00  0.00    +0.227 C 
ATOM     10  C   UNL     1      38.140 -24.019 -11.993  0.00  0.00    +0.095 C 
ATOM     11  H   UNL     1      36.553 -22.512 -13.082  0.00  0.00    +0.155 HD
ENDBRANCH   2   8
BRANCH   1  13
ATOM     12 CL   UNL     1      34.857 -21.025 -19.792  0.00  0.00    +0.060 Cl
ATOM     13  S   UNL     1      33.834 -22.559 -18.902  0.00  0.00    +0.081 S 
ATOM     14  O   UNL     1      32.500 -22.054 -18.638  0.00  0.00    -0.153 OA
ATOM     15  O   UNL     1      34.068 -23.711 -19.753  0.00  0.00    -0.153 OA
ENDBRANCH   1  13
TORSDOF 2
ENDMDL
MODEL 7
REMARK VINA RESULT:      -6.9      5.986      7.066
REMARK  Name = 8481
REMARK  2 active torsions:
REMARK  status: ('A' for Active; 'I' for Inactive)
REMARK    1  A    between atoms: C_1  and  S_13
REMARK    2  A    between atoms: C_2  and  N_8
REMARK                            x       y       z     vdW  Elec       q    Type
REMARK                         _______ _______ _______ _____ _____    ______ ____
ROOT
ATOM      1  C   UNL     1      34.003 -23.471 -15.628  0.00  0.00    +0.122 C 
ATOM      2  C   UNL     1      31.382 -22.900 -16.392  0.00  0.00    +0.050 C 
ATOM      3  C   UNL     1      33.695 -23.280 -16.974  0.00  0.00    +0.021 C 
ATOM      4  C   UNL     1      33.000 -23.378 -14.663  0.00  0.00    +0.021 C 
ATOM      5  C   UNL     1      32.385 -22.994 -17.357  0.00  0.00    +0.016 C 
ATOM      6  C   UNL     1      31.689 -23.092 -15.045  0.00  0.00    +0.016 C 
ENDROOT
BRANCH   2   8
ATOM      7  O   UNL     1      28.879 -24.562 -16.187  0.00  0.00    -0.275 OA
ATOM      8  N   UNL     1      30.070 -22.614 -16.775  0.00  0.00    -0.284 N 
ATOM      9  C   UNL     1      28.938 -23.431 -16.657  0.00  0.00    +0.227 C 
ATOM     10  C   UNL     1      27.701 -22.752 -17.192  0.00  0.00    +0.095 C 
ATOM     11  H   UNL     1      29.923 -21.728 -17.178  0.00  0.00    +0.155 HD
ENDBRANCH   2   8
BRANCH   1  13
ATOM     12 CL   UNL     1      36.735 -22.588 -16.358  0.00  0.00    +0.060 Cl
ATOM     13  S   UNL     1      35.644 -23.829 -15.149  0.00  0.00    +0.081 S 
ATOM     14  O   UNL     1      35.974 -25.182 -15.557  0.00  0.00    -0.153 OA
ATOM     15  O   UNL     1      35.886 -23.350 -13.801  0.00  0.00    -0.153 OA
ENDBRANCH   1  13
TORSDOF 2
ENDMDL
MODEL 8
REMARK VINA RESULT:      -6.9      7.679      8.868
REMARK  Name = 8481
REMARK  2 active torsions:
REMARK  status: ('A' for Active; 'I' for Inactive)
REMARK    1  A    between atoms: C_1  and  S_13
REMARK    2  A    between atoms: C_2  and  N_8
REMARK                            x       y       z     vdW  Elec       q    Type
REMARK                         _______ _______ _______ _____ _____    ______ ____
ROOT
ATOM      1  C   UNL     1      33.977 -24.296 -13.984  0.00  0.00    +0.122 C 
ATOM      2  C   UNL     1      36.752 -24.567 -14.065  0.00  0.00    +0.050 C 
ATOM      3  C   UNL     1      34.642 -24.295 -15.210  0.00  0.00    +0.021 C 
ATOM      4  C   UNL     1      34.700 -24.430 -12.798  0.00  0.00    +0.021 C 
ATOM      5  C   UNL     1      36.030 -24.431 -15.251  0.00  0.00    +0.016 C 
ATOM      6  C   UNL     1      36.087 -24.566 -12.839  0.00  0.00    +0.016 C 
ENDROOT
BRANCH   2   8
ATOM      7  O   UNL     1      38.466 -26.974 -14.646  0.00  0.00    -0.275 OA
ATOM      8  N   UNL     1      38.141 -24.702 -14.106  0.00  0.00    -0.284 N 
ATOM      9  C   UNL     1      38.890 -25.854 -14.381  0.00  0.00    +0.227 C 
ATOM     10  C   UNL     1      40.373 -25.582 -14.327  0.00  0.00    +0.095 C 
ATOM     11  H   UNL     1      38.659 -23.886 -13.918  0.00  0.00    +0.155 HD
ENDBRANCH   2   8
BRANCH   1  13
ATOM     12 CL   UNL     1      31.839 -23.177 -15.703  0.00  0.00    +0.060 Cl
ATOM     13  S   UNL     1      32.240 -24.125 -13.933  0.00  0.00    +0.081 S 
ATOM     14  O   UNL     1      31.884 -23.189 -12.884  0.00  0.00    -0.153 OA
ATOM     15  O   UNL     1      31.608 -25.426 -14.051  0.00  0.00    -0.153 OA
ENDBRANCH   1  13
TORSDOF 2
ENDMDL
MODEL 9
REMARK VINA RESULT:      -6.8      2.651      3.384
REMARK  Name = 8481
REMARK  2 active torsions:
REMARK  status: ('A' for Active; 'I' for Inactive)
REMARK    1  A    between atoms: C_1  and  S_13
REMARK    2  A    between atoms: C_2  and  N_8
REMARK                            x       y       z     vdW  Elec       q    Type
REMARK                         _______ _______ _______ _____ _____    ______ ____
ROOT
ATOM      1  C   UNL     1      35.514 -22.397 -17.458  0.00  0.00    +0.122 C 
ATOM      2  C   UNL     1      35.290 -21.100 -19.918  0.00  0.00    +0.050 C 
ATOM      3  C   UNL     1      34.295 -22.390 -18.134  0.00  0.00    +0.021 C 
ATOM      4  C   UNL     1      36.622 -21.754 -18.012  0.00  0.00    +0.021 C 
ATOM      5  C   UNL     1      34.182 -21.742 -19.364  0.00  0.00    +0.016 C 
ATOM      6  C   UNL     1      36.509 -21.106 -19.241  0.00  0.00    +0.016 C 
ENDROOT
BRANCH   2   8
ATOM      7  O   UNL     1      35.572 -18.187 -20.625  0.00  0.00    -0.275 OA
ATOM      8  N   UNL     1      35.176 -20.451 -21.148  0.00  0.00    -0.284 N 
ATOM      9  C   UNL     1      35.317 -19.084 -21.421  0.00  0.00    +0.227 C 
ATOM     10  C   UNL     1      35.117 -18.783 -22.885  0.00  0.00    +0.095 C 
ATOM     11  H   UNL     1      34.972 -21.026 -21.921  0.00  0.00    +0.155 HD
ENDBRANCH   2   8
BRANCH   1  13
ATOM     12 CL   UNL     1      37.679 -23.199 -15.600  0.00  0.00    +0.060 Cl
ATOM     13  S   UNL     1      35.656 -23.208 -15.918  0.00  0.00    +0.081 S 
ATOM     14  O   UNL     1      35.280 -24.600 -16.078  0.00  0.00    -0.153 OA
ATOM     15  O   UNL     1      35.105 -22.377 -14.864  0.00  0.00    -0.153 OA
ENDBRANCH   1  13
TORSDOF 2
ENDMDL
