MODEL 1
REMARK VINA RESULT:      -6.5      0.000      0.000
REMARK  Name = 447086
REMARK  0 active torsions:
REMARK  status: ('A' for Active; 'I' for Inactive)
REMARK                            x       y       z     vdW  Elec       q    Type
REMARK                         _______ _______ _______ _____ _____    ______ ____
ROOT
ATOM      1 BR   UNL     1      35.684 -20.513 -20.407  0.00  0.00    +0.004 Br
ATOM      2 CL   UNL     1      34.671 -15.227 -20.626  0.00  0.00    -0.085 Cl
ATOM      3  N   UNL     1      35.133 -17.784 -20.817  0.00  0.00    -0.286 N 
ATOM      4  N   UNL     1      35.201 -19.169 -22.761  0.00  0.00    -0.328 NA
ATOM      5  N   UNL     1      34.467 -15.836 -23.859  0.00  0.00    -0.234 NA
ATOM      6  N   UNL     1      34.769 -17.930 -24.779  0.00  0.00    -0.182 NA
ATOM      7  C   UNL     1      34.734 -16.729 -22.865  0.00  0.00    +0.162 C 
ATOM      8  C   UNL     1      34.918 -18.043 -23.492  0.00  0.00    +0.103 C 
ATOM      9  C   UNL     1      34.849 -16.654 -21.540  0.00  0.00    +0.204 C 
ATOM     10  C   UNL     1      35.294 -18.987 -21.472  0.00  0.00    +0.227 C 
ATOM     11  C   UNL     1      34.499 -16.574 -24.936  0.00  0.00    +0.262 C 
ATOM     12  H   UNL     1      35.220 -17.737 -19.837  0.00  0.00    +0.151 HD
ENDROOT
TORSDOF 0
ENDMDL
MODEL 2
REMARK VINA RESULT:      -6.4      1.851      2.799
REMARK  Name = 447086
REMARK  0 active torsions:
REMARK  status: ('A' for Active; 'I' for Inactive)
REMARK                            x       y       z     vdW  Elec       q    Type
REMARK                         _______ _______ _______ _____ _____    ______ ____
ROOT
ATOM      1 BR   UNL     1      35.743 -20.534 -20.493  0.00  0.00    +0.004 Br
ATOM      2 CL   UNL     1      34.671 -17.885 -25.058  0.00  0.00    -0.085 Cl
ATOM      3  N   UNL     1      35.161 -18.904 -22.711  0.00  0.00    -0.286 N 
ATOM      4  N   UNL     1      35.254 -17.826 -20.583  0.00  0.00    -0.328 NA
ATOM      5  N   UNL     1      34.488 -15.305 -23.015  0.00  0.00    -0.234 NA
ATOM      6  N   UNL     1      34.819 -15.464 -20.737  0.00  0.00    -0.182 NA
ATOM      7  C   UNL     1      34.758 -16.601 -22.689  0.00  0.00    +0.162 C 
ATOM      8  C   UNL     1      34.962 -16.655 -21.236  0.00  0.00    +0.103 C 
ATOM      9  C   UNL     1      34.868 -17.739 -23.372  0.00  0.00    +0.204 C 
ATOM     10  C   UNL     1      35.339 -18.882 -21.343  0.00  0.00    +0.227 C 
ATOM     11  C   UNL     1      34.535 -14.695 -21.861  0.00  0.00    +0.262 C 
ATOM     12  H   UNL     1      35.244 -19.750 -23.209  0.00  0.00    +0.151 HD
ENDROOT
TORSDOF 0
ENDMDL
MODEL 3
REMARK VINA RESULT:      -6.3      3.020      3.984
REMARK  Name = 447086
REMARK  0 active torsions:
REMARK  status: ('A' for Active; 'I' for Inactive)
REMARK                            x       y       z     vdW  Elec       q    Type
REMARK                         _______ _______ _______ _____ _____    ______ ____
ROOT
ATOM      1 BR   UNL     1      34.556 -15.310 -20.632  0.00  0.00    +0.004 Br
ATOM      2 CL   UNL     1      34.616 -18.345 -25.081  0.00  0.00    -0.085 Cl
ATOM      3  N   UNL     1      34.484 -16.657 -23.101  0.00  0.00    -0.286 N 
ATOM      4  N   UNL     1      33.776 -14.376 -23.102  0.00  0.00    -0.328 NA
ATOM      5  N   UNL     1      33.483 -15.578 -26.467  0.00  0.00    -0.234 NA
ATOM      6  N   UNL     1      33.111 -13.628 -25.290  0.00  0.00    -0.182 NA
ATOM      7  C   UNL     1      33.802 -15.775 -25.157  0.00  0.00    +0.162 C 
ATOM      8  C   UNL     1      33.553 -14.515 -24.448  0.00  0.00    +0.103 C 
ATOM      9  C   UNL     1      34.263 -16.803 -24.447  0.00  0.00    +0.204 C 
ATOM     10  C   UNL     1      34.226 -15.443 -22.500  0.00  0.00    +0.227 C 
ATOM     11  C   UNL     1      33.093 -14.332 -26.491  0.00  0.00    +0.262 C 
ATOM     12  H   UNL     1      34.823 -17.412 -22.569  0.00  0.00    +0.151 HD
ENDROOT
TORSDOF 0
ENDMDL
MODEL 4
REMARK VINA RESULT:      -6.2      2.088      2.651
REMARK  Name = 447086
REMARK  0 active torsions:
REMARK  status: ('A' for Active; 'I' for Inactive)
REMARK                            x       y       z     vdW  Elec       q    Type
REMARK                         _______ _______ _______ _____ _____    ______ ____
ROOT
ATOM      1 BR   UNL     1      35.753 -18.437 -22.302  0.00  0.00    +0.004 Br
ATOM      2 CL   UNL     1      32.954 -13.864 -21.780  0.00  0.00    -0.085 Cl
ATOM      3  N   UNL     1      34.266 -16.048 -22.326  0.00  0.00    -0.286 N 
ATOM      4  N   UNL     1      34.709 -17.058 -24.444  0.00  0.00    -0.328 NA
ATOM      5  N   UNL     1      32.805 -14.085 -25.066  0.00  0.00    -0.234 NA
ATOM      6  N   UNL     1      33.768 -15.802 -26.269  0.00  0.00    -0.182 NA
ATOM      7  C   UNL     1      33.418 -14.947 -24.206  0.00  0.00    +0.162 C 
ATOM      8  C   UNL     1      34.014 -16.020 -25.011  0.00  0.00    +0.103 C 
ATOM      9  C   UNL     1      33.570 -15.007 -22.885  0.00  0.00    +0.204 C 
ATOM     10  C   UNL     1      34.801 -17.022 -23.143  0.00  0.00    +0.227 C 
ATOM     11  C   UNL     1      33.034 -14.620 -26.235  0.00  0.00    +0.262 C 
ATOM     12  H   UNL     1      34.384 -16.099 -21.350  0.00  0.00    +0.151 HD
ENDROOT
TORSDOF 0
ENDMDL
MODEL 5
REMARK VINA RESULT:      -6.2      2.658      3.686
REMARK  Name = 447086
REMARK  0 active torsions:
REMARK  status: ('A' for Active; 'I' for Inactive)
REMARK                            x       y       z     vdW  Elec       q    Type
REMARK                         _______ _______ _______ _____ _____    ______ ____
ROOT
ATOM      1 BR   UNL     1      33.295 -14.978 -25.824  0.00  0.00    +0.004 Br
ATOM      2 CL   UNL     1      33.200 -14.955 -20.439  0.00  0.00    -0.085 Cl
ATOM      3  N   UNL     1      33.432 -15.198 -23.022  0.00  0.00    -0.286 N 
ATOM      4  N   UNL     1      34.716 -16.765 -24.286  0.00  0.00    -0.328 NA
ATOM      5  N   UNL     1      35.260 -17.500 -20.819  0.00  0.00    -0.234 NA
ATOM      6  N   UNL     1      35.931 -18.294 -22.879  0.00  0.00    -0.182 NA
ATOM      7  C   UNL     1      34.673 -16.757 -21.800  0.00  0.00    +0.162 C 
ATOM      8  C   UNL     1      35.127 -17.295 -23.088  0.00  0.00    +0.103 C 
ATOM      9  C   UNL     1      33.837 -15.721 -21.821  0.00  0.00    +0.204 C 
ATOM     10  C   UNL     1      33.897 -15.754 -24.196  0.00  0.00    +0.227 C 
ATOM     11  C   UNL     1      35.971 -18.366 -21.490  0.00  0.00    +0.262 C 
ATOM     12  H   UNL     1      32.814 -14.432 -23.047  0.00  0.00    +0.151 HD
ENDROOT
TORSDOF 0
ENDMDL
MODEL 6
REMARK VINA RESULT:      -6.2      3.191      4.142
REMARK  Name = 447086
REMARK  0 active torsions:
REMARK  status: ('A' for Active; 'I' for Inactive)
REMARK                            x       y       z     vdW  Elec       q    Type
REMARK                         _______ _______ _______ _____ _____    ______ ____
ROOT
ATOM      1 BR   UNL     1      33.015 -13.879 -26.744  0.00  0.00    +0.004 Br
ATOM      2 CL   UNL     1      34.461 -14.907 -21.658  0.00  0.00    -0.085 Cl
ATOM      3  N   UNL     1      33.827 -14.695 -24.176  0.00  0.00    -0.286 N 
ATOM      4  N   UNL     1      33.897 -16.347 -25.900  0.00  0.00    -0.328 NA
ATOM      5  N   UNL     1      35.025 -17.917 -22.880  0.00  0.00    -0.234 NA
ATOM      6  N   UNL     1      34.678 -18.475 -25.091  0.00  0.00    -0.182 NA
ATOM      7  C   UNL     1      34.564 -16.824 -23.553  0.00  0.00    +0.162 C 
ATOM      8  C   UNL     1      34.359 -17.223 -24.950  0.00  0.00    +0.103 C 
ATOM      9  C   UNL     1      34.288 -15.564 -23.222  0.00  0.00    +0.204 C 
ATOM     10  C   UNL     1      33.656 -15.138 -25.472  0.00  0.00    +0.227 C 
ATOM     11  C   UNL     1      35.072 -18.835 -23.807  0.00  0.00    +0.262 C 
ATOM     12  H   UNL     1      33.620 -13.762 -23.940  0.00  0.00    +0.151 HD
ENDROOT
TORSDOF 0
ENDMDL
MODEL 7
REMARK VINA RESULT:      -6.1      3.028      4.172
REMARK  Name = 447086
REMARK  0 active torsions:
REMARK  status: ('A' for Active; 'I' for Inactive)
REMARK                            x       y       z     vdW  Elec       q    Type
REMARK                         _______ _______ _______ _____ _____    ______ ____
ROOT
ATOM      1 BR   UNL     1      32.454 -13.590 -21.812  0.00  0.00    +0.004 Br
ATOM      2 CL   UNL     1      34.740 -16.789 -25.493  0.00  0.00    -0.085 Cl
ATOM      3  N   UNL     1      33.765 -15.414 -23.507  0.00  0.00    -0.286 N 
ATOM      4  N   UNL     1      34.040 -15.743 -21.158  0.00  0.00    -0.328 NA
ATOM      5  N   UNL     1      35.902 -18.321 -22.815  0.00  0.00    -0.234 NA
ATOM      6  N   UNL     1      35.436 -17.640 -20.660  0.00  0.00    -0.182 NA
ATOM      7  C   UNL     1      35.098 -17.221 -22.855  0.00  0.00    +0.162 C 
ATOM      8  C   UNL     1      34.827 -16.824 -21.468  0.00  0.00    +0.103 C 
ATOM      9  C   UNL     1      34.549 -16.493 -23.826  0.00  0.00    +0.204 C 
ATOM     10  C   UNL     1      33.553 -15.097 -22.181  0.00  0.00    +0.227 C 
ATOM     11  C   UNL     1      36.066 -18.520 -21.535  0.00  0.00    +0.262 C 
ATOM     12  H   UNL     1      33.356 -14.870 -24.219  0.00  0.00    +0.151 HD
ENDROOT
TORSDOF 0
ENDMDL
MODEL 8
REMARK VINA RESULT:      -6.1      3.161      3.898
REMARK  Name = 447086
REMARK  0 active torsions:
REMARK  status: ('A' for Active; 'I' for Inactive)
REMARK                            x       y       z     vdW  Elec       q    Type
REMARK                         _______ _______ _______ _____ _____    ______ ____
ROOT
ATOM      1 BR   UNL     1      33.555 -12.399 -23.816  0.00  0.00    +0.004 Br
ATOM      2 CL   UNL     1      35.027 -16.612 -20.800  0.00  0.00    -0.085 Cl
ATOM      3  N   UNL     1      34.303 -14.764 -22.488  0.00  0.00    -0.286 N 
ATOM      4  N   UNL     1      33.843 -14.945 -24.825  0.00  0.00    -0.328 NA
ATOM      5  N   UNL     1      34.737 -18.218 -23.664  0.00  0.00    -0.234 NA
ATOM      6  N   UNL     1      34.116 -17.195 -25.637  0.00  0.00    -0.182 NA
ATOM      7  C   UNL     1      34.522 -16.891 -23.434  0.00  0.00    +0.162 C 
ATOM      8  C   UNL     1      34.132 -16.282 -24.711  0.00  0.00    +0.103 C 
ATOM      9  C   UNL     1      34.593 -16.099 -22.366  0.00  0.00    +0.204 C 
ATOM     10  C   UNL     1      33.942 -14.258 -23.720  0.00  0.00    +0.227 C 
ATOM     11  C   UNL     1      34.491 -18.340 -24.941  0.00  0.00    +0.262 C 
ATOM     12  H   UNL     1      34.352 -14.172 -21.703  0.00  0.00    +0.151 HD
ENDROOT
TORSDOF 0
ENDMDL
MODEL 9
REMARK VINA RESULT:      -6.1      3.385      4.645
REMARK  Name = 447086
REMARK  0 active torsions:
REMARK  status: ('A' for Active; 'I' for Inactive)
REMARK                            x       y       z     vdW  Elec       q    Type
REMARK                         _______ _______ _______ _____ _____    ______ ____
ROOT
ATOM      1 BR   UNL     1      33.020 -14.570 -26.363  0.00  0.00    +0.004 Br
ATOM      2 CL   UNL     1      35.315 -18.700 -23.778  0.00  0.00    -0.085 Cl
ATOM      3  N   UNL     1      34.200 -16.562 -24.765  0.00  0.00    -0.286 N 
ATOM      4  N   UNL     1      33.563 -14.541 -23.664  0.00  0.00    -0.328 NA
ATOM      5  N   UNL     1      34.993 -16.696 -21.180  0.00  0.00    -0.234 NA
ATOM      6  N   UNL     1      34.066 -14.587 -21.310  0.00  0.00    -0.182 NA
ATOM      7  C   UNL     1      34.623 -16.446 -22.468  0.00  0.00    +0.162 C 
ATOM      8  C   UNL     1      34.040 -15.100 -22.505  0.00  0.00    +0.103 C 
ATOM      9  C   UNL     1      34.679 -17.128 -23.611  0.00  0.00    +0.204 C 
ATOM     10  C   UNL     1      33.665 -15.291 -24.726  0.00  0.00    +0.227 C 
ATOM     11  C   UNL     1      34.652 -15.600 -20.558  0.00  0.00    +0.262 C 
ATOM     12  H   UNL     1      34.238 -17.059 -25.614  0.00  0.00    +0.151 HD
ENDROOT
TORSDOF 0
ENDMDL
