MODEL 1
REMARK VINA RESULT:      -9.4      0.000      0.000
REMARK  Name = 5161
REMARK  6 active torsions:
REMARK  status: ('A' for Active; 'I' for Inactive)
REMARK    1  A    between atoms: O_1  and  C_2
REMARK    2  A    between atoms: O_1  and  C_13
REMARK    3  A    between atoms: C_3  and  C_9
REMARK    4  A    between atoms: C_9  and  O_10
REMARK    5  A    between atoms: C_13  and  C_14
REMARK    6  A    between atoms: C_15  and  O_20
REMARK                            x       y       z     vdW  Elec       q    Type
REMARK                         _______ _______ _______ _____ _____    ______ ____
ROOT
ATOM      1  O   UNL     1      34.805 -18.626 -22.409  0.00  0.00    -0.421 OA
ENDROOT
BRANCH   1   2
ATOM      2  C   UNL     1      34.666 -17.237 -22.368  0.00  0.00    +0.155 C 
ATOM      3  C   UNL     1      34.567 -16.528 -23.545  0.00  0.00    +0.110 C 
ATOM      4  C   UNL     1      34.631 -16.628 -21.133  0.00  0.00    +0.038 C 
ATOM      5  C   UNL     1      34.427 -15.141 -23.484  0.00  0.00    +0.010 C 
ATOM      6  C   UNL     1      34.491 -15.242 -21.072  0.00  0.00    +0.003 C 
ATOM      7  C   UNL     1      34.390 -14.498 -22.248  0.00  0.00    +0.000 C 
BRANCH   3   9
ATOM      8  O   UNL     1      34.989 -16.658 -25.896  0.00  0.00    -0.245 OA
ATOM      9  C   UNL     1      34.601 -17.180 -24.848  0.00  0.00    +0.341 C 
BRANCH   9  10
ATOM     10  O   UNL     1      34.151 -18.462 -24.798  0.00  0.00    -0.477 OA
ATOM     11  H   UNL     1      33.976 -18.929 -25.592  0.00  0.00    +0.295 HD
ENDBRANCH   9  10
ENDBRANCH   3   9
ENDBRANCH   1   2
BRANCH   1  13
ATOM     12  O   UNL     1      36.805 -18.815 -21.225  0.00  0.00    -0.244 OA
ATOM     13  C   UNL     1      35.626 -19.144 -21.410  0.00  0.00    +0.349 C 
BRANCH  13  14
ATOM     14  C   UNL     1      34.912 -20.121 -20.601  0.00  0.00    +0.110 C 
ATOM     15  C   UNL     1      35.598 -21.127 -19.921  0.00  0.00    +0.140 C 
ATOM     16  C   UNL     1      33.521 -20.043 -20.513  0.00  0.00    +0.010 C 
ATOM     17  C   UNL     1      34.894 -22.055 -19.153  0.00  0.00    +0.037 C 
ATOM     18  C   UNL     1      32.818 -20.970 -19.745  0.00  0.00    +0.000 C 
ATOM     19  C   UNL     1      33.504 -21.976 -19.064  0.00  0.00    +0.003 C 
BRANCH  15  20
ATOM     20  O   UNL     1      36.956 -21.222 -19.996  0.00  0.00    -0.505 OA
ATOM     21  H   UNL     1      37.460 -21.354 -19.216  0.00  0.00    +0.292 HD
ENDBRANCH  15  20
ENDBRANCH  13  14
ENDBRANCH   1  13
TORSDOF 6
ENDMDL
MODEL 2
REMARK VINA RESULT:      -9.3      4.219      6.082
REMARK  Name = 5161
REMARK  6 active torsions:
REMARK  status: ('A' for Active; 'I' for Inactive)
REMARK    1  A    between atoms: O_1  and  C_2
REMARK    2  A    between atoms: O_1  and  C_13
REMARK    3  A    between atoms: C_3  and  C_9
REMARK    4  A    between atoms: C_9  and  O_10
REMARK    5  A    between atoms: C_13  and  C_14
REMARK    6  A    between atoms: C_15  and  O_20
REMARK                            x       y       z     vdW  Elec       q    Type
REMARK                         _______ _______ _______ _____ _____    ______ ____
ROOT
ATOM      1  O   UNL     1      36.141 -22.412 -18.504  0.00  0.00    -0.421 OA
ENDROOT
BRANCH   1   2
ATOM      2  C   UNL     1      35.491 -21.492 -19.330  0.00  0.00    +0.155 C 
ATOM      3  C   UNL     1      34.121 -21.546 -19.463  0.00  0.00    +0.110 C 
ATOM      4  C   UNL     1      36.262 -20.557 -19.985  0.00  0.00    +0.038 C 
ATOM      5  C   UNL     1      33.490 -20.618 -20.292  0.00  0.00    +0.010 C 
ATOM      6  C   UNL     1      35.631 -19.629 -20.814  0.00  0.00    +0.003 C 
ATOM      7  C   UNL     1      34.245 -19.660 -20.968  0.00  0.00    +0.000 C 
BRANCH   3   9
ATOM      8  O   UNL     1      32.291 -22.294 -18.116  0.00  0.00    -0.245 OA
ATOM      9  C   UNL     1      33.313 -22.536 -18.765  0.00  0.00    +0.341 C 
BRANCH   9  10
ATOM     10  O   UNL     1      33.806 -23.796 -18.898  0.00  0.00    -0.477 OA
ATOM     11  H   UNL     1      34.710 -23.926 -19.111  0.00  0.00    +0.295 HD
ENDBRANCH   9  10
ENDBRANCH   3   9
ENDBRANCH   1   2
BRANCH   1  13
ATOM     12  O   UNL     1      37.225 -20.786 -17.231  0.00  0.00    -0.244 OA
ATOM     13  C   UNL     1      36.626 -21.866 -17.317  0.00  0.00    +0.349 C 
BRANCH  13  14
ATOM     14  C   UNL     1      36.325 -22.730 -16.185  0.00  0.00    +0.110 C 
ATOM     15  C   UNL     1      37.337 -23.438 -15.535  0.00  0.00    +0.140 C 
ATOM     16  C   UNL     1      35.004 -22.846 -15.751  0.00  0.00    +0.010 C 
ATOM     17  C   UNL     1      37.027 -24.262 -14.454  0.00  0.00    +0.037 C 
ATOM     18  C   UNL     1      34.695 -23.670 -14.669  0.00  0.00    +0.000 C 
ATOM     19  C   UNL     1      35.706 -24.378 -14.020  0.00  0.00    +0.003 C 
BRANCH  15  20
ATOM     20  O   UNL     1      38.633 -23.340 -15.945  0.00  0.00    -0.505 OA
ATOM     21  H   UNL     1      38.908 -23.765 -16.734  0.00  0.00    +0.292 HD
ENDBRANCH  15  20
ENDBRANCH  13  14
ENDBRANCH   1  13
TORSDOF 6
ENDMDL
MODEL 3
REMARK VINA RESULT:      -9.2      3.602      7.974
REMARK  Name = 5161
REMARK  6 active torsions:
REMARK  status: ('A' for Active; 'I' for Inactive)
REMARK    1  A    between atoms: O_1  and  C_2
REMARK    2  A    between atoms: O_1  and  C_13
REMARK    3  A    between atoms: C_3  and  C_9
REMARK    4  A    between atoms: C_9  and  O_10
REMARK    5  A    between atoms: C_13  and  C_14
REMARK    6  A    between atoms: C_15  and  O_20
REMARK                            x       y       z     vdW  Elec       q    Type
REMARK                         _______ _______ _______ _____ _____    ______ ____
ROOT
ATOM      1  O   UNL     1      34.623 -22.731 -17.662  0.00  0.00    -0.421 OA
ENDROOT
BRANCH   1   2
ATOM      2  C   UNL     1      33.626 -23.063 -16.742  0.00  0.00    +0.155 C 
ATOM      3  C   UNL     1      33.978 -23.546 -15.501  0.00  0.00    +0.110 C 
ATOM      4  C   UNL     1      32.313 -22.889 -17.124  0.00  0.00    +0.038 C 
ATOM      5  C   UNL     1      32.967 -23.871 -14.596  0.00  0.00    +0.010 C 
ATOM      6  C   UNL     1      31.303 -23.214 -16.218  0.00  0.00    +0.003 C 
ATOM      7  C   UNL     1      31.630 -23.705 -14.955  0.00  0.00    +0.000 C 
BRANCH   3   9
ATOM      8  O   UNL     1      35.958 -23.054 -14.253  0.00  0.00    -0.245 OA
ATOM      9  C   UNL     1      35.368 -23.724 -15.105  0.00  0.00    +0.341 C 
BRANCH   9  10
ATOM     10  O   UNL     1      35.976 -24.732 -15.786  0.00  0.00    -0.477 OA
ATOM     11  H   UNL     1      36.620 -24.536 -16.439  0.00  0.00    +0.295 HD
ENDBRANCH   9  10
ENDBRANCH   3   9
ENDBRANCH   1   2
BRANCH   1  13
ATOM     12  O   UNL     1      33.914 -23.954 -19.517  0.00  0.00    -0.244 OA
ATOM     13  C   UNL     1      34.241 -22.881 -18.993  0.00  0.00    +0.349 C 
BRANCH  13  14
ATOM     14  C   UNL     1      34.267 -21.603 -19.691  0.00  0.00    +0.110 C 
ATOM     15  C   UNL     1      35.477 -20.979 -19.999  0.00  0.00    +0.140 C 
ATOM     16  C   UNL     1      33.061 -21.001 -20.050  0.00  0.00    +0.010 C 
ATOM     17  C   UNL     1      35.479 -19.754 -20.665  0.00  0.00    +0.037 C 
ATOM     18  C   UNL     1      33.064 -19.777 -20.717  0.00  0.00    +0.000 C 
ATOM     19  C   UNL     1      34.273 -19.152 -21.024  0.00  0.00    +0.003 C 
BRANCH  15  20
ATOM     20  O   UNL     1      36.666 -21.549 -19.654  0.00  0.00    -0.505 OA
ATOM     21  H   UNL     1      37.431 -21.385 -20.170  0.00  0.00    +0.292 HD
ENDBRANCH  15  20
ENDBRANCH  13  14
ENDBRANCH   1  13
TORSDOF 6
ENDMDL
MODEL 4
REMARK VINA RESULT:      -9.2      1.544      5.794
REMARK  Name = 5161
REMARK  6 active torsions:
REMARK  status: ('A' for Active; 'I' for Inactive)
REMARK    1  A    between atoms: O_1  and  C_2
REMARK    2  A    between atoms: O_1  and  C_13
REMARK    3  A    between atoms: C_3  and  C_9
REMARK    4  A    between atoms: C_9  and  O_10
REMARK    5  A    between atoms: C_13  and  C_14
REMARK    6  A    between atoms: C_15  and  O_20
REMARK                            x       y       z     vdW  Elec       q    Type
REMARK                         _______ _______ _______ _____ _____    ______ ____
ROOT
ATOM      1  O   UNL     1      34.248 -17.654 -21.998  0.00  0.00    -0.421 OA
ENDROOT
BRANCH   1   2
ATOM      2  C   UNL     1      34.311 -18.844 -21.270  0.00  0.00    +0.155 C 
ATOM      3  C   UNL     1      35.522 -19.482 -21.111  0.00  0.00    +0.110 C 
ATOM      4  C   UNL     1      33.141 -19.334 -20.733  0.00  0.00    +0.038 C 
ATOM      5  C   UNL     1      35.564 -20.670 -20.380  0.00  0.00    +0.010 C 
ATOM      6  C   UNL     1      33.183 -20.521 -20.002  0.00  0.00    +0.003 C 
ATOM      7  C   UNL     1      34.395 -21.189 -19.826  0.00  0.00    +0.000 C 
BRANCH   3   9
ATOM      8  O   UNL     1      37.872 -19.043 -21.163  0.00  0.00    -0.245 OA
ATOM      9  C   UNL     1      36.755 -18.956 -21.680  0.00  0.00    +0.341 C 
BRANCH   9  10
ATOM     10  O   UNL     1      36.553 -18.339 -22.875  0.00  0.00    -0.477 OA
ATOM     11  H   UNL     1      36.721 -17.421 -22.963  0.00  0.00    +0.295 HD
ENDBRANCH   9  10
ENDBRANCH   3   9
ENDBRANCH   1   2
BRANCH   1  13
ATOM     12  O   UNL     1      34.958 -16.476 -20.114  0.00  0.00    -0.244 OA
ATOM     13  C   UNL     1      34.414 -16.506 -21.226  0.00  0.00    +0.349 C 
BRANCH  13  14
ATOM     14  C   UNL     1      33.870 -15.338 -21.904  0.00  0.00    +0.110 C 
ATOM     15  C   UNL     1      34.372 -14.931 -23.141  0.00  0.00    +0.140 C 
ATOM     16  C   UNL     1      32.836 -14.623 -21.301  0.00  0.00    +0.010 C 
ATOM     17  C   UNL     1      33.838 -13.808 -23.774  0.00  0.00    +0.037 C 
ATOM     18  C   UNL     1      32.302 -13.501 -21.934  0.00  0.00    +0.000 C 
ATOM     19  C   UNL     1      32.804 -13.093 -23.170  0.00  0.00    +0.003 C 
BRANCH  15  20
ATOM     20  O   UNL     1      35.383 -15.615 -23.746  0.00  0.00    -0.505 OA
ATOM     21  H   UNL     1      36.122 -15.900 -23.243  0.00  0.00    +0.292 HD
ENDBRANCH  15  20
ENDBRANCH  13  14
ENDBRANCH   1  13
TORSDOF 6
ENDMDL
MODEL 5
REMARK VINA RESULT:      -9.1      1.286      1.904
REMARK  Name = 5161
REMARK  6 active torsions:
REMARK  status: ('A' for Active; 'I' for Inactive)
REMARK    1  A    between atoms: O_1  and  C_2
REMARK    2  A    between atoms: O_1  and  C_13
REMARK    3  A    between atoms: C_3  and  C_9
REMARK    4  A    between atoms: C_9  and  O_10
REMARK    5  A    between atoms: C_13  and  C_14
REMARK    6  A    between atoms: C_15  and  O_20
REMARK                            x       y       z     vdW  Elec       q    Type
REMARK                         _______ _______ _______ _____ _____    ______ ____
ROOT
ATOM      1  O   UNL     1      35.152 -18.743 -22.191  0.00  0.00    -0.421 OA
ENDROOT
BRANCH   1   2
ATOM      2  C   UNL     1      34.875 -17.373 -22.195  0.00  0.00    +0.155 C 
ATOM      3  C   UNL     1      34.629 -16.733 -23.389  0.00  0.00    +0.110 C 
ATOM      4  C   UNL     1      34.860 -16.715 -20.985  0.00  0.00    +0.038 C 
ATOM      5  C   UNL     1      34.353 -15.365 -23.373  0.00  0.00    +0.010 C 
ATOM      6  C   UNL     1      34.584 -15.348 -20.969  0.00  0.00    +0.003 C 
ATOM      7  C   UNL     1      34.331 -14.673 -22.163  0.00  0.00    +0.000 C 
BRANCH   3   9
ATOM      8  O   UNL     1      35.111 -16.994 -25.717  0.00  0.00    -0.245 OA
ATOM      9  C   UNL     1      34.645 -17.437 -24.664  0.00  0.00    +0.341 C 
BRANCH   9  10
ATOM     10  O   UNL     1      34.078 -18.670 -24.583  0.00  0.00    -0.477 OA
ATOM     11  H   UNL     1      34.033 -19.112 -23.757  0.00  0.00    +0.295 HD
ENDBRANCH   9  10
ENDBRANCH   3   9
ENDBRANCH   1   2
BRANCH   1  13
ATOM     12  O   UNL     1      32.988 -19.503 -21.768  0.00  0.00    -0.244 OA
ATOM     13  C   UNL     1      34.202 -19.512 -21.524  0.00  0.00    +0.349 C 
BRANCH  13  14
ATOM     14  C   UNL     1      34.826 -20.342 -20.503  0.00  0.00    +0.110 C 
ATOM     15  C   UNL     1      34.080 -21.277 -19.784  0.00  0.00    +0.140 C 
ATOM     16  C   UNL     1      36.189 -20.192 -20.246  0.00  0.00    +0.010 C 
ATOM     17  C   UNL     1      34.697 -22.060 -18.809  0.00  0.00    +0.037 C 
ATOM     18  C   UNL     1      36.806 -20.976 -19.272  0.00  0.00    +0.000 C 
ATOM     19  C   UNL     1      36.060 -21.910 -18.552  0.00  0.00    +0.003 C 
BRANCH  15  20
ATOM     20  O   UNL     1      32.747 -21.437 -20.018  0.00  0.00    -0.505 OA
ATOM     21  H   UNL     1      32.141 -20.776 -19.746  0.00  0.00    +0.292 HD
ENDBRANCH  15  20
ENDBRANCH  13  14
ENDBRANCH   1  13
TORSDOF 6
ENDMDL
MODEL 6
REMARK VINA RESULT:      -9.0      8.451     10.972
REMARK  Name = 5161
REMARK  6 active torsions:
REMARK  status: ('A' for Active; 'I' for Inactive)
REMARK    1  A    between atoms: O_1  and  C_2
REMARK    2  A    between atoms: O_1  and  C_13
REMARK    3  A    between atoms: C_3  and  C_9
REMARK    4  A    between atoms: C_9  and  O_10
REMARK    5  A    between atoms: C_13  and  C_14
REMARK    6  A    between atoms: C_15  and  O_20
REMARK                            x       y       z     vdW  Elec       q    Type
REMARK                         _______ _______ _______ _____ _____    ______ ____
ROOT
ATOM      1  O   UNL     1      35.673 -23.248 -13.897  0.00  0.00    -0.421 OA
ENDROOT
BRANCH   1   2
ATOM      2  C   UNL     1      36.762 -24.123 -13.868  0.00  0.00    +0.155 C 
ATOM      3  C   UNL     1      37.671 -24.044 -12.836  0.00  0.00    +0.110 C 
ATOM      4  C   UNL     1      36.878 -25.041 -14.888  0.00  0.00    +0.038 C 
ATOM      5  C   UNL     1      38.751 -24.927 -12.824  0.00  0.00    +0.010 C 
ATOM      6  C   UNL     1      37.958 -25.924 -14.876  0.00  0.00    +0.003 C 
ATOM      7  C   UNL     1      38.895 -25.867 -13.844  0.00  0.00    +0.000 C 
BRANCH   3   9
ATOM      8  O   UNL     1      37.038 -23.295 -10.655  0.00  0.00    -0.245 OA
ATOM      9  C   UNL     1      37.539 -23.071 -11.760  0.00  0.00    +0.341 C 
BRANCH   9  10
ATOM     10  O   UNL     1      38.038 -21.852 -12.098  0.00  0.00    -0.477 OA
ATOM     11  H   UNL     1      38.817 -21.533 -11.686  0.00  0.00    +0.295 HD
ENDBRANCH   9  10
ENDBRANCH   3   9
ENDBRANCH   1   2
BRANCH   1  13
ATOM     12  O   UNL     1      34.296 -24.512 -12.503  0.00  0.00    -0.244 OA
ATOM     13  C   UNL     1      34.465 -23.831 -13.523  0.00  0.00    +0.349 C 
BRANCH  13  14
ATOM     14  C   UNL     1      33.418 -23.526 -14.488  0.00  0.00    +0.110 C 
ATOM     15  C   UNL     1      32.143 -23.147 -14.065  0.00  0.00    +0.140 C 
ATOM     16  C   UNL     1      33.702 -23.618 -15.850  0.00  0.00    +0.010 C 
ATOM     17  C   UNL     1      31.154 -22.861 -15.005  0.00  0.00    +0.037 C 
ATOM     18  C   UNL     1      32.713 -23.331 -16.790  0.00  0.00    +0.000 C 
ATOM     19  C   UNL     1      31.438 -22.953 -16.368  0.00  0.00    +0.003 C 
BRANCH  15  20
ATOM     20  O   UNL     1      31.845 -23.053 -12.738  0.00  0.00    -0.505 OA
ATOM     21  H   UNL     1      32.400 -22.559 -12.168  0.00  0.00    +0.292 HD
ENDBRANCH  15  20
ENDBRANCH  13  14
ENDBRANCH   1  13
TORSDOF 6
ENDMDL
MODEL 7
REMARK VINA RESULT:      -8.9      1.583      2.496
REMARK  Name = 5161
REMARK  6 active torsions:
REMARK  status: ('A' for Active; 'I' for Inactive)
REMARK    1  A    between atoms: O_1  and  C_2
REMARK    2  A    between atoms: O_1  and  C_13
REMARK    3  A    between atoms: C_3  and  C_9
REMARK    4  A    between atoms: C_9  and  O_10
REMARK    5  A    between atoms: C_13  and  C_14
REMARK    6  A    between atoms: C_15  and  O_20
REMARK                            x       y       z     vdW  Elec       q    Type
REMARK                         _______ _______ _______ _____ _____    ______ ____
ROOT
ATOM      1  O   UNL     1      34.503 -17.779 -21.286  0.00  0.00    -0.421 OA
ENDROOT
BRANCH   1   2
ATOM      2  C   UNL     1      34.455 -17.249 -22.578  0.00  0.00    +0.155 C 
ATOM      3  C   UNL     1      34.202 -15.907 -22.755  0.00  0.00    +0.110 C 
ATOM      4  C   UNL     1      34.668 -18.107 -23.635  0.00  0.00    +0.038 C 
ATOM      5  C   UNL     1      34.158 -15.397 -24.052  0.00  0.00    +0.010 C 
ATOM      6  C   UNL     1      34.625 -17.597 -24.933  0.00  0.00    +0.003 C 
ATOM      7  C   UNL     1      34.370 -16.242 -25.141  0.00  0.00    +0.000 C 
BRANCH   3   9
ATOM      8  O   UNL     1      33.023 -14.237 -21.512  0.00  0.00    -0.245 OA
ATOM      9  C   UNL     1      33.980 -15.006 -21.632  0.00  0.00    +0.341 C 
BRANCH   9  10
ATOM     10  O   UNL     1      34.961 -15.095 -20.694  0.00  0.00    -0.477 OA
ATOM     11  H   UNL     1      35.596 -14.410 -20.613  0.00  0.00    +0.295 HD
ENDBRANCH   9  10
ENDBRANCH   3   9
ENDBRANCH   1   2
BRANCH   1  13
ATOM     12  O   UNL     1      36.659 -18.656 -21.432  0.00  0.00    -0.244 OA
ATOM     13  C   UNL     1      35.468 -18.769 -21.114  0.00  0.00    +0.349 C 
BRANCH  13  14
ATOM     14  C   UNL     1      34.893 -19.956 -20.498  0.00  0.00    +0.110 C 
ATOM     15  C   UNL     1      35.709 -20.939 -19.937  0.00  0.00    +0.140 C 
ATOM     16  C   UNL     1      33.506 -20.104 -20.474  0.00  0.00    +0.010 C 
ATOM     17  C   UNL     1      35.138 -22.069 -19.353  0.00  0.00    +0.037 C 
ATOM     18  C   UNL     1      32.935 -21.234 -19.890  0.00  0.00    +0.000 C 
ATOM     19  C   UNL     1      33.751 -22.218 -19.330  0.00  0.00    +0.003 C 
BRANCH  15  20
ATOM     20  O   UNL     1      37.066 -20.814 -19.951  0.00  0.00    -0.505 OA
ATOM     21  H   UNL     1      37.573 -21.133 -19.231  0.00  0.00    +0.292 HD
ENDBRANCH  15  20
ENDBRANCH  13  14
ENDBRANCH   1  13
TORSDOF 6
ENDMDL
MODEL 8
REMARK VINA RESULT:      -8.8      7.442     10.413
REMARK  Name = 5161
REMARK  6 active torsions:
REMARK  status: ('A' for Active; 'I' for Inactive)
REMARK    1  A    between atoms: O_1  and  C_2
REMARK    2  A    between atoms: O_1  and  C_13
REMARK    3  A    between atoms: C_3  and  C_9
REMARK    4  A    between atoms: C_9  and  O_10
REMARK    5  A    between atoms: C_13  and  C_14
REMARK    6  A    between atoms: C_15  and  O_20
REMARK                            x       y       z     vdW  Elec       q    Type
REMARK                         _______ _______ _______ _____ _____    ______ ____
ROOT
ATOM      1  O   UNL     1      35.206 -24.862 -14.475  0.00  0.00    -0.421 OA
ENDROOT
BRANCH   1   2
ATOM      2  C   UNL     1      36.256 -24.555 -13.606  0.00  0.00    +0.155 C 
ATOM      3  C   UNL     1      37.364 -25.373 -13.561  0.00  0.00    +0.110 C 
ATOM      4  C   UNL     1      36.135 -23.429 -12.822  0.00  0.00    +0.038 C 
ATOM      5  C   UNL     1      38.402 -25.048 -12.688  0.00  0.00    +0.010 C 
ATOM      6  C   UNL     1      37.174 -23.104 -11.949  0.00  0.00    +0.003 C 
ATOM      7  C   UNL     1      38.307 -23.915 -11.881  0.00  0.00    +0.000 C 
BRANCH   3   9
ATOM      8  O   UNL     1      38.513 -26.926 -14.971  0.00  0.00    -0.245 OA
ATOM      9  C   UNL     1      37.485 -26.560 -14.396  0.00  0.00    +0.341 C 
BRANCH   9  10
ATOM     10  O   UNL     1      36.318 -27.253 -14.484  0.00  0.00    -0.477 OA
ATOM     11  H   UNL     1      35.520 -26.804 -14.689  0.00  0.00    +0.295 HD
ENDBRANCH   9  10
ENDBRANCH   3   9
ENDBRANCH   1   2
BRANCH   1  13
ATOM     12  O   UNL     1      35.945 -23.499 -16.217  0.00  0.00    -0.244 OA
ATOM     13  C   UNL     1      35.033 -23.941 -15.505  0.00  0.00    +0.349 C 
BRANCH  13  14
ATOM     14  C   UNL     1      33.631 -23.572 -15.645  0.00  0.00    +0.110 C 
ATOM     15  C   UNL     1      33.083 -23.304 -16.900  0.00  0.00    +0.140 C 
ATOM     16  C   UNL     1      32.835 -23.488 -14.503  0.00  0.00    +0.010 C 
ATOM     17  C   UNL     1      31.738 -22.950 -17.011  0.00  0.00    +0.037 C 
ATOM     18  C   UNL     1      31.490 -23.135 -14.615  0.00  0.00    +0.000 C 
ATOM     19  C   UNL     1      30.942 -22.865 -15.869  0.00  0.00    +0.003 C 
BRANCH  15  20
ATOM     20  O   UNL     1      33.845 -23.379 -18.027  0.00  0.00    -0.505 OA
ATOM     21  H   UNL     1      34.142 -22.594 -18.445  0.00  0.00    +0.292 HD
ENDBRANCH  15  20
ENDBRANCH  13  14
ENDBRANCH   1  13
TORSDOF 6
ENDMDL
MODEL 9
REMARK VINA RESULT:      -8.8      3.591      5.854
REMARK  Name = 5161
REMARK  6 active torsions:
REMARK  status: ('A' for Active; 'I' for Inactive)
REMARK    1  A    between atoms: O_1  and  C_2
REMARK    2  A    between atoms: O_1  and  C_13
REMARK    3  A    between atoms: C_3  and  C_9
REMARK    4  A    between atoms: C_9  and  O_10
REMARK    5  A    between atoms: C_13  and  C_14
REMARK    6  A    between atoms: C_15  and  O_20
REMARK                            x       y       z     vdW  Elec       q    Type
REMARK                         _______ _______ _______ _____ _____    ______ ____
ROOT
ATOM      1  O   UNL     1      34.213 -13.460 -23.503  0.00  0.00    -0.421 OA
ENDROOT
BRANCH   1   2
ATOM      2  C   UNL     1      33.301 -12.480 -23.103  0.00  0.00    +0.155 C 
ATOM      3  C   UNL     1      33.377 -11.216 -23.646  0.00  0.00    +0.110 C 
ATOM      4  C   UNL     1      32.350 -12.828 -22.169  0.00  0.00    +0.038 C 
ATOM      5  C   UNL     1      32.457 -10.252 -23.234  0.00  0.00    +0.010 C 
ATOM      6  C   UNL     1      31.430 -11.864 -21.757  0.00  0.00    +0.003 C 
ATOM      7  C   UNL     1      31.484 -10.575 -22.289  0.00  0.00    +0.000 C 
BRANCH   3   9
ATOM      8  O   UNL     1      34.387 -11.223 -25.814  0.00  0.00    -0.245 OA
ATOM      9  C   UNL     1      34.384 -10.858 -24.635  0.00  0.00    +0.341 C 
BRANCH   9  10
ATOM     10  O   UNL     1      35.353 -10.055 -24.121  0.00  0.00    -0.477 OA
ATOM     11  H   UNL     1      36.256 -10.286 -24.221  0.00  0.00    +0.295 HD
ENDBRANCH   9  10
ENDBRANCH   3   9
ENDBRANCH   1   2
BRANCH   1  13
ATOM     12  O   UNL     1      32.798 -14.408 -25.096  0.00  0.00    -0.244 OA
ATOM     13  C   UNL     1      33.637 -14.524 -24.193  0.00  0.00    +0.349 C 
BRANCH  13  14
ATOM     14  C   UNL     1      34.160 -15.797 -23.718  0.00  0.00    +0.110 C 
ATOM     15  C   UNL     1      34.554 -16.790 -24.617  0.00  0.00    +0.140 C 
ATOM     16  C   UNL     1      34.263 -16.019 -22.345  0.00  0.00    +0.010 C 
ATOM     17  C   UNL     1      35.050 -18.003 -24.141  0.00  0.00    +0.037 C 
ATOM     18  C   UNL     1      34.761 -17.232 -21.870  0.00  0.00    +0.000 C 
ATOM     19  C   UNL     1      35.154 -18.225 -22.768  0.00  0.00    +0.003 C 
BRANCH  15  20
ATOM     20  O   UNL     1      34.458 -16.593 -25.962  0.00  0.00    -0.505 OA
ATOM     21  H   UNL     1      33.817 -17.062 -26.459  0.00  0.00    +0.292 HD
ENDBRANCH  15  20
ENDBRANCH  13  14
ENDBRANCH   1  13
TORSDOF 6
ENDMDL
