MODEL 1
REMARK VINA RESULT:      -9.7      0.000      0.000
REMARK  Name = 5282338
REMARK  10 active torsions:
REMARK  status: ('A' for Active; 'I' for Inactive)
REMARK    1  A    between atoms: C_5  and  C_24
REMARK    2  A    between atoms: C_8  and  C_10
REMARK    3  A    between atoms: C_12  and  O_20
REMARK    4  A    between atoms: C_13  and  O_16
REMARK    5  A    between atoms: C_14  and  O_18
REMARK    6  A    between atoms: N_23  and  C_26
REMARK    7  A    between atoms: C_26  and  C_27
REMARK    8  A    between atoms: C_27  and  N_28
REMARK    9  A    between atoms: N_28  and  C_30
REMARK   10  A    between atoms: N_28  and  C_33
REMARK                            x       y       z     vdW  Elec       q    Type
REMARK                         _______ _______ _______ _____ _____    ______ ____
ROOT
ATOM      1  S   UNL     1      33.152 -21.388 -19.899  0.00  0.00    -0.059 S 
ATOM      2  O   UNL     1      36.616 -18.643 -21.361  0.00  0.00    -0.270 OA
ATOM      3  N   UNL     1      35.616 -20.715 -19.502  0.00  0.00    -0.380 NA
ATOM      4  N   UNL     1      34.461 -19.597 -21.296  0.00  0.00    -0.251 N 
ATOM      5  C   UNL     1      35.269 -21.672 -18.594  0.00  0.00    +0.175 C 
ATOM      6  C   UNL     1      34.002 -22.167 -18.630  0.00  0.00    +0.129 C 
ATOM      7  C   UNL     1      34.564 -20.481 -20.256  0.00  0.00    +0.213 C 
ATOM      8  C   UNL     1      35.468 -18.747 -21.780  0.00  0.00    +0.255 C 
ATOM      9  H   UNL     1      33.590 -19.552 -21.752  0.00  0.00    +0.158 HD
ENDROOT
BRANCH   8  10
ATOM     10  C   UNL     1      35.087 -17.908 -22.948  0.00  0.00    +0.091 C 
ATOM     11  C   UNL     1      34.951 -16.549 -22.754  0.00  0.00    +0.048 C 
ATOM     12  C   UNL     1      34.881 -18.500 -24.178  0.00  0.00    +0.141 C 
ATOM     13  C   UNL     1      34.594 -15.746 -23.838  0.00  0.00    +0.173 C 
ATOM     14  C   UNL     1      34.380 -16.320 -25.091  0.00  0.00    +0.175 C 
ATOM     15  C   UNL     1      34.524 -17.696 -25.261  0.00  0.00    +0.077 C 
BRANCH  13  16
ATOM     16  O   UNL     1      34.456 -14.403 -23.659  0.00  0.00    -0.468 OA
ATOM     17  C   UNL     1      33.258 -13.952 -23.028  0.00  0.00    +0.253 C 
ENDBRANCH  13  16
BRANCH  14  18
ATOM     18  O   UNL     1      34.032 -15.546 -26.157  0.00  0.00    -0.468 OA
ATOM     19  C   UNL     1      32.638 -15.370 -26.401  0.00  0.00    +0.253 C 
ENDBRANCH  14  18
BRANCH  12  20
ATOM     20  O   UNL     1      35.018 -19.843 -24.364  0.00  0.00    -0.505 OA
ATOM     21  H   UNL     1      35.806 -20.275 -24.101  0.00  0.00    +0.292 HD
ENDBRANCH  12  20
ENDBRANCH   8  10
BRANCH   5  24
ATOM     22  O   UNL     1      37.475 -21.989 -17.829  0.00  0.00    -0.268 OA
ATOM     23  N   UNL     1      35.767 -22.691 -16.450  0.00  0.00    -0.301 N 
ATOM     24  C   UNL     1      36.271 -22.127 -17.620  0.00  0.00    +0.272 C 
ATOM     25  H   UNL     1      34.791 -22.773 -16.344  0.00  0.00    +0.150 HD
BRANCH  23  26
ATOM     26  C   UNL     1      36.619 -23.156 -15.389  0.00  0.00    +0.067 C 
BRANCH  26  27
ATOM     27  C   UNL     1      36.065 -24.421 -14.751  0.00  0.00    -0.056 C 
BRANCH  27  28
ATOM     28  N   UNL     1      36.760 -24.704 -13.496  0.00  0.00    +0.391 N 
ATOM     29  H   UNL     1      37.424 -23.950 -13.317  0.00  0.00    -0.079 HD
BRANCH  28  30
ATOM     30  C   UNL     1      37.503 -25.960 -13.594  0.00  0.00    -0.058 C 
ATOM     31  C   UNL     1      39.003 -25.685 -13.658  0.00  0.00    -0.023 C 
ATOM     32  C   UNL     1      37.035 -26.732 -14.823  0.00  0.00    -0.023 C 
ENDBRANCH  28  30
BRANCH  28  33
ATOM     33  C   UNL     1      35.809 -24.758 -12.385  0.00  0.00    -0.058 C 
ATOM     34  C   UNL     1      36.309 -23.874 -11.247  0.00  0.00    -0.023 C 
ATOM     35  C   UNL     1      34.425 -24.320 -12.853  0.00  0.00    -0.023 C 
ENDBRANCH  28  33
ENDBRANCH  27  28
ENDBRANCH  26  27
ENDBRANCH  23  26
ENDBRANCH   5  24
TORSDOF 10
ENDMDL
MODEL 2
REMARK VINA RESULT:      -9.4      2.248     11.129
REMARK  Name = 5282338
REMARK  10 active torsions:
REMARK  status: ('A' for Active; 'I' for Inactive)
REMARK    1  A    between atoms: C_5  and  C_24
REMARK    2  A    between atoms: C_8  and  C_10
REMARK    3  A    between atoms: C_12  and  O_20
REMARK    4  A    between atoms: C_13  and  O_16
REMARK    5  A    between atoms: C_14  and  O_18
REMARK    6  A    between atoms: N_23  and  C_26
REMARK    7  A    between atoms: C_26  and  C_27
REMARK    8  A    between atoms: C_27  and  N_28
REMARK    9  A    between atoms: N_28  and  C_30
REMARK   10  A    between atoms: N_28  and  C_33
REMARK                            x       y       z     vdW  Elec       q    Type
REMARK                         _______ _______ _______ _____ _____    ______ ____
ROOT
ATOM      1  S   UNL     1      33.225 -21.698 -19.573  0.00  0.00    -0.059 S 
ATOM      2  O   UNL     1      37.257 -21.470 -17.259  0.00  0.00    -0.270 OA
ATOM      3  N   UNL     1      35.553 -20.575 -19.503  0.00  0.00    -0.380 NA
ATOM      4  N   UNL     1      35.068 -22.178 -17.771  0.00  0.00    -0.251 N 
ATOM      5  C   UNL     1      34.860 -20.087 -20.572  0.00  0.00    +0.175 C 
ATOM      6  C   UNL     1      33.600 -20.552 -20.792  0.00  0.00    +0.129 C 
ATOM      7  C   UNL     1      34.780 -21.446 -18.892  0.00  0.00    +0.213 C 
ATOM      8  C   UNL     1      36.262 -22.151 -17.033  0.00  0.00    +0.255 C 
ATOM      9  H   UNL     1      34.364 -22.786 -17.449  0.00  0.00    +0.158 HD
ENDROOT
BRANCH   8  10
ATOM     10  C   UNL     1      36.290 -23.032 -15.836  0.00  0.00    +0.091 C 
ATOM     11  C   UNL     1      35.103 -23.262 -15.172  0.00  0.00    +0.048 C 
ATOM     12  C   UNL     1      37.484 -23.590 -15.424  0.00  0.00    +0.141 C 
ATOM     13  C   UNL     1      35.109 -24.086 -14.046  0.00  0.00    +0.173 C 
ATOM     14  C   UNL     1      36.302 -24.661 -13.609  0.00  0.00    +0.175 C 
ATOM     15  C   UNL     1      37.489 -24.413 -14.298  0.00  0.00    +0.077 C 
BRANCH  13  16
ATOM     16  O   UNL     1      33.943 -24.320 -13.381  0.00  0.00    -0.468 OA
ATOM     17  C   UNL     1      32.733 -23.983 -14.057  0.00  0.00    +0.253 C 
ENDBRANCH  13  16
BRANCH  14  18
ATOM     18  O   UNL     1      36.321 -25.468 -12.511  0.00  0.00    -0.468 OA
ATOM     19  C   UNL     1      37.489 -26.262 -12.311  0.00  0.00    +0.253 C 
ENDBRANCH  14  18
BRANCH  12  20
ATOM     20  O   UNL     1      38.653 -23.360 -16.084  0.00  0.00    -0.505 OA
ATOM     21  H   UNL     1      39.329 -24.009 -16.080  0.00  0.00    +0.292 HD
ENDBRANCH  12  20
ENDBRANCH   8  10
BRANCH   5  24
ATOM     22  O   UNL     1      36.684 -18.786 -21.305  0.00  0.00    -0.268 OA
ATOM     23  N   UNL     1      34.682 -18.522 -22.418  0.00  0.00    -0.301 N 
ATOM     24  C   UNL     1      35.497 -19.083 -21.437  0.00  0.00    +0.272 C 
ATOM     25  H   UNL     1      33.739 -18.803 -22.470  0.00  0.00    +0.150 HD
BRANCH  23  26
ATOM     26  C   UNL     1      35.167 -17.550 -23.359  0.00  0.00    +0.067 C 
BRANCH  26  27
ATOM     27  C   UNL     1      35.135 -16.148 -22.769  0.00  0.00    -0.056 C 
BRANCH  27  28
ATOM     28  N   UNL     1      33.778 -15.604 -22.824  0.00  0.00    +0.391 N 
ATOM     29  H   UNL     1      33.144 -16.347 -23.119  0.00  0.00    -0.079 HD
BRANCH  28  30
ATOM     30  C   UNL     1      33.702 -14.516 -23.798  0.00  0.00    -0.058 C 
ATOM     31  C   UNL     1      32.648 -13.497 -23.372  0.00  0.00    -0.023 C 
ATOM     32  C   UNL     1      33.384 -15.089 -25.175  0.00  0.00    -0.023 C 
ENDBRANCH  28  30
BRANCH  28  33
ATOM     33  C   UNL     1      33.362 -15.136 -21.502  0.00  0.00    -0.058 C 
ATOM     34  C   UNL     1      32.359 -16.121 -20.909  0.00  0.00    -0.023 C 
ATOM     35  C   UNL     1      34.575 -14.974 -20.592  0.00  0.00    -0.023 C 
ENDBRANCH  28  33
ENDBRANCH  27  28
ENDBRANCH  26  27
ENDBRANCH  23  26
ENDBRANCH   5  24
TORSDOF 10
ENDMDL
MODEL 3
REMARK VINA RESULT:      -9.2      6.536     11.159
REMARK  Name = 5282338
REMARK  10 active torsions:
REMARK  status: ('A' for Active; 'I' for Inactive)
REMARK    1  A    between atoms: C_5  and  C_24
REMARK    2  A    between atoms: C_8  and  C_10
REMARK    3  A    between atoms: C_12  and  O_20
REMARK    4  A    between atoms: C_13  and  O_16
REMARK    5  A    between atoms: C_14  and  O_18
REMARK    6  A    between atoms: N_23  and  C_26
REMARK    7  A    between atoms: C_26  and  C_27
REMARK    8  A    between atoms: C_27  and  N_28
REMARK    9  A    between atoms: N_28  and  C_30
REMARK   10  A    between atoms: N_28  and  C_33
REMARK                            x       y       z     vdW  Elec       q    Type
REMARK                         _______ _______ _______ _____ _____    ______ ____
ROOT
ATOM      1  S   UNL     1      33.865 -11.540 -24.978  0.00  0.00    -0.059 S 
ATOM      2  O   UNL     1      31.748  -9.439 -21.404  0.00  0.00    -0.270 OA
ATOM      3  N   UNL     1      32.837 -11.899 -22.633  0.00  0.00    -0.380 NA
ATOM      4  N   UNL     1      32.783  -9.655 -23.511  0.00  0.00    -0.251 N 
ATOM      5  C   UNL     1      33.305 -13.093 -23.096  0.00  0.00    +0.175 C 
ATOM      6  C   UNL     1      33.889 -13.125 -24.325  0.00  0.00    +0.129 C 
ATOM      7  C   UNL     1      33.080 -10.992 -23.554  0.00  0.00    +0.213 C 
ATOM      8  C   UNL     1      32.148  -8.969 -22.463  0.00  0.00    +0.255 C 
ATOM      9  H   UNL     1      33.041  -9.121 -24.296  0.00  0.00    +0.158 HD
ENDROOT
BRANCH   8  10
ATOM     10  C   UNL     1      31.978  -7.506 -22.673  0.00  0.00    +0.091 C 
ATOM     11  C   UNL     1      31.919  -7.039 -23.969  0.00  0.00    +0.048 C 
ATOM     12  C   UNL     1      31.883  -6.665 -21.583  0.00  0.00    +0.141 C 
ATOM     13  C   UNL     1      31.759  -5.670 -24.187  0.00  0.00    +0.173 C 
ATOM     14  C   UNL     1      31.661  -4.799 -23.102  0.00  0.00    +0.175 C 
ATOM     15  C   UNL     1      31.723  -5.296 -21.800  0.00  0.00    +0.077 C 
BRANCH  13  16
ATOM     16  O   UNL     1      31.701  -5.197 -25.462  0.00  0.00    -0.468 OA
ATOM     17  C   UNL     1      32.942  -4.911 -26.105  0.00  0.00    +0.253 C 
ENDBRANCH  13  16
BRANCH  14  18
ATOM     18  O   UNL     1      31.504  -3.461 -23.300  0.00  0.00    -0.468 OA
ATOM     19  C   UNL     1      30.439  -2.822 -22.598  0.00  0.00    +0.253 C 
ENDBRANCH  14  18
BRANCH  12  20
ATOM     20  O   UNL     1      31.940  -7.132 -20.304  0.00  0.00    -0.505 OA
ATOM     21  H   UNL     1      31.151  -7.253 -19.813  0.00  0.00    +0.292 HD
ENDBRANCH  12  20
ENDBRANCH   8  10
BRANCH   5  24
ATOM     22  O   UNL     1      32.055 -14.753 -21.984  0.00  0.00    -0.268 OA
ATOM     23  N   UNL     1      34.351 -14.869 -21.818  0.00  0.00    -0.301 N 
ATOM     24  C   UNL     1      33.162 -14.290 -22.255  0.00  0.00    +0.272 C 
ATOM     25  H   UNL     1      35.205 -14.449 -22.069  0.00  0.00    +0.150 HD
BRANCH  23  26
ATOM     26  C   UNL     1      34.378 -16.061 -21.014  0.00  0.00    +0.067 C 
BRANCH  26  27
ATOM     27  C   UNL     1      35.326 -17.098 -21.597  0.00  0.00    -0.056 C 
BRANCH  27  28
ATOM     28  N   UNL     1      34.585 -18.069 -22.402  0.00  0.00    +0.391 N 
ATOM     29  H   UNL     1      33.613 -17.764 -22.461  0.00  0.00    -0.079 HD
BRANCH  28  30
ATOM     30  C   UNL     1      34.618 -19.388 -21.771  0.00  0.00    -0.058 C 
ATOM     31  C   UNL     1      33.352 -19.614 -20.950  0.00  0.00    -0.023 C 
ATOM     32  C   UNL     1      35.864 -19.504 -20.900  0.00  0.00    -0.023 C 
ENDBRANCH  28  30
BRANCH  28  33
ATOM     33  C   UNL     1      35.134 -18.136 -23.756  0.00  0.00    -0.058 C 
ATOM     34  C   UNL     1      34.742 -19.463 -24.397  0.00  0.00    -0.023 C 
ATOM     35  C   UNL     1      34.637 -16.957 -24.587  0.00  0.00    -0.023 C 
ENDBRANCH  28  33
ENDBRANCH  27  28
ENDBRANCH  26  27
ENDBRANCH  23  26
ENDBRANCH   5  24
TORSDOF 10
ENDMDL
MODEL 4
REMARK VINA RESULT:      -9.1      2.200     11.144
REMARK  Name = 5282338
REMARK  10 active torsions:
REMARK  status: ('A' for Active; 'I' for Inactive)
REMARK    1  A    between atoms: C_5  and  C_24
REMARK    2  A    between atoms: C_8  and  C_10
REMARK    3  A    between atoms: C_12  and  O_20
REMARK    4  A    between atoms: C_13  and  O_16
REMARK    5  A    between atoms: C_14  and  O_18
REMARK    6  A    between atoms: N_23  and  C_26
REMARK    7  A    between atoms: C_26  and  C_27
REMARK    8  A    between atoms: C_27  and  N_28
REMARK    9  A    between atoms: N_28  and  C_30
REMARK   10  A    between atoms: N_28  and  C_33
REMARK                            x       y       z     vdW  Elec       q    Type
REMARK                         _______ _______ _______ _____ _____    ______ ____
ROOT
ATOM      1  S   UNL     1      33.228 -21.423 -19.785  0.00  0.00    -0.059 S 
ATOM      2  O   UNL     1      37.338 -21.346 -17.600  0.00  0.00    -0.270 OA
ATOM      3  N   UNL     1      35.585 -20.361 -19.769  0.00  0.00    -0.380 NA
ATOM      4  N   UNL     1      35.115 -21.987 -18.055  0.00  0.00    -0.251 N 
ATOM      5  C   UNL     1      34.871 -19.833 -20.805  0.00  0.00    +0.175 C 
ATOM      6  C   UNL     1      33.593 -20.261 -20.992  0.00  0.00    +0.129 C 
ATOM      7  C   UNL     1      34.810 -21.225 -19.151  0.00  0.00    +0.213 C 
ATOM      8  C   UNL     1      36.333 -22.006 -17.356  0.00  0.00    +0.255 C 
ATOM      9  H   UNL     1      34.407 -22.584 -17.722  0.00  0.00    +0.158 HD
ENDROOT
BRANCH   8  10
ATOM     10  C   UNL     1      36.377 -22.912 -16.178  0.00  0.00    +0.091 C 
ATOM     11  C   UNL     1      37.614 -23.267 -15.679  0.00  0.00    +0.048 C 
ATOM     12  C   UNL     1      35.200 -23.368 -15.620  0.00  0.00    +0.141 C 
ATOM     13  C   UNL     1      37.676 -24.117 -14.574  0.00  0.00    +0.173 C 
ATOM     14  C   UNL     1      36.501 -24.592 -13.993  0.00  0.00    +0.175 C 
ATOM     15  C   UNL     1      35.263 -24.218 -14.515  0.00  0.00    +0.077 C 
BRANCH  13  16
ATOM     16  O   UNL     1      38.891 -24.475 -14.073  0.00  0.00    -0.468 OA
ATOM     17  C   UNL     1      39.744 -25.237 -14.925  0.00  0.00    +0.253 C 
ENDBRANCH  13  16
BRANCH  14  18
ATOM     18  O   UNL     1      36.548 -25.421 -12.913  0.00  0.00    -0.468 OA
ATOM     19  C   UNL     1      36.031 -24.915 -11.684  0.00  0.00    +0.253 C 
ENDBRANCH  14  18
BRANCH  12  20
ATOM     20  O   UNL     1      33.982 -23.013 -16.116  0.00  0.00    -0.505 OA
ATOM     21  H   UNL     1      33.536 -23.579 -16.716  0.00  0.00    +0.292 HD
ENDBRANCH  12  20
ENDBRANCH   8  10
BRANCH   5  24
ATOM     22  O   UNL     1      36.705 -18.571 -21.578  0.00  0.00    -0.268 OA
ATOM     23  N   UNL     1      34.671 -18.217 -22.603  0.00  0.00    -0.301 N 
ATOM     24  C   UNL     1      35.505 -18.828 -21.669  0.00  0.00    +0.272 C 
ATOM     25  H   UNL     1      33.718 -18.467 -22.623  0.00  0.00    +0.150 HD
BRANCH  23  26
ATOM     26  C   UNL     1      35.149 -17.236 -23.539  0.00  0.00    +0.067 C 
BRANCH  26  27
ATOM     27  C   UNL     1      34.971 -15.825 -22.998  0.00  0.00    -0.056 C 
BRANCH  27  28
ATOM     28  N   UNL     1      33.551 -15.523 -22.826  0.00  0.00    +0.391 N 
ATOM     29  H   UNL     1      33.015 -16.371 -23.008  0.00  0.00    -0.079 HD
BRANCH  28  30
ATOM     30  C   UNL     1      33.128 -14.495 -23.778  0.00  0.00    -0.058 C 
ATOM     31  C   UNL     1      33.295 -14.999 -25.209  0.00  0.00    -0.023 C 
ATOM     32  C   UNL     1      33.938 -13.224 -23.547  0.00  0.00    -0.023 C 
ENDBRANCH  28  30
BRANCH  28  33
ATOM     33  C   UNL     1      33.283 -15.090 -21.455  0.00  0.00    -0.058 C 
ATOM     34  C   UNL     1      32.243 -16.012 -20.826  0.00  0.00    -0.023 C 
ATOM     35  C   UNL     1      34.573 -15.083 -20.641  0.00  0.00    -0.023 C 
ENDBRANCH  28  33
ENDBRANCH  27  28
ENDBRANCH  26  27
ENDBRANCH  23  26
ENDBRANCH   5  24
TORSDOF 10
ENDMDL
MODEL 5
REMARK VINA RESULT:      -9.1      2.333     11.338
REMARK  Name = 5282338
REMARK  10 active torsions:
REMARK  status: ('A' for Active; 'I' for Inactive)
REMARK    1  A    between atoms: C_5  and  C_24
REMARK    2  A    between atoms: C_8  and  C_10
REMARK    3  A    between atoms: C_12  and  O_20
REMARK    4  A    between atoms: C_13  and  O_16
REMARK    5  A    between atoms: C_14  and  O_18
REMARK    6  A    between atoms: N_23  and  C_26
REMARK    7  A    between atoms: C_26  and  C_27
REMARK    8  A    between atoms: C_27  and  N_28
REMARK    9  A    between atoms: N_28  and  C_30
REMARK   10  A    between atoms: N_28  and  C_33
REMARK                            x       y       z     vdW  Elec       q    Type
REMARK                         _______ _______ _______ _____ _____    ______ ____
ROOT
ATOM      1  S   UNL     1      33.665 -21.982 -19.636  0.00  0.00    -0.059 S 
ATOM      2  O   UNL     1      37.381 -21.367 -16.900  0.00  0.00    -0.270 OA
ATOM      3  N   UNL     1      35.837 -20.618 -19.309  0.00  0.00    -0.380 NA
ATOM      4  N   UNL     1      35.347 -22.296 -17.650  0.00  0.00    -0.251 N 
ATOM      5  C   UNL     1      35.212 -20.187 -20.442  0.00  0.00    +0.175 C 
ATOM      6  C   UNL     1      34.040 -20.780 -20.799  0.00  0.00    +0.129 C 
ATOM      7  C   UNL     1      35.102 -21.578 -18.790  0.00  0.00    +0.213 C 
ATOM      8  C   UNL     1      36.447 -22.155 -16.788  0.00  0.00    +0.255 C 
ATOM      9  H   UNL     1      34.684 -22.982 -17.410  0.00  0.00    +0.158 HD
ENDROOT
BRANCH   8  10
ATOM     10  C   UNL     1      36.444 -23.050 -15.601  0.00  0.00    +0.091 C 
ATOM     11  C   UNL     1      35.268 -23.181 -14.890  0.00  0.00    +0.048 C 
ATOM     12  C   UNL     1      37.597 -23.718 -15.243  0.00  0.00    +0.141 C 
ATOM     13  C   UNL     1      35.244 -24.016 -13.773  0.00  0.00    +0.173 C 
ATOM     14  C   UNL     1      36.398 -24.702 -13.392  0.00  0.00    +0.175 C 
ATOM     15  C   UNL     1      37.573 -24.554 -14.126  0.00  0.00    +0.077 C 
BRANCH  13  16
ATOM     16  O   UNL     1      34.090 -24.153 -13.063  0.00  0.00    -0.468 OA
ATOM     17  C   UNL     1      32.872 -24.170 -13.805  0.00  0.00    +0.253 C 
ENDBRANCH  13  16
BRANCH  14  18
ATOM     18  O   UNL     1      36.387 -25.522 -12.303  0.00  0.00    -0.468 OA
ATOM     19  C   UNL     1      37.565 -26.288 -12.059  0.00  0.00    +0.253 C 
ENDBRANCH  14  18
BRANCH  12  20
ATOM     20  O   UNL     1      38.755 -23.587 -15.949  0.00  0.00    -0.505 OA
ATOM     21  H   UNL     1      39.143 -22.741 -16.060  0.00  0.00    +0.292 HD
ENDBRANCH  12  20
ENDBRANCH   8  10
BRANCH   5  24
ATOM     22  O   UNL     1      37.043 -18.945 -21.253  0.00  0.00    -0.268 OA
ATOM     23  N   UNL     1      34.941 -18.303 -21.946  0.00  0.00    -0.301 N 
ATOM     24  C   UNL     1      35.824 -19.104 -21.226  0.00  0.00    +0.272 C 
ATOM     25  H   UNL     1      33.975 -18.483 -21.881  0.00  0.00    +0.150 HD
BRANCH  23  26
ATOM     26  C   UNL     1      35.388 -17.224 -22.784  0.00  0.00    +0.067 C 
BRANCH  26  27
ATOM     27  C   UNL     1      34.228 -16.332 -23.201  0.00  0.00    -0.056 C 
BRANCH  27  28
ATOM     28  N   UNL     1      34.504 -14.940 -22.849  0.00  0.00    +0.391 N 
ATOM     29  H   UNL     1      35.503 -14.846 -22.662  0.00  0.00    -0.079 HD
BRANCH  28  30
ATOM     30  C   UNL     1      33.770 -14.562 -21.643  0.00  0.00    -0.058 C 
ATOM     31  C   UNL     1      34.674 -14.667 -20.418  0.00  0.00    -0.023 C 
ATOM     32  C   UNL     1      32.542 -15.454 -21.495  0.00  0.00    -0.023 C 
ENDBRANCH  28  30
BRANCH  28  33
ATOM     33  C   UNL     1      34.155 -14.053 -23.959  0.00  0.00    -0.058 C 
ATOM     34  C   UNL     1      33.296 -14.813 -24.964  0.00  0.00    -0.023 C 
ATOM     35  C   UNL     1      33.427 -12.817 -23.439  0.00  0.00    -0.023 C 
ENDBRANCH  28  33
ENDBRANCH  27  28
ENDBRANCH  26  27
ENDBRANCH  23  26
ENDBRANCH   5  24
TORSDOF 10
ENDMDL
MODEL 6
REMARK VINA RESULT:      -9.0      4.334     12.375
REMARK  Name = 5282338
REMARK  10 active torsions:
REMARK  status: ('A' for Active; 'I' for Inactive)
REMARK    1  A    between atoms: C_5  and  C_24
REMARK    2  A    between atoms: C_8  and  C_10
REMARK    3  A    between atoms: C_12  and  O_20
REMARK    4  A    between atoms: C_13  and  O_16
REMARK    5  A    between atoms: C_14  and  O_18
REMARK    6  A    between atoms: N_23  and  C_26
REMARK    7  A    between atoms: C_26  and  C_27
REMARK    8  A    between atoms: C_27  and  N_28
REMARK    9  A    between atoms: N_28  and  C_30
REMARK   10  A    between atoms: N_28  and  C_33
REMARK                            x       y       z     vdW  Elec       q    Type
REMARK                         _______ _______ _______ _____ _____    ______ ____
ROOT
ATOM      1  S   UNL     1      32.374 -14.858 -20.431  0.00  0.00    -0.059 S 
ATOM      2  O   UNL     1      34.817 -18.127 -22.670  0.00  0.00    -0.270 OA
ATOM      3  N   UNL     1      33.755 -15.369 -22.556  0.00  0.00    -0.380 NA
ATOM      4  N   UNL     1      33.506 -17.161 -20.965  0.00  0.00    -0.251 N 
ATOM      5  C   UNL     1      33.322 -14.077 -22.612  0.00  0.00    +0.175 C 
ATOM      6  C   UNL     1      32.570 -13.602 -21.582  0.00  0.00    +0.129 C 
ATOM      7  C   UNL     1      33.310 -15.889 -21.433  0.00  0.00    +0.213 C 
ATOM      8  C   UNL     1      34.231 -18.186 -21.594  0.00  0.00    +0.255 C 
ATOM      9  H   UNL     1      33.096 -17.380 -20.097  0.00  0.00    +0.158 HD
ENDROOT
BRANCH   8  10
ATOM     10  C   UNL     1      34.307 -19.466 -20.841  0.00  0.00    +0.091 C 
ATOM     11  C   UNL     1      35.541 -19.873 -20.377  0.00  0.00    +0.048 C 
ATOM     12  C   UNL     1      33.161 -20.204 -20.627  0.00  0.00    +0.141 C 
ATOM     13  C   UNL     1      35.633 -21.072 -19.668  0.00  0.00    +0.173 C 
ATOM     14  C   UNL     1      34.489 -21.836 -19.439  0.00  0.00    +0.175 C 
ATOM     15  C   UNL     1      33.253 -21.402 -19.918  0.00  0.00    +0.077 C 
BRANCH  13  16
ATOM     16  O   UNL     1      36.845 -21.485 -19.206  0.00  0.00    -0.468 OA
ATOM     17  C   UNL     1      37.033 -21.490 -17.792  0.00  0.00    +0.253 C 
ENDBRANCH  13  16
BRANCH  14  18
ATOM     18  O   UNL     1      34.565 -23.007 -18.748  0.00  0.00    -0.468 OA
ATOM     19  C   UNL     1      33.593 -23.221 -17.727  0.00  0.00    +0.253 C 
ENDBRANCH  14  18
BRANCH  12  20
ATOM     20  O   UNL     1      31.944 -19.796 -21.086  0.00  0.00    -0.505 OA
ATOM     21  H   UNL     1      31.248 -19.626 -20.483  0.00  0.00    +0.292 HD
ENDBRANCH  12  20
ENDBRANCH   8  10
BRANCH   5  24
ATOM     22  O   UNL     1      33.809 -13.748 -24.895  0.00  0.00    -0.268 OA
ATOM     23  N   UNL     1      33.844 -11.892 -23.527  0.00  0.00    -0.301 N 
ATOM     24  C   UNL     1      33.684 -13.253 -23.775  0.00  0.00    +0.272 C 
ATOM     25  H   UNL     1      33.731 -11.559 -22.607  0.00  0.00    +0.150 HD
BRANCH  23  26
ATOM     26  C   UNL     1      34.168 -10.953 -24.567  0.00  0.00    +0.067 C 
BRANCH  26  27
ATOM     27  C   UNL     1      34.415  -9.563 -23.998  0.00  0.00    -0.056 C 
BRANCH  27  28
ATOM     28  N   UNL     1      33.145  -8.913 -23.676  0.00  0.00    +0.391 N 
ATOM     29  H   UNL     1      32.457  -9.180 -24.381  0.00  0.00    -0.079 HD
BRANCH  28  30
ATOM     30  C   UNL     1      33.294  -7.458 -23.703  0.00  0.00    -0.058 C 
ATOM     31  C   UNL     1      32.111  -6.818 -24.424  0.00  0.00    -0.023 C 
ATOM     32  C   UNL     1      34.610  -7.095 -24.382  0.00  0.00    -0.023 C 
ENDBRANCH  28  30
BRANCH  28  33
ATOM     33  C   UNL     1      32.662  -9.352 -22.367  0.00  0.00    -0.058 C 
ATOM     34  C   UNL     1      32.789  -8.206 -21.369  0.00  0.00    -0.023 C 
ATOM     35  C   UNL     1      31.217  -9.832 -22.470  0.00  0.00    -0.023 C 
ENDBRANCH  28  33
ENDBRANCH  27  28
ENDBRANCH  26  27
ENDBRANCH  23  26
ENDBRANCH   5  24
TORSDOF 10
ENDMDL
MODEL 7
REMARK VINA RESULT:      -8.8      2.362     11.479
REMARK  Name = 5282338
REMARK  10 active torsions:
REMARK  status: ('A' for Active; 'I' for Inactive)
REMARK    1  A    between atoms: C_5  and  C_24
REMARK    2  A    between atoms: C_8  and  C_10
REMARK    3  A    between atoms: C_12  and  O_20
REMARK    4  A    between atoms: C_13  and  O_16
REMARK    5  A    between atoms: C_14  and  O_18
REMARK    6  A    between atoms: N_23  and  C_26
REMARK    7  A    between atoms: C_26  and  C_27
REMARK    8  A    between atoms: C_27  and  N_28
REMARK    9  A    between atoms: N_28  and  C_30
REMARK   10  A    between atoms: N_28  and  C_33
REMARK                            x       y       z     vdW  Elec       q    Type
REMARK                         _______ _______ _______ _____ _____    ______ ____
ROOT
ATOM      1  S   UNL     1      33.812 -22.387 -19.251  0.00  0.00    -0.059 S 
ATOM      2  O   UNL     1      37.408 -21.515 -16.428  0.00  0.00    -0.270 OA
ATOM      3  N   UNL     1      35.934 -20.947 -18.928  0.00  0.00    -0.380 NA
ATOM      4  N   UNL     1      35.428 -22.540 -17.193  0.00  0.00    -0.251 N 
ATOM      5  C   UNL     1      35.341 -20.598 -20.106  0.00  0.00    +0.175 C 
ATOM      6  C   UNL     1      34.198 -21.243 -20.469  0.00  0.00    +0.129 C 
ATOM      7  C   UNL     1      35.206 -21.895 -18.381  0.00  0.00    +0.213 C 
ATOM      8  C   UNL     1      36.491 -22.320 -16.303  0.00  0.00    +0.255 C 
ATOM      9  H   UNL     1      34.774 -23.229 -16.937  0.00  0.00    +0.158 HD
ENDROOT
BRANCH   8  10
ATOM     10  C   UNL     1      36.468 -23.145 -15.066  0.00  0.00    +0.091 C 
ATOM     11  C   UNL     1      37.631 -23.786 -14.692  0.00  0.00    +0.048 C 
ATOM     12  C   UNL     1      35.302 -23.249 -14.334  0.00  0.00    +0.141 C 
ATOM     13  C   UNL     1      37.629 -24.565 -13.535  0.00  0.00    +0.173 C 
ATOM     14  C   UNL     1      36.463 -24.686 -12.778  0.00  0.00    +0.175 C 
ATOM     15  C   UNL     1      35.301 -24.028 -13.177  0.00  0.00    +0.077 C 
BRANCH  13  16
ATOM     16  O   UNL     1      38.770 -25.204 -13.155  0.00  0.00    -0.468 OA
ATOM     17  C   UNL     1      39.756 -25.422 -14.163  0.00  0.00    +0.253 C 
ENDBRANCH  13  16
BRANCH  14  18
ATOM     18  O   UNL     1      36.448 -25.444 -11.645  0.00  0.00    -0.468 OA
ATOM     19  C   UNL     1      35.808 -24.884 -10.500  0.00  0.00    +0.253 C 
ENDBRANCH  14  18
BRANCH  12  20
ATOM     20  O   UNL     1      34.157 -22.612 -14.708  0.00  0.00    -0.505 OA
ATOM     21  H   UNL     1      33.339 -23.068 -14.686  0.00  0.00    +0.292 HD
ENDBRANCH  12  20
ENDBRANCH   8  10
BRANCH   5  24
ATOM     22  O   UNL     1      37.169 -19.358 -20.926  0.00  0.00    -0.268 OA
ATOM     23  N   UNL     1      35.076 -18.808 -21.722  0.00  0.00    -0.301 N 
ATOM     24  C   UNL     1      35.953 -19.546 -20.929  0.00  0.00    +0.272 C 
ATOM     25  H   UNL     1      34.113 -19.009 -21.677  0.00  0.00    +0.150 HD
BRANCH  23  26
ATOM     26  C   UNL     1      35.526 -17.766 -22.604  0.00  0.00    +0.067 C 
BRANCH  26  27
ATOM     27  C   UNL     1      34.372 -16.873 -23.035  0.00  0.00    -0.056 C 
BRANCH  27  28
ATOM     28  N   UNL     1      34.663 -15.476 -22.713  0.00  0.00    +0.391 N 
ATOM     29  H   UNL     1      35.638 -15.408 -22.421  0.00  0.00    -0.079 HD
BRANCH  28  30
ATOM     30  C   UNL     1      33.817 -15.019 -21.610  0.00  0.00    -0.058 C 
ATOM     31  C   UNL     1      34.649 -14.843 -20.343  0.00  0.00    -0.023 C 
ATOM     32  C   UNL     1      32.687 -16.019 -21.389  0.00  0.00    -0.023 C 
ENDBRANCH  28  30
BRANCH  28  33
ATOM     33  C   UNL     1      34.470 -14.629 -23.889  0.00  0.00    -0.058 C 
ATOM     34  C   UNL     1      33.591 -15.358 -24.900  0.00  0.00    -0.023 C 
ATOM     35  C   UNL     1      33.850 -13.295 -23.485  0.00  0.00    -0.023 C 
ENDBRANCH  28  33
ENDBRANCH  27  28
ENDBRANCH  26  27
ENDBRANCH  23  26
ENDBRANCH   5  24
TORSDOF 10
ENDMDL
MODEL 8
REMARK VINA RESULT:      -8.7      6.583     11.173
REMARK  Name = 5282338
REMARK  10 active torsions:
REMARK  status: ('A' for Active; 'I' for Inactive)
REMARK    1  A    between atoms: C_5  and  C_24
REMARK    2  A    between atoms: C_8  and  C_10
REMARK    3  A    between atoms: C_12  and  O_20
REMARK    4  A    between atoms: C_13  and  O_16
REMARK    5  A    between atoms: C_14  and  O_18
REMARK    6  A    between atoms: N_23  and  C_26
REMARK    7  A    between atoms: C_26  and  C_27
REMARK    8  A    between atoms: C_27  and  N_28
REMARK    9  A    between atoms: N_28  and  C_30
REMARK   10  A    between atoms: N_28  and  C_33
REMARK                            x       y       z     vdW  Elec       q    Type
REMARK                         _______ _______ _______ _____ _____    ______ ____
ROOT
ATOM      1  S   UNL     1      33.830 -11.535 -25.005  0.00  0.00    -0.059 S 
ATOM      2  O   UNL     1      31.851  -9.295 -21.436  0.00  0.00    -0.270 OA
ATOM      3  N   UNL     1      32.892 -11.802 -22.610  0.00  0.00    -0.380 NA
ATOM      4  N   UNL     1      32.804  -9.594 -23.571  0.00  0.00    -0.251 N 
ATOM      5  C   UNL     1      33.342 -13.014 -23.045  0.00  0.00    +0.175 C 
ATOM      6  C   UNL     1      33.879 -13.094 -24.293  0.00  0.00    +0.129 C 
ATOM      7  C   UNL     1      33.100 -10.931 -23.574  0.00  0.00    +0.213 C 
ATOM      8  C   UNL     1      32.210  -8.867 -22.527  0.00  0.00    +0.255 C 
ATOM      9  H   UNL     1      33.031  -9.091 -24.386  0.00  0.00    +0.158 HD
ENDROOT
BRANCH   8  10
ATOM     10  C   UNL     1      32.031  -7.413 -22.786  0.00  0.00    +0.091 C 
ATOM     11  C   UNL     1      32.022  -6.984 -24.097  0.00  0.00    +0.048 C 
ATOM     12  C   UNL     1      31.880  -6.543 -21.726  0.00  0.00    +0.141 C 
ATOM     13  C   UNL     1      31.856  -5.624 -24.361  0.00  0.00    +0.173 C 
ATOM     14  C   UNL     1      31.701  -4.724 -23.306  0.00  0.00    +0.175 C 
ATOM     15  C   UNL     1      31.713  -5.183 -21.990  0.00  0.00    +0.077 C 
BRANCH  13  16
ATOM     16  O   UNL     1      31.846  -5.188 -25.651  0.00  0.00    -0.468 OA
ATOM     17  C   UNL     1      33.112  -4.930 -26.257  0.00  0.00    +0.253 C 
ENDBRANCH  13  16
BRANCH  14  18
ATOM     18  O   UNL     1      31.537  -3.394 -23.550  0.00  0.00    -0.468 OA
ATOM     19  C   UNL     1      30.562  -2.707 -22.768  0.00  0.00    +0.253 C 
ENDBRANCH  14  18
BRANCH  12  20
ATOM     20  O   UNL     1      31.888  -6.972 -20.433  0.00  0.00    -0.505 OA
ATOM     21  H   UNL     1      31.549  -7.818 -20.217  0.00  0.00    +0.292 HD
ENDBRANCH  12  20
ENDBRANCH   8  10
BRANCH   5  24
ATOM     22  O   UNL     1      32.136 -14.622 -21.815  0.00  0.00    -0.268 OA
ATOM     23  N   UNL     1      34.438 -14.747 -21.748  0.00  0.00    -0.301 N 
ATOM     24  C   UNL     1      33.232 -14.177 -22.153  0.00  0.00    +0.272 C 
ATOM     25  H   UNL     1      35.281 -14.342 -22.054  0.00  0.00    +0.150 HD
BRANCH  23  26
ATOM     26  C   UNL     1      34.495 -15.908 -20.901  0.00  0.00    +0.067 C 
BRANCH  26  27
ATOM     27  C   UNL     1      33.867 -17.117 -21.580  0.00  0.00    -0.056 C 
BRANCH  27  28
ATOM     28  N   UNL     1      34.867 -17.832 -22.371  0.00  0.00    +0.391 N 
ATOM     29  H   UNL     1      35.729 -17.285 -22.374  0.00  0.00    -0.079 HD
BRANCH  28  30
ATOM     30  C   UNL     1      34.412 -17.983 -23.753  0.00  0.00    -0.058 C 
ATOM     31  C   UNL     1      34.959 -19.277 -24.351  0.00  0.00    -0.023 C 
ATOM     32  C   UNL     1      34.855 -16.774 -24.569  0.00  0.00    -0.023 C 
ENDBRANCH  28  30
BRANCH  28  33
ATOM     33  C   UNL     1      35.148 -19.140 -21.780  0.00  0.00    -0.058 C 
ATOM     34  C   UNL     1      36.447 -19.067 -20.983  0.00  0.00    -0.023 C 
ATOM     35  C   UNL     1      33.986 -19.580 -20.895  0.00  0.00    -0.023 C 
ENDBRANCH  28  33
ENDBRANCH  27  28
ENDBRANCH  26  27
ENDBRANCH  23  26
ENDBRANCH   5  24
TORSDOF 10
ENDMDL
MODEL 9
REMARK VINA RESULT:      -8.5      4.213     11.745
REMARK  Name = 5282338
REMARK  10 active torsions:
REMARK  status: ('A' for Active; 'I' for Inactive)
REMARK    1  A    between atoms: C_5  and  C_24
REMARK    2  A    between atoms: C_8  and  C_10
REMARK    3  A    between atoms: C_12  and  O_20
REMARK    4  A    between atoms: C_13  and  O_16
REMARK    5  A    between atoms: C_14  and  O_18
REMARK    6  A    between atoms: N_23  and  C_26
REMARK    7  A    between atoms: C_26  and  C_27
REMARK    8  A    between atoms: C_27  and  N_28
REMARK    9  A    between atoms: N_28  and  C_30
REMARK   10  A    between atoms: N_28  and  C_33
REMARK                            x       y       z     vdW  Elec       q    Type
REMARK                         _______ _______ _______ _____ _____    ______ ____
ROOT
ATOM      1  S   UNL     1      34.234 -17.902 -25.340  0.00  0.00    -0.059 S 
ATOM      2  O   UNL     1      34.111 -17.270 -20.730  0.00  0.00    -0.270 OA
ATOM      3  N   UNL     1      34.021 -16.139 -23.461  0.00  0.00    -0.380 NA
ATOM      4  N   UNL     1      34.263 -18.435 -22.774  0.00  0.00    -0.251 N 
ATOM      5  C   UNL     1      33.964 -15.505 -24.668  0.00  0.00    +0.175 C 
ATOM      6  C   UNL     1      34.059 -16.258 -25.798  0.00  0.00    +0.129 C 
ATOM      7  C   UNL     1      34.164 -17.425 -23.693  0.00  0.00    +0.213 C 
ATOM      8  C   UNL     1      34.232 -18.305 -21.376  0.00  0.00    +0.255 C 
ATOM      9  H   UNL     1      34.366 -19.347 -23.130  0.00  0.00    +0.158 HD
ENDROOT
BRANCH   8  10
ATOM     10  C   UNL     1      34.330 -19.580 -20.616  0.00  0.00    +0.091 C 
ATOM     11  C   UNL     1      35.567 -19.954 -20.134  0.00  0.00    +0.048 C 
ATOM     12  C   UNL     1      33.200 -20.346 -20.414  0.00  0.00    +0.141 C 
ATOM     13  C   UNL     1      35.680 -21.146 -19.418  0.00  0.00    +0.173 C 
ATOM     14  C   UNL     1      34.553 -21.938 -19.201  0.00  0.00    +0.175 C 
ATOM     15  C   UNL     1      33.313 -21.538 -19.699  0.00  0.00    +0.077 C 
BRANCH  13  16
ATOM     16  O   UNL     1      36.896 -21.526 -18.938  0.00  0.00    -0.468 OA
ATOM     17  C   UNL     1      37.075 -21.488 -17.523  0.00  0.00    +0.253 C 
ENDBRANCH  13  16
BRANCH  14  18
ATOM     18  O   UNL     1      34.650 -23.104 -18.504  0.00  0.00    -0.468 OA
ATOM     19  C   UNL     1      33.570 -23.428 -17.630  0.00  0.00    +0.253 C 
ENDBRANCH  14  18
BRANCH  12  20
ATOM     20  O   UNL     1      31.980 -19.972 -20.892  0.00  0.00    -0.505 OA
ATOM     21  H   UNL     1      31.205 -20.161 -20.400  0.00  0.00    +0.292 HD
ENDBRANCH  12  20
ENDBRANCH   8  10
BRANCH   5  24
ATOM     22  O   UNL     1      33.396 -13.468 -25.708  0.00  0.00    -0.268 OA
ATOM     23  N   UNL     1      34.108 -13.375 -23.517  0.00  0.00    -0.301 N 
ATOM     24  C   UNL     1      33.802 -14.045 -24.700  0.00  0.00    +0.272 C 
ATOM     25  H   UNL     1      34.430 -13.896 -22.746  0.00  0.00    +0.150 HD
BRANCH  23  26
ATOM     26  C   UNL     1      33.971 -11.950 -23.381  0.00  0.00    +0.067 C 
BRANCH  26  27
ATOM     27  C   UNL     1      32.600 -11.578 -22.836  0.00  0.00    -0.056 C 
BRANCH  27  28
ATOM     28  N   UNL     1      32.619 -10.219 -22.296  0.00  0.00    +0.391 N 
ATOM     29  H   UNL     1      33.488 -10.090 -21.777  0.00  0.00    -0.079 HD
BRANCH  28  30
ATOM     30  C   UNL     1      31.499 -10.018 -21.378  0.00  0.00    -0.058 C 
ATOM     31  C   UNL     1      31.995  -9.438 -20.056  0.00  0.00    -0.023 C 
ATOM     32  C   UNL     1      30.778 -11.343 -21.157  0.00  0.00    -0.023 C 
ENDBRANCH  28  30
BRANCH  28  33
ATOM     33  C   UNL     1      32.575  -9.238 -23.379  0.00  0.00    -0.058 C 
ATOM     34  C   UNL     1      31.227  -8.524 -23.361  0.00  0.00    -0.023 C 
ATOM     35  C   UNL     1      33.723  -8.244 -23.241  0.00  0.00    -0.023 C 
ENDBRANCH  28  33
ENDBRANCH  27  28
ENDBRANCH  26  27
ENDBRANCH  23  26
ENDBRANCH   5  24
TORSDOF 10
ENDMDL
