MODEL 1
REMARK VINA RESULT:     -10.8      0.000      0.000
REMARK  Name = 448642
REMARK  5 active torsions:
REMARK  status: ('A' for Active; 'I' for Inactive)
REMARK    1  A    between atoms: N_1  and  C_28
REMARK    2  A    between atoms: C_4  and  C_13
REMARK    3  A    between atoms: C_14  and  C_19
REMARK    4  A    between atoms: C_28  and  C_29
REMARK    5  A    between atoms: C_29  and  C_31
REMARK                            x       y       z     vdW  Elec       q    Type
REMARK                         _______ _______ _______ _____ _____    ______ ____
ROOT
ATOM      1  N   UNL     1      34.068 -22.123 -18.823  0.00  0.00    -0.286 N 
ATOM      2  C   UNL     1      35.241 -21.974 -18.130  0.00  0.00    +0.052 C 
ATOM      3  C   UNL     1      33.108 -22.693 -18.043  0.00  0.00    +0.066 C 
ATOM      4  C   UNL     1      33.664 -22.927 -16.807  0.00  0.00    +0.021 C 
ATOM      5  C   UNL     1      35.013 -22.478 -16.847  0.00  0.00    +0.015 C 
ATOM      6  C   UNL     1      36.473 -21.443 -18.526  0.00  0.00    +0.015 C 
ATOM      7  C   UNL     1      36.068 -22.449 -15.911  0.00  0.00    +0.001 C 
ATOM      8  C   UNL     1      37.504 -21.426 -17.581  0.00  0.00    +0.001 C 
ATOM      9  C   UNL     1      37.306 -21.920 -16.294  0.00  0.00    +0.000 C 
ENDROOT
BRANCH   4  13
ATOM     10  O   UNL     1      30.778 -22.618 -16.154  0.00  0.00    -0.270 OA
ATOM     11  O   UNL     1      32.358 -25.345 -12.834  0.00  0.00    -0.270 OA
ATOM     12  N   UNL     1      31.208 -23.997 -14.336  0.00  0.00    -0.248 N 
ATOM     13  C   UNL     1      32.968 -23.520 -15.708  0.00  0.00    +0.059 C 
ATOM     14  C   UNL     1      33.434 -24.312 -14.724  0.00  0.00    +0.059 C 
ATOM     15  C   UNL     1      31.518 -23.302 -15.467  0.00  0.00    +0.252 C 
ATOM     16  C   UNL     1      32.298 -24.635 -13.823  0.00  0.00    +0.252 C 
ATOM     17  H   UNL     1      30.308 -24.035 -13.938  0.00  0.00    +0.158 HD
BRANCH  14  19
ATOM     18  N   UNL     1      36.613 -26.002 -14.810  0.00  0.00    -0.312 N 
ATOM     19  C   UNL     1      34.754 -24.820 -14.515  0.00  0.00    +0.020 C 
ATOM     20  C   UNL     1      35.674 -24.475 -13.483  0.00  0.00    +0.015 C 
ATOM     21  C   UNL     1      35.363 -25.762 -15.314  0.00  0.00    +0.062 C 
ATOM     22  C   UNL     1      36.830 -25.229 -13.692  0.00  0.00    +0.048 C 
ATOM     23  C   UNL     1      35.631 -23.588 -12.388  0.00  0.00    +0.001 C 
ATOM     24  C   UNL     1      37.950 -25.141 -12.858  0.00  0.00    +0.015 C 
ATOM     25  C   UNL     1      36.743 -23.490 -11.545  0.00  0.00    +0.000 C 
ATOM     26  C   UNL     1      37.884 -24.256 -11.778  0.00  0.00    +0.001 C 
ATOM     27  H   UNL     1      37.263 -26.635 -15.193  0.00  0.00    +0.152 HD
ENDBRANCH  14  19
ENDBRANCH   4  13
BRANCH   1  28
ATOM     28  C   UNL     1      33.858 -21.724 -20.211  0.00  0.00    +0.093 C 
BRANCH  28  29
ATOM     29  C   UNL     1      33.272 -20.320 -20.320  0.00  0.00    +0.001 C 
BRANCH  29  31
ATOM     30  N   UNL     1      34.254 -18.071 -20.803  0.00  0.00    +0.387 N 
ATOM     31  C   UNL     1      34.087 -19.454 -21.271  0.00  0.00    -0.057 C 
ATOM     32  C   UNL     1      35.531 -19.946 -21.391  0.00  0.00    -0.023 C 
ATOM     33  C   UNL     1      36.371 -18.688 -21.589  0.00  0.00    -0.025 C 
ATOM     34  C   UNL     1      35.374 -17.541 -21.584  0.00  0.00    -0.077 C 
ATOM     35  C   UNL     1      33.056 -17.257 -20.969  0.00  0.00    -0.101 C 
ATOM     36  H   UNL     1      34.432 -18.049 -19.799  0.00  0.00    -0.080 HD
ENDBRANCH  29  31
ENDBRANCH  28  29
ENDBRANCH   1  28
TORSDOF 5
ENDMDL
MODEL 2
REMARK VINA RESULT:     -10.4      9.474     14.143
REMARK  Name = 448642
REMARK  5 active torsions:
REMARK  status: ('A' for Active; 'I' for Inactive)
REMARK    1  A    between atoms: N_1  and  C_28
REMARK    2  A    between atoms: C_4  and  C_13
REMARK    3  A    between atoms: C_14  and  C_19
REMARK    4  A    between atoms: C_28  and  C_29
REMARK    5  A    between atoms: C_29  and  C_31
REMARK                            x       y       z     vdW  Elec       q    Type
REMARK                         _______ _______ _______ _____ _____    ______ ____
ROOT
ATOM      1  N   UNL     1      33.406 -13.271 -24.992  0.00  0.00    -0.286 N 
ATOM      2  C   UNL     1      34.035 -12.058 -25.086  0.00  0.00    +0.052 C 
ATOM      3  C   UNL     1      32.711 -13.373 -23.825  0.00  0.00    +0.066 C 
ATOM      4  C   UNL     1      32.890 -12.198 -23.133  0.00  0.00    +0.021 C 
ATOM      5  C   UNL     1      33.726 -11.356 -23.918  0.00  0.00    +0.015 C 
ATOM      6  C   UNL     1      34.846 -11.527 -26.095  0.00  0.00    +0.015 C 
ATOM      7  C   UNL     1      34.251 -10.058 -23.749  0.00  0.00    +0.001 C 
ATOM      8  C   UNL     1      35.356 -10.239 -25.904  0.00  0.00    +0.001 C 
ATOM      9  C   UNL     1      35.064  -9.515 -24.750  0.00  0.00    +0.000 C 
ENDROOT
BRANCH   4  13
ATOM     10  O   UNL     1      32.803 -14.023 -20.787  0.00  0.00    -0.270 OA
ATOM     11  O   UNL     1      30.671 -10.252 -19.308  0.00  0.00    -0.270 OA
ATOM     12  N   UNL     1      31.681 -12.307 -19.697  0.00  0.00    -0.248 N 
ATOM     13  C   UNL     1      32.316 -11.919 -21.854  0.00  0.00    +0.059 C 
ATOM     14  C   UNL     1      31.679 -10.815 -21.423  0.00  0.00    +0.059 C 
ATOM     15  C   UNL     1      32.323 -12.904 -20.741  0.00  0.00    +0.252 C 
ATOM     16  C   UNL     1      31.261 -11.050 -20.016  0.00  0.00    +0.252 C 
ATOM     17  H   UNL     1      31.538 -12.731 -18.819  0.00  0.00    +0.158 HD
BRANCH  14  19
ATOM     18  N   UNL     1      30.712  -8.166 -23.663  0.00  0.00    -0.312 N 
ATOM     19  C   UNL     1      31.423  -9.586 -22.108  0.00  0.00    +0.020 C 
ATOM     20  C   UNL     1      31.769  -8.265 -21.701  0.00  0.00    +0.015 C 
ATOM     21  C   UNL     1      30.774  -9.490 -23.319  0.00  0.00    +0.062 C 
ATOM     22  C   UNL     1      31.312  -7.395 -22.693  0.00  0.00    +0.048 C 
ATOM     23  C   UNL     1      32.429  -7.728 -20.578  0.00  0.00    +0.001 C 
ATOM     24  C   UNL     1      31.483  -6.008 -22.618  0.00  0.00    +0.015 C 
ATOM     25  C   UNL     1      32.608  -6.342 -20.489  0.00  0.00    +0.000 C 
ATOM     26  C   UNL     1      32.141  -5.498 -21.495  0.00  0.00    +0.001 C 
ATOM     27  H   UNL     1      30.299  -7.815 -24.485  0.00  0.00    +0.152 HD
ENDBRANCH  14  19
ENDBRANCH   4  13
BRANCH   1  28
ATOM     28  C   UNL     1      33.459 -14.323 -26.002  0.00  0.00    +0.093 C 
BRANCH  28  29
ATOM     29  C   UNL     1      33.035 -15.677 -25.440  0.00  0.00    +0.001 C 
BRANCH  29  31
ATOM     30  N   UNL     1      34.405 -16.697 -23.613  0.00  0.00    +0.387 N 
ATOM     31  C   UNL     1      34.245 -16.521 -25.063  0.00  0.00    -0.057 C 
ATOM     32  C   UNL     1      34.111 -17.961 -25.564  0.00  0.00    -0.023 C 
ATOM     33  C   UNL     1      34.805 -18.821 -24.513  0.00  0.00    -0.025 C 
ATOM     34  C   UNL     1      35.311 -17.839 -23.469  0.00  0.00    -0.077 C 
ATOM     35  C   UNL     1      34.928 -15.513 -22.942  0.00  0.00    -0.101 C 
ATOM     36  H   UNL     1      33.502 -16.856 -23.167  0.00  0.00    -0.080 HD
ENDBRANCH  29  31
ENDBRANCH  28  29
ENDBRANCH   1  28
TORSDOF 5
ENDMDL
MODEL 3
REMARK VINA RESULT:     -10.4      8.217     13.117
REMARK  Name = 448642
REMARK  5 active torsions:
REMARK  status: ('A' for Active; 'I' for Inactive)
REMARK    1  A    between atoms: N_1  and  C_28
REMARK    2  A    between atoms: C_4  and  C_13
REMARK    3  A    between atoms: C_14  and  C_19
REMARK    4  A    between atoms: C_28  and  C_29
REMARK    5  A    between atoms: C_29  and  C_31
REMARK                            x       y       z     vdW  Elec       q    Type
REMARK                         _______ _______ _______ _____ _____    ______ ____
ROOT
ATOM      1  N   UNL     1      32.796 -11.065 -23.024  0.00  0.00    -0.286 N 
ATOM      2  C   UNL     1      33.725 -10.511 -23.865  0.00  0.00    +0.052 C 
ATOM      3  C   UNL     1      32.508 -12.345 -23.388  0.00  0.00    +0.066 C 
ATOM      4  C   UNL     1      33.265 -12.640 -24.498  0.00  0.00    +0.021 C 
ATOM      5  C   UNL     1      34.040 -11.489 -24.812  0.00  0.00    +0.015 C 
ATOM      6  C   UNL     1      34.307  -9.238 -23.870  0.00  0.00    +0.015 C 
ATOM      7  C   UNL     1      34.984 -11.183 -25.814  0.00  0.00    +0.001 C 
ATOM      8  C   UNL     1      35.239  -8.958 -24.874  0.00  0.00    +0.001 C 
ATOM      9  C   UNL     1      35.574  -9.914 -25.831  0.00  0.00    +0.000 C 
ENDROOT
BRANCH   4  13
ATOM     10  O   UNL     1      32.722 -13.085 -27.388  0.00  0.00    -0.270 OA
ATOM     11  O   UNL     1      33.402 -17.305 -25.748  0.00  0.00    -0.270 OA
ATOM     12  N   UNL     1      33.003 -15.344 -26.927  0.00  0.00    -0.248 N 
ATOM     13  C   UNL     1      33.243 -13.897 -25.180  0.00  0.00    +0.059 C 
ATOM     14  C   UNL     1      33.431 -15.138 -24.696  0.00  0.00    +0.059 C 
ATOM     15  C   UNL     1      32.958 -14.014 -26.634  0.00  0.00    +0.252 C 
ATOM     16  C   UNL     1      33.282 -16.094 -25.823  0.00  0.00    +0.252 C 
ATOM     17  H   UNL     1      32.853 -15.718 -27.826  0.00  0.00    +0.158 HD
BRANCH  14  19
ATOM     18  N   UNL     1      33.754 -15.639 -21.144  0.00  0.00    -0.312 N 
ATOM     19  C   UNL     1      33.744 -15.558 -23.366  0.00  0.00    +0.020 C 
ATOM     20  C   UNL     1      34.608 -16.616 -22.959  0.00  0.00    +0.015 C 
ATOM     21  C   UNL     1      33.236 -14.977 -22.225  0.00  0.00    +0.062 C 
ATOM     22  C   UNL     1      34.596 -16.645 -21.563  0.00  0.00    +0.048 C 
ATOM     23  C   UNL     1      35.400 -17.554 -23.650  0.00  0.00    +0.001 C 
ATOM     24  C   UNL     1      35.339 -17.569 -20.820  0.00  0.00    +0.015 C 
ATOM     25  C   UNL     1      36.150 -18.484 -22.921  0.00  0.00    +0.000 C 
ATOM     26  C   UNL     1      36.118 -18.489 -21.528  0.00  0.00    +0.001 C 
ATOM     27  H   UNL     1      33.554 -15.427 -20.204  0.00  0.00    +0.152 HD
ENDBRANCH  14  19
ENDBRANCH   4  13
BRANCH   1  28
ATOM     28  C   UNL     1      32.190 -10.388 -21.882  0.00  0.00    +0.093 C 
BRANCH  28  29
ATOM     29  C   UNL     1      31.208  -9.304 -22.316  0.00  0.00    +0.001 C 
BRANCH  29  31
ATOM     30  N   UNL     1      31.018  -6.866 -22.844  0.00  0.00    +0.387 N 
ATOM     31  C   UNL     1      31.842  -7.921 -22.237  0.00  0.00    -0.057 C 
ATOM     32  C   UNL     1      31.988  -7.445 -20.790  0.00  0.00    -0.023 C 
ATOM     33  C   UNL     1      31.793  -5.933 -20.841  0.00  0.00    -0.025 C 
ATOM     34  C   UNL     1      31.556  -5.614 -22.308  0.00  0.00    -0.077 C 
ATOM     35  C   UNL     1      31.047  -6.879 -24.302  0.00  0.00    -0.101 C 
ATOM     36  H   UNL     1      30.034  -7.000 -22.614  0.00  0.00    -0.080 HD
ENDBRANCH  29  31
ENDBRANCH  28  29
ENDBRANCH   1  28
TORSDOF 5
ENDMDL
MODEL 4
REMARK VINA RESULT:     -10.2      9.552     16.200
REMARK  Name = 448642
REMARK  5 active torsions:
REMARK  status: ('A' for Active; 'I' for Inactive)
REMARK    1  A    between atoms: N_1  and  C_28
REMARK    2  A    between atoms: C_4  and  C_13
REMARK    3  A    between atoms: C_14  and  C_19
REMARK    4  A    between atoms: C_28  and  C_29
REMARK    5  A    between atoms: C_29  and  C_31
REMARK                            x       y       z     vdW  Elec       q    Type
REMARK                         _______ _______ _______ _____ _____    ______ ____
ROOT
ATOM      1  N   UNL     1      32.495 -11.858 -23.116  0.00  0.00    -0.286 N 
ATOM      2  C   UNL     1      33.422 -11.146 -23.831  0.00  0.00    +0.052 C 
ATOM      3  C   UNL     1      31.933 -11.089 -22.143  0.00  0.00    +0.066 C 
ATOM      4  C   UNL     1      32.505  -9.841 -22.219  0.00  0.00    +0.021 C 
ATOM      5  C   UNL     1      33.450  -9.862 -23.282  0.00  0.00    +0.015 C 
ATOM      6  C   UNL     1      34.232 -11.527 -24.907  0.00  0.00    +0.015 C 
ATOM      7  C   UNL     1      34.330  -8.908 -23.835  0.00  0.00    +0.001 C 
ATOM      8  C   UNL     1      35.096 -10.565 -25.437  0.00  0.00    +0.001 C 
ATOM      9  C   UNL     1      35.146  -9.276 -24.911  0.00  0.00    +0.000 C 
ENDROOT
BRANCH   4  13
ATOM     10  O   UNL     1      32.731  -9.780 -19.254  0.00  0.00    -0.270 OA
ATOM     11  O   UNL     1      31.083  -5.640 -20.303  0.00  0.00    -0.270 OA
ATOM     12  N   UNL     1      31.904  -7.615 -19.396  0.00  0.00    -0.248 N 
ATOM     13  C   UNL     1      32.176  -8.747 -21.358  0.00  0.00    +0.059 C 
ATOM     14  C   UNL     1      31.680  -7.534 -21.665  0.00  0.00    +0.059 C 
ATOM     15  C   UNL     1      32.324  -8.818 -19.881  0.00  0.00    +0.252 C 
ATOM     16  C   UNL     1      31.500  -6.782 -20.397  0.00  0.00    +0.252 C 
ATOM     17  H   UNL     1      31.893  -7.377 -18.440  0.00  0.00    +0.158 HD
BRANCH  14  19
ATOM     18  N   UNL     1      30.747  -6.835 -25.073  0.00  0.00    -0.312 N 
ATOM     19  C   UNL     1      31.374  -6.974 -22.945  0.00  0.00    +0.020 C 
ATOM     20  C   UNL     1      31.450  -5.610 -23.347  0.00  0.00    +0.015 C 
ATOM     21  C   UNL     1      30.938  -7.702 -24.030  0.00  0.00    +0.062 C 
ATOM     22  C   UNL     1      31.052  -5.551 -24.684  0.00  0.00    +0.048 C 
ATOM     23  C   UNL     1      31.821  -4.416 -22.696  0.00  0.00    +0.001 C 
ATOM     24  C   UNL     1      31.006  -4.353 -25.406  0.00  0.00    +0.015 C 
ATOM     25  C   UNL     1      31.781  -3.210 -23.406  0.00  0.00    +0.000 C 
ATOM     26  C   UNL     1      31.380  -3.182 -24.740  0.00  0.00    +0.001 C 
ATOM     27  H   UNL     1      30.436  -7.094 -25.971  0.00  0.00    +0.152 HD
ENDBRANCH  14  19
ENDBRANCH   4  13
BRANCH   1  28
ATOM     28  C   UNL     1      32.143 -13.254 -23.355  0.00  0.00    +0.093 C 
BRANCH  28  29
ATOM     29  C   UNL     1      32.740 -14.183 -22.302  0.00  0.00    +0.001 C 
BRANCH  29  31
ATOM     30  N   UNL     1      34.223 -16.195 -22.209  0.00  0.00    +0.387 N 
ATOM     31  C   UNL     1      33.987 -14.883 -22.827  0.00  0.00    -0.057 C 
ATOM     32  C   UNL     1      33.863 -15.226 -24.313  0.00  0.00    -0.023 C 
ATOM     33  C   UNL     1      34.629 -16.533 -24.490  0.00  0.00    -0.025 C 
ATOM     34  C   UNL     1      35.162 -16.871 -23.108  0.00  0.00    -0.077 C 
ATOM     35  C   UNL     1      34.751 -16.108 -20.853  0.00  0.00    -0.101 C 
ATOM     36  H   UNL     1      33.347 -16.706 -22.103  0.00  0.00    -0.080 HD
ENDBRANCH  29  31
ENDBRANCH  28  29
ENDBRANCH   1  28
TORSDOF 5
ENDMDL
MODEL 5
REMARK VINA RESULT:     -10.2      6.156     12.900
REMARK  Name = 448642
REMARK  5 active torsions:
REMARK  status: ('A' for Active; 'I' for Inactive)
REMARK    1  A    between atoms: N_1  and  C_28
REMARK    2  A    between atoms: C_4  and  C_13
REMARK    3  A    between atoms: C_14  and  C_19
REMARK    4  A    between atoms: C_28  and  C_29
REMARK    5  A    between atoms: C_29  and  C_31
REMARK                            x       y       z     vdW  Elec       q    Type
REMARK                         _______ _______ _______ _____ _____    ______ ____
ROOT
ATOM      1  N   UNL     1      34.950 -16.178 -22.683  0.00  0.00    -0.286 N 
ATOM      2  C   UNL     1      34.114 -15.438 -21.887  0.00  0.00    +0.052 C 
ATOM      3  C   UNL     1      34.758 -15.886 -23.999  0.00  0.00    +0.066 C 
ATOM      4  C   UNL     1      33.770 -14.931 -24.071  0.00  0.00    +0.021 C 
ATOM      5  C   UNL     1      33.353 -14.638 -22.743  0.00  0.00    +0.015 C 
ATOM      6  C   UNL     1      33.968 -15.411 -20.496  0.00  0.00    +0.015 C 
ATOM      7  C   UNL     1      32.398 -13.765 -22.182  0.00  0.00    +0.001 C 
ATOM      8  C   UNL     1      33.014 -14.537 -19.964  0.00  0.00    +0.001 C 
ATOM      9  C   UNL     1      32.241 -13.727 -20.792  0.00  0.00    +0.000 C 
ENDROOT
BRANCH   4  13
ATOM     10  O   UNL     1      32.561 -16.400 -26.358  0.00  0.00    -0.270 OA
ATOM     11  O   UNL     1      32.495 -12.029 -27.717  0.00  0.00    -0.270 OA
ATOM     12  N   UNL     1      32.361 -14.323 -27.377  0.00  0.00    -0.248 N 
ATOM     13  C   UNL     1      33.283 -14.364 -25.290  0.00  0.00    +0.059 C 
ATOM     14  C   UNL     1      33.274 -13.081 -25.695  0.00  0.00    +0.059 C 
ATOM     15  C   UNL     1      32.694 -15.188 -26.378  0.00  0.00    +0.252 C 
ATOM     16  C   UNL     1      32.673 -13.036 -27.053  0.00  0.00    +0.252 C 
ATOM     17  H   UNL     1      31.946 -14.593 -28.228  0.00  0.00    +0.158 HD
BRANCH  14  19
ATOM     18  N   UNL     1      35.015 -10.217 -24.375  0.00  0.00    -0.312 N 
ATOM     19  C   UNL     1      33.717 -11.907 -25.008  0.00  0.00    +0.020 C 
ATOM     20  C   UNL     1      33.015 -11.145 -24.030  0.00  0.00    +0.015 C 
ATOM     21  C   UNL     1      34.944 -11.310 -25.197  0.00  0.00    +0.062 C 
ATOM     22  C   UNL     1      33.851 -10.093 -23.651  0.00  0.00    +0.048 C 
ATOM     23  C   UNL     1      31.744 -11.252 -23.432  0.00  0.00    +0.001 C 
ATOM     24  C   UNL     1      33.477  -9.137 -22.698  0.00  0.00    +0.015 C 
ATOM     25  C   UNL     1      31.357 -10.305 -22.477  0.00  0.00    +0.000 C 
ATOM     26  C   UNL     1      32.212  -9.265 -22.118  0.00  0.00    +0.001 C 
ATOM     27  H   UNL     1      35.787  -9.609 -24.311  0.00  0.00    +0.152 HD
ENDBRANCH  14  19
ENDBRANCH   4  13
BRANCH   1  28
ATOM     28  C   UNL     1      35.924 -17.151 -22.199  0.00  0.00    +0.093 C 
BRANCH  28  29
ATOM     29  C   UNL     1      35.397 -18.580 -22.287  0.00  0.00    +0.001 C 
BRANCH  29  31
ATOM     30  N   UNL     1      34.484 -20.400 -20.834  0.00  0.00    +0.387 N 
ATOM     31  C   UNL     1      35.402 -19.256 -20.922  0.00  0.00    -0.057 C 
ATOM     32  C   UNL     1      36.760 -19.888 -20.607  0.00  0.00    -0.023 C 
ATOM     33  C   UNL     1      36.444 -21.133 -19.784  0.00  0.00    -0.025 C 
ATOM     34  C   UNL     1      34.930 -21.151 -19.658  0.00  0.00    -0.077 C 
ATOM     35  C   UNL     1      33.084 -20.009 -20.718  0.00  0.00    -0.101 C 
ATOM     36  H   UNL     1      34.517 -20.956 -21.688  0.00  0.00    -0.080 HD
ENDBRANCH  29  31
ENDBRANCH  28  29
ENDBRANCH   1  28
TORSDOF 5
ENDMDL
MODEL 6
REMARK VINA RESULT:     -10.1      8.359     13.417
REMARK  Name = 448642
REMARK  5 active torsions:
REMARK  status: ('A' for Active; 'I' for Inactive)
REMARK    1  A    between atoms: N_1  and  C_28
REMARK    2  A    between atoms: C_4  and  C_13
REMARK    3  A    between atoms: C_14  and  C_19
REMARK    4  A    between atoms: C_28  and  C_29
REMARK    5  A    between atoms: C_29  and  C_31
REMARK                            x       y       z     vdW  Elec       q    Type
REMARK                         _______ _______ _______ _____ _____    ______ ____
ROOT
ATOM      1  N   UNL     1      34.161 -10.034 -23.902  0.00  0.00    -0.286 N 
ATOM      2  C   UNL     1      33.134 -10.336 -23.047  0.00  0.00    +0.052 C 
ATOM      3  C   UNL     1      34.406 -11.067 -24.755  0.00  0.00    +0.066 C 
ATOM      4  C   UNL     1      33.518 -12.074 -24.452  0.00  0.00    +0.021 C 
ATOM      5  C   UNL     1      32.707 -11.625 -23.372  0.00  0.00    +0.015 C 
ATOM      6  C   UNL     1      32.552  -9.583 -22.020  0.00  0.00    +0.015 C 
ATOM      7  C   UNL     1      31.645 -12.193 -22.638  0.00  0.00    +0.001 C 
ATOM      8  C   UNL     1      31.502 -10.168 -21.306  0.00  0.00    +0.001 C 
ATOM      9  C   UNL     1      31.054 -11.452 -21.609  0.00  0.00    +0.000 C 
ENDROOT
BRANCH   4  13
ATOM     10  O   UNL     1      32.818 -12.522 -27.308  0.00  0.00    -0.270 OA
ATOM     11  O   UNL     1      33.593 -16.739 -25.704  0.00  0.00    -0.270 OA
ATOM     12  N   UNL     1      33.127 -14.780 -26.861  0.00  0.00    -0.248 N 
ATOM     13  C   UNL     1      33.460 -13.331 -25.131  0.00  0.00    +0.059 C 
ATOM     14  C   UNL     1      33.676 -14.572 -24.657  0.00  0.00    +0.059 C 
ATOM     15  C   UNL     1      33.096 -13.449 -26.567  0.00  0.00    +0.252 C 
ATOM     16  C   UNL     1      33.466 -15.529 -25.774  0.00  0.00    +0.252 C 
ATOM     17  H   UNL     1      32.928 -15.155 -27.750  0.00  0.00    +0.158 HD
BRANCH  14  19
ATOM     18  N   UNL     1      34.422 -14.936 -21.152  0.00  0.00    -0.312 N 
ATOM     19  C   UNL     1      34.062 -14.990 -23.345  0.00  0.00    +0.020 C 
ATOM     20  C   UNL     1      34.607 -16.245 -22.949  0.00  0.00    +0.015 C 
ATOM     21  C   UNL     1      33.962 -14.207 -22.216  0.00  0.00    +0.062 C 
ATOM     22  C   UNL     1      34.822 -16.185 -21.570  0.00  0.00    +0.048 C 
ATOM     23  C   UNL     1      34.936 -17.431 -23.635  0.00  0.00    +0.001 C 
ATOM     24  C   UNL     1      35.353 -17.254 -20.841  0.00  0.00    +0.015 C 
ATOM     25  C   UNL     1      35.469 -18.509 -22.920  0.00  0.00    +0.000 C 
ATOM     26  C   UNL     1      35.673 -18.420 -21.544  0.00  0.00    +0.001 C 
ATOM     27  H   UNL     1      34.461 -14.613 -20.223  0.00  0.00    +0.152 HD
ENDBRANCH  14  19
ENDBRANCH   4  13
BRANCH   1  28
ATOM     28  C   UNL     1      34.902  -8.777 -23.913  0.00  0.00    +0.093 C 
BRANCH  28  29
ATOM     29  C   UNL     1      34.059  -7.613 -23.402  0.00  0.00    +0.001 C 
BRANCH  29  31
ATOM     30  N   UNL     1      32.392  -5.877 -24.085  0.00  0.00    +0.387 N 
ATOM     31  C   UNL     1      33.299  -6.941 -24.538  0.00  0.00    -0.057 C 
ATOM     32  C   UNL     1      34.240  -6.200 -25.491  0.00  0.00    -0.023 C 
ATOM     33  C   UNL     1      33.452  -4.987 -25.973  0.00  0.00    -0.025 C 
ATOM     34  C   UNL     1      32.100  -5.094 -25.288  0.00  0.00    -0.077 C 
ATOM     35  C   UNL     1      31.172  -6.383 -23.468  0.00  0.00    -0.101 C 
ATOM     36  H   UNL     1      32.829  -5.319 -23.352  0.00  0.00    -0.080 HD
ENDBRANCH  29  31
ENDBRANCH  28  29
ENDBRANCH   1  28
TORSDOF 5
ENDMDL
MODEL 7
REMARK VINA RESULT:      -9.8      1.054      1.675
REMARK  Name = 448642
REMARK  5 active torsions:
REMARK  status: ('A' for Active; 'I' for Inactive)
REMARK    1  A    between atoms: N_1  and  C_28
REMARK    2  A    between atoms: C_4  and  C_13
REMARK    3  A    between atoms: C_14  and  C_19
REMARK    4  A    between atoms: C_28  and  C_29
REMARK    5  A    between atoms: C_29  and  C_31
REMARK                            x       y       z     vdW  Elec       q    Type
REMARK                         _______ _______ _______ _____ _____    ______ ____
ROOT
ATOM      1  N   UNL     1      34.492 -22.415 -18.471  0.00  0.00    -0.286 N 
ATOM      2  C   UNL     1      35.490 -22.217 -17.553  0.00  0.00    +0.052 C 
ATOM      3  C   UNL     1      33.396 -22.974 -17.888  0.00  0.00    +0.066 C 
ATOM      4  C   UNL     1      33.680 -23.150 -16.554  0.00  0.00    +0.021 C 
ATOM      5  C   UNL     1      35.002 -22.676 -16.327  0.00  0.00    +0.015 C 
ATOM      6  C   UNL     1      36.772 -21.677 -17.702  0.00  0.00    +0.015 C 
ATOM      7  C   UNL     1      35.835 -22.592 -15.192  0.00  0.00    +0.001 C 
ATOM      8  C   UNL     1      37.579 -21.604 -16.563  0.00  0.00    +0.001 C 
ATOM      9  C   UNL     1      37.119 -22.053 -15.327  0.00  0.00    +0.000 C 
ENDROOT
BRANCH   4  13
ATOM     10  O   UNL     1      30.717 -23.279 -16.780  0.00  0.00    -0.270 OA
ATOM     11  O   UNL     1      31.585 -25.244 -12.738  0.00  0.00    -0.270 OA
ATOM     12  N   UNL     1      30.766 -24.321 -14.705  0.00  0.00    -0.248 N 
ATOM     13  C   UNL     1      32.774 -23.714 -15.603  0.00  0.00    +0.059 C 
ATOM     14  C   UNL     1      33.028 -24.282 -14.409  0.00  0.00    +0.059 C 
ATOM     15  C   UNL     1      31.302 -23.728 -15.809  0.00  0.00    +0.252 C 
ATOM     16  C   UNL     1      31.729 -24.686 -13.812  0.00  0.00    +0.252 C 
ATOM     17  H   UNL     1      29.801 -24.467 -14.569  0.00  0.00    +0.158 HD
BRANCH  14  19
ATOM     18  N   UNL     1      35.903 -24.423 -12.246  0.00  0.00    -0.312 N 
ATOM     19  C   UNL     1      34.280 -24.517 -13.762  0.00  0.00    +0.020 C 
ATOM     20  C   UNL     1      35.366 -25.320 -14.217  0.00  0.00    +0.015 C 
ATOM     21  C   UNL     1      34.643 -23.979 -12.547  0.00  0.00    +0.062 C 
ATOM     22  C   UNL     1      36.369 -25.244 -13.248  0.00  0.00    +0.048 C 
ATOM     23  C   UNL     1      35.589 -26.108 -15.364  0.00  0.00    +0.001 C 
ATOM     24  C   UNL     1      37.589 -25.918 -13.370  0.00  0.00    +0.015 C 
ATOM     25  C   UNL     1      36.805 -26.788 -15.500  0.00  0.00    +0.000 C 
ATOM     26  C   UNL     1      37.788 -26.693 -14.517  0.00  0.00    +0.001 C 
ATOM     27  H   UNL     1      36.404 -24.189 -11.431  0.00  0.00    +0.152 HD
ENDBRANCH  14  19
ENDBRANCH   4  13
BRANCH   1  28
ATOM     28  C   UNL     1      34.576 -22.073 -19.887  0.00  0.00    +0.093 C 
BRANCH  28  29
ATOM     29  C   UNL     1      33.938 -20.720 -20.188  0.00  0.00    +0.001 C 
BRANCH  29  31
ATOM     30  N   UNL     1      34.766 -18.459 -20.867  0.00  0.00    +0.387 N 
ATOM     31  C   UNL     1      34.800 -19.903 -21.141  0.00  0.00    -0.057 C 
ATOM     32  C   UNL     1      36.286 -20.239 -20.993  0.00  0.00    -0.023 C 
ATOM     33  C   UNL     1      37.024 -18.932 -21.263  0.00  0.00    -0.025 C 
ATOM     34  C   UNL     1      35.935 -17.916 -21.562  0.00  0.00    -0.077 C 
ATOM     35  C   UNL     1      33.535 -17.817 -21.310  0.00  0.00    -0.101 C 
ATOM     36  H   UNL     1      34.791 -18.282 -19.863  0.00  0.00    -0.080 HD
ENDBRANCH  29  31
ENDBRANCH  28  29
ENDBRANCH   1  28
TORSDOF 5
ENDMDL
MODEL 8
REMARK VINA RESULT:      -9.5     12.290     16.053
REMARK  Name = 448642
REMARK  5 active torsions:
REMARK  status: ('A' for Active; 'I' for Inactive)
REMARK    1  A    between atoms: N_1  and  C_28
REMARK    2  A    between atoms: C_4  and  C_13
REMARK    3  A    between atoms: C_14  and  C_19
REMARK    4  A    between atoms: C_28  and  C_29
REMARK    5  A    between atoms: C_29  and  C_31
REMARK                            x       y       z     vdW  Elec       q    Type
REMARK                         _______ _______ _______ _____ _____    ______ ____
ROOT
ATOM      1  N   UNL     1      31.113  -7.313 -23.356  0.00  0.00    -0.286 N 
ATOM      2  C   UNL     1      31.601  -7.059 -22.101  0.00  0.00    +0.052 C 
ATOM      3  C   UNL     1      31.154  -8.645 -23.637  0.00  0.00    +0.066 C 
ATOM      4  C   UNL     1      31.683  -9.283 -22.539  0.00  0.00    +0.021 C 
ATOM      5  C   UNL     1      31.971  -8.293 -21.559  0.00  0.00    +0.015 C 
ATOM      6  C   UNL     1      31.746  -5.854 -21.405  0.00  0.00    +0.015 C 
ATOM      7  C   UNL     1      32.512  -8.326 -20.258  0.00  0.00    +0.001 C 
ATOM      8  C   UNL     1      32.285  -5.912 -20.116  0.00  0.00    +0.001 C 
ATOM      9  C   UNL     1      32.663  -7.128 -19.550  0.00  0.00    +0.000 C 
ENDROOT
BRANCH   4  13
ATOM     10  O   UNL     1      30.232 -11.179 -20.765  0.00  0.00    -0.270 OA
ATOM     11  O   UNL     1      33.200 -13.846 -23.009  0.00  0.00    -0.270 OA
ATOM     12  N   UNL     1      31.580 -12.826 -21.693  0.00  0.00    -0.248 N 
ATOM     13  C   UNL     1      31.887 -10.695 -22.448  0.00  0.00    +0.059 C 
ATOM     14  C   UNL     1      32.768 -11.478 -23.099  0.00  0.00    +0.059 C 
ATOM     15  C   UNL     1      31.107 -11.559 -21.524  0.00  0.00    +0.252 C 
ATOM     16  C   UNL     1      32.578 -12.872 -22.621  0.00  0.00    +0.252 C 
ATOM     17  H   UNL     1      31.242 -13.613 -21.206  0.00  0.00    +0.158 HD
BRANCH  14  19
ATOM     18  N   UNL     1      35.389 -10.064 -25.124  0.00  0.00    -0.312 N 
ATOM     19  C   UNL     1      33.729 -11.129 -24.098  0.00  0.00    +0.020 C 
ATOM     20  C   UNL     1      33.944 -11.747 -25.363  0.00  0.00    +0.015 C 
ATOM     21  C   UNL     1      34.634 -10.097 -23.981  0.00  0.00    +0.062 C 
ATOM     22  C   UNL     1      34.989 -11.060 -25.986  0.00  0.00    +0.048 C 
ATOM     23  C   UNL     1      33.346 -12.829 -26.039  0.00  0.00    +0.001 C 
ATOM     24  C   UNL     1      35.467 -11.403 -27.255  0.00  0.00    +0.015 C 
ATOM     25  C   UNL     1      33.813 -13.183 -27.310  0.00  0.00    +0.000 C 
ATOM     26  C   UNL     1      34.858 -12.479 -27.906  0.00  0.00    +0.001 C 
ATOM     27  H   UNL     1      36.112  -9.421 -25.303  0.00  0.00    +0.152 HD
ENDBRANCH  14  19
ENDBRANCH   4  13
BRANCH   1  28
ATOM     28  C   UNL     1      30.610  -6.301 -24.280  0.00  0.00    +0.093 C 
BRANCH  28  29
ATOM     29  C   UNL     1      31.614  -5.173 -24.495  0.00  0.00    +0.001 C 
BRANCH  29  31
ATOM     30  N   UNL     1      33.065  -4.255 -26.314  0.00  0.00    +0.387 N 
ATOM     31  C   UNL     1      32.529  -5.466 -25.677  0.00  0.00    -0.057 C 
ATOM     32  C   UNL     1      33.795  -6.209 -25.244  0.00  0.00    -0.023 C 
ATOM     33  C   UNL     1      34.893  -5.711 -26.178  0.00  0.00    -0.025 C 
ATOM     34  C   UNL     1      34.208  -4.720 -27.104  0.00  0.00    -0.077 C 
ATOM     35  C   UNL     1      32.089  -3.560 -27.145  0.00  0.00    -0.101 C 
ATOM     36  H   UNL     1      33.330  -3.565 -25.612  0.00  0.00    -0.080 HD
ENDBRANCH  29  31
ENDBRANCH  28  29
ENDBRANCH   1  28
TORSDOF 5
ENDMDL
MODEL 9
REMARK VINA RESULT:      -9.2     11.287     15.577
REMARK  Name = 448642
REMARK  5 active torsions:
REMARK  status: ('A' for Active; 'I' for Inactive)
REMARK    1  A    between atoms: N_1  and  C_28
REMARK    2  A    between atoms: C_4  and  C_13
REMARK    3  A    between atoms: C_14  and  C_19
REMARK    4  A    between atoms: C_28  and  C_29
REMARK    5  A    between atoms: C_29  and  C_31
REMARK                            x       y       z     vdW  Elec       q    Type
REMARK                         _______ _______ _______ _____ _____    ______ ____
ROOT
ATOM      1  N   UNL     1      31.293  -8.182 -23.266  0.00  0.00    -0.286 N 
ATOM      2  C   UNL     1      31.743  -7.711 -22.060  0.00  0.00    +0.052 C 
ATOM      3  C   UNL     1      31.302  -9.543 -23.293  0.00  0.00    +0.066 C 
ATOM      4  C   UNL     1      31.771  -9.978 -22.075  0.00  0.00    +0.021 C 
ATOM      5  C   UNL     1      32.055  -8.830 -21.284  0.00  0.00    +0.015 C 
ATOM      6  C   UNL     1      31.900  -6.400 -21.594  0.00  0.00    +0.015 C 
ATOM      7  C   UNL     1      32.547  -8.633 -19.978  0.00  0.00    +0.001 C 
ATOM      8  C   UNL     1      32.390  -6.230 -20.296  0.00  0.00    +0.001 C 
ATOM      9  C   UNL     1      32.709  -7.327 -19.500  0.00  0.00    +0.000 C 
ENDROOT
BRANCH   4  13
ATOM     10  O   UNL     1      31.004 -11.239 -19.492  0.00  0.00    -0.270 OA
ATOM     11  O   UNL     1      32.785 -14.699 -21.904  0.00  0.00    -0.270 OA
ATOM     12  N   UNL     1      31.827 -13.213 -20.397  0.00  0.00    -0.248 N 
ATOM     13  C   UNL     1      31.929 -11.353 -21.714  0.00  0.00    +0.059 C 
ATOM     14  C   UNL     1      32.463 -12.368 -22.419  0.00  0.00    +0.059 C 
ATOM     15  C   UNL     1      31.513 -11.887 -20.392  0.00  0.00    +0.252 C 
ATOM     16  C   UNL     1      32.401 -13.589 -21.575  0.00  0.00    +0.252 C 
ATOM     17  H   UNL     1      31.660 -13.825 -19.643  0.00  0.00    +0.158 HD
BRANCH  14  19
ATOM     18  N   UNL     1      33.398 -13.012 -25.837  0.00  0.00    -0.312 N 
ATOM     19  C   UNL     1      32.995 -12.373 -23.746  0.00  0.00    +0.020 C 
ATOM     20  C   UNL     1      33.884 -11.432 -24.339  0.00  0.00    +0.015 C 
ATOM     21  C   UNL     1      32.715 -13.333 -24.694  0.00  0.00    +0.062 C 
ATOM     22  C   UNL     1      34.120 -11.855 -25.648  0.00  0.00    +0.048 C 
ATOM     23  C   UNL     1      34.512 -10.255 -23.883  0.00  0.00    +0.001 C 
ATOM     24  C   UNL     1      34.955 -11.158 -26.529  0.00  0.00    +0.015 C 
ATOM     25  C   UNL     1      35.351  -9.548 -24.752  0.00  0.00    +0.000 C 
ATOM     26  C   UNL     1      35.567  -9.995 -26.054  0.00  0.00    +0.001 C 
ATOM     27  H   UNL     1      33.375 -13.533 -26.672  0.00  0.00    +0.152 HD
ENDBRANCH  14  19
ENDBRANCH   4  13
BRANCH   1  28
ATOM     28  C   UNL     1      30.855  -7.349 -24.381  0.00  0.00    +0.093 C 
BRANCH  28  29
ATOM     29  C   UNL     1      32.030  -6.841 -25.211  0.00  0.00    +0.001 C 
BRANCH  29  31
ATOM     30  N   UNL     1      32.544  -4.642 -26.288  0.00  0.00    +0.387 N 
ATOM     31  C   UNL     1      32.223  -5.341 -25.035  0.00  0.00    -0.057 C 
ATOM     32  C   UNL     1      30.932  -4.651 -24.586  0.00  0.00    -0.023 C 
ATOM     33  C   UNL     1      30.965  -3.271 -25.235  0.00  0.00    -0.025 C 
ATOM     34  C   UNL     1      32.270  -3.230 -26.013  0.00  0.00    -0.077 C 
ATOM     35  C   UNL     1      33.920  -4.844 -26.724  0.00  0.00    -0.101 C 
ATOM     36  H   UNL     1      31.984  -5.007 -27.058  0.00  0.00    -0.080 HD
ENDBRANCH  29  31
ENDBRANCH  28  29
ENDBRANCH   1  28
TORSDOF 5
ENDMDL
