MODEL 1
REMARK VINA RESULT:     -12.1      0.000      0.000
REMARK  Name = 86764100
REMARK  4 active torsions:
REMARK  status: ('A' for Active; 'I' for Inactive)
REMARK    1  A    between atoms: C_1  and  C_12
REMARK    2  A    between atoms: C_5  and  O_19
REMARK    3  A    between atoms: O_19  and  C_21
REMARK    4  A    between atoms: C_22  and  C_29
REMARK                            x       y       z     vdW  Elec       q    Type
REMARK                         _______ _______ _______ _____ _____    ______ ____
ROOT
ATOM      1  C   UNL     1      35.218 -18.841 -21.386  0.00  0.00    +0.012 C 
ATOM      2  C   UNL     1      34.251 -19.680 -20.831  0.00  0.00    -0.017 C 
ATOM      3  C   UNL     1      36.568 -19.056 -21.111  0.00  0.00    +0.004 C 
ATOM      4  C   UNL     1      34.634 -20.734 -20.002  0.00  0.00    +0.033 C 
ATOM      5  C   UNL     1      35.985 -20.949 -19.728  0.00  0.00    +0.147 C 
ATOM      6  C   UNL     1      36.952 -20.111 -20.282  0.00  0.00    +0.038 C 
ATOM      7  C   UNL     1      32.794 -19.478 -21.105  0.00  0.00    +0.031 C 
ENDROOT
BRANCH   1  12
ATOM      8  O   UNL     1      34.249 -17.090 -25.747  0.00  0.00    -0.246 OA
ATOM      9  O   UNL     1      34.069 -14.246 -22.167  0.00  0.00    -0.267 OA
ATOM     10  N   UNL     1      34.723 -17.962 -23.632  0.00  0.00    -0.280 N 
ATOM     11  N   UNL     1      34.165 -15.693 -23.945  0.00  0.00    -0.275 N 
ATOM     12  C   UNL     1      34.849 -17.727 -22.258  0.00  0.00    +0.064 A 
ATOM     13  C   UNL     1      34.644 -16.509 -21.710  0.00  0.00    +0.050 A 
ATOM     14  C   UNL     1      34.374 -16.939 -24.529  0.00  0.00    +0.331 A 
ATOM     15  C   UNL     1      34.268 -15.376 -22.606  0.00  0.00    +0.258 A 
ATOM     16  C   UNL     1      34.961 -19.306 -24.162  0.00  0.00    +0.135 C 
ATOM     17  C   UNL     1      34.754 -16.156 -20.251  0.00  0.00    +0.038 C 
ATOM     18  H   UNL     1      33.918 -14.959 -24.552  0.00  0.00    +0.173 HD
ENDBRANCH   1  12
BRANCH   5  19
ATOM     19  O   UNL     1      36.359 -21.977 -18.918  0.00  0.00    -0.436 OA
BRANCH  19  21
ATOM     20  N   UNL     1      34.225 -22.762 -18.432  0.00  0.00    -0.210 NA
ATOM     21  C   UNL     1      35.449 -22.416 -17.972  0.00  0.00    +0.234 C 
ATOM     22  C   UNL     1      35.822 -22.479 -16.639  0.00  0.00    +0.125 C 
ATOM     23  C   UNL     1      34.878 -22.923 -15.719  0.00  0.00    +0.010 C 
ATOM     24  C   UNL     1      33.609 -23.288 -16.154  0.00  0.00    +0.021 C 
ATOM     25  C   UNL     1      33.336 -23.190 -17.509  0.00  0.00    +0.102 C 
BRANCH  22  29
ATOM     26  F   UNL     1      38.174 -22.914 -16.633  0.00  0.00    -0.166 F 
ATOM     27  F   UNL     1      37.559 -20.834 -16.588  0.00  0.00    -0.166 F 
ATOM     28  F   UNL     1      37.305 -22.079 -14.823  0.00  0.00    -0.166 F 
ATOM     29  C   UNL     1      37.185 -22.085 -16.184  0.00  0.00    +0.423 C 
ENDBRANCH  22  29
ENDBRANCH  19  21
ENDBRANCH   5  19
TORSDOF 4
ENDMDL
MODEL 2
REMARK VINA RESULT:     -12.1      0.512      2.040
REMARK  Name = 86764100
REMARK  4 active torsions:
REMARK  status: ('A' for Active; 'I' for Inactive)
REMARK    1  A    between atoms: C_1  and  C_12
REMARK    2  A    between atoms: C_5  and  O_19
REMARK    3  A    between atoms: O_19  and  C_21
REMARK    4  A    between atoms: C_22  and  C_29
REMARK                            x       y       z     vdW  Elec       q    Type
REMARK                         _______ _______ _______ _____ _____    ______ ____
ROOT
ATOM      1  C   UNL     1      35.249 -18.909 -21.435  0.00  0.00    +0.012 C 
ATOM      2  C   UNL     1      34.285 -19.728 -20.847  0.00  0.00    -0.017 C 
ATOM      3  C   UNL     1      36.600 -19.112 -21.157  0.00  0.00    +0.004 C 
ATOM      4  C   UNL     1      34.673 -20.751 -19.982  0.00  0.00    +0.033 C 
ATOM      5  C   UNL     1      36.024 -20.954 -19.704  0.00  0.00    +0.147 C 
ATOM      6  C   UNL     1      36.989 -20.135 -20.291  0.00  0.00    +0.038 C 
ATOM      7  C   UNL     1      32.827 -19.539 -21.123  0.00  0.00    +0.031 C 
ENDROOT
BRANCH   1  12
ATOM      8  O   UNL     1      34.107 -14.315 -22.221  0.00  0.00    -0.246 OA
ATOM      9  O   UNL     1      34.229 -17.173 -25.793  0.00  0.00    -0.267 OA
ATOM     10  N   UNL     1      34.666 -16.547 -21.818  0.00  0.00    -0.280 N 
ATOM     11  N   UNL     1      34.176 -15.761 -23.985  0.00  0.00    -0.275 N 
ATOM     12  C   UNL     1      34.876 -17.827 -22.345  0.00  0.00    +0.064 A 
ATOM     13  C   UNL     1      34.744 -18.098 -23.662  0.00  0.00    +0.050 A 
ATOM     14  C   UNL     1      34.304 -15.461 -22.633  0.00  0.00    +0.331 A 
ATOM     15  C   UNL     1      34.363 -16.989 -24.585  0.00  0.00    +0.258 A 
ATOM     16  C   UNL     1      34.824 -16.322 -20.380  0.00  0.00    +0.135 C 
ATOM     17  C   UNL     1      34.948 -19.435 -24.323  0.00  0.00    +0.038 C 
ATOM     18  H   UNL     1      33.924 -15.016 -24.578  0.00  0.00    +0.173 HD
ENDBRANCH   1  12
BRANCH   5  19
ATOM     19  O   UNL     1      36.403 -21.953 -18.860  0.00  0.00    -0.436 OA
BRANCH  19  21
ATOM     20  N   UNL     1      34.252 -22.726 -18.433  0.00  0.00    -0.210 NA
ATOM     21  C   UNL     1      35.471 -22.408 -17.942  0.00  0.00    +0.234 C 
ATOM     22  C   UNL     1      35.820 -22.512 -16.605  0.00  0.00    +0.125 C 
ATOM     23  C   UNL     1      34.855 -22.972 -15.715  0.00  0.00    +0.010 C 
ATOM     24  C   UNL     1      33.590 -23.309 -16.183  0.00  0.00    +0.021 C 
ATOM     25  C   UNL     1      33.341 -23.170 -17.538  0.00  0.00    +0.102 C 
BRANCH  22  29
ATOM     26  F   UNL     1      38.161 -22.997 -16.539  0.00  0.00    -0.166 F 
ATOM     27  F   UNL     1      37.589 -20.905 -16.510  0.00  0.00    -0.166 F 
ATOM     28  F   UNL     1      37.264 -22.143 -14.752  0.00  0.00    -0.166 F 
ATOM     29  C   UNL     1      37.178 -22.148 -16.115  0.00  0.00    +0.423 C 
ENDBRANCH  22  29
ENDBRANCH  19  21
ENDBRANCH   5  19
TORSDOF 4
ENDMDL
MODEL 3
REMARK VINA RESULT:     -12.0      1.882      2.652
REMARK  Name = 86764100
REMARK  4 active torsions:
REMARK  status: ('A' for Active; 'I' for Inactive)
REMARK    1  A    between atoms: C_1  and  C_12
REMARK    2  A    between atoms: C_5  and  O_19
REMARK    3  A    between atoms: O_19  and  C_21
REMARK    4  A    between atoms: C_22  and  C_29
REMARK                            x       y       z     vdW  Elec       q    Type
REMARK                         _______ _______ _______ _____ _____    ______ ____
ROOT
ATOM      1  C   UNL     1      34.649 -18.830 -21.576  0.00  0.00    +0.012 C 
ATOM      2  C   UNL     1      35.850 -19.438 -21.211  0.00  0.00    -0.017 C 
ATOM      3  C   UNL     1      33.436 -19.372 -21.152  0.00  0.00    +0.004 C 
ATOM      4  C   UNL     1      35.838 -20.588 -20.421  0.00  0.00    +0.033 C 
ATOM      5  C   UNL     1      34.624 -21.129 -19.996  0.00  0.00    +0.147 C 
ATOM      6  C   UNL     1      33.423 -20.522 -20.361  0.00  0.00    +0.038 C 
ATOM      7  C   UNL     1      37.169 -18.885 -21.647  0.00  0.00    +0.031 C 
ENDROOT
BRANCH   1  12
ATOM      8  O   UNL     1      34.651 -16.721 -25.886  0.00  0.00    -0.246 OA
ATOM      9  O   UNL     1      34.530 -14.067 -22.160  0.00  0.00    -0.267 OA
ATOM     10  N   UNL     1      34.650 -17.767 -23.797  0.00  0.00    -0.280 N 
ATOM     11  N   UNL     1      34.590 -15.420 -24.012  0.00  0.00    -0.275 N 
ATOM     12  C   UNL     1      34.627 -17.626 -22.404  0.00  0.00    +0.064 A 
ATOM     13  C   UNL     1      34.588 -16.418 -21.799  0.00  0.00    +0.050 A 
ATOM     14  C   UNL     1      34.632 -16.654 -24.654  0.00  0.00    +0.331 A 
ATOM     15  C   UNL     1      34.566 -15.193 -22.652  0.00  0.00    +0.258 A 
ATOM     16  C   UNL     1      34.694 -19.106 -24.389  0.00  0.00    +0.135 C 
ATOM     17  C   UNL     1      34.561 -16.163 -20.316  0.00  0.00    +0.038 C 
ATOM     18  H   UNL     1      34.576 -14.624 -24.591  0.00  0.00    +0.173 HD
ENDBRANCH   1  12
BRANCH   5  19
ATOM     19  O   UNL     1      34.612 -22.251 -19.225  0.00  0.00    -0.436 OA
BRANCH  19  21
ATOM     20  N   UNL     1      36.544 -21.661 -18.073  0.00  0.00    -0.210 NA
ATOM     21  C   UNL     1      35.313 -22.220 -18.031  0.00  0.00    +0.234 C 
ATOM     22  C   UNL     1      34.739 -22.746 -16.886  0.00  0.00    +0.125 C 
ATOM     23  C   UNL     1      35.476 -22.697 -15.706  0.00  0.00    +0.010 C 
ATOM     24  C   UNL     1      36.745 -22.130 -15.710  0.00  0.00    +0.021 C 
ATOM     25  C   UNL     1      37.229 -21.630 -16.908  0.00  0.00    +0.102 C 
BRANCH  22  29
ATOM     26  F   UNL     1      33.003 -23.877 -15.688  0.00  0.00    -0.166 F 
ATOM     27  F   UNL     1      32.387 -22.469 -17.219  0.00  0.00    -0.166 F 
ATOM     28  F   UNL     1      33.261 -24.376 -17.789  0.00  0.00    -0.166 F 
ATOM     29  C   UNL     1      33.378 -23.351 -16.893  0.00  0.00    +0.423 C 
ENDBRANCH  22  29
ENDBRANCH  19  21
ENDBRANCH   5  19
TORSDOF 4
ENDMDL
MODEL 4
REMARK VINA RESULT:     -11.9      1.933      3.339
REMARK  Name = 86764100
REMARK  4 active torsions:
REMARK  status: ('A' for Active; 'I' for Inactive)
REMARK    1  A    between atoms: C_1  and  C_12
REMARK    2  A    between atoms: C_5  and  O_19
REMARK    3  A    between atoms: O_19  and  C_21
REMARK    4  A    between atoms: C_22  and  C_29
REMARK                            x       y       z     vdW  Elec       q    Type
REMARK                         _______ _______ _______ _____ _____    ______ ____
ROOT
ATOM      1  C   UNL     1      34.655 -18.894 -21.590  0.00  0.00    +0.012 C 
ATOM      2  C   UNL     1      35.847 -19.483 -21.168  0.00  0.00    -0.017 C 
ATOM      3  C   UNL     1      33.432 -19.432 -21.191  0.00  0.00    +0.004 C 
ATOM      4  C   UNL     1      35.816 -20.611 -20.348  0.00  0.00    +0.033 C 
ATOM      5  C   UNL     1      34.592 -21.149 -19.949  0.00  0.00    +0.147 C 
ATOM      6  C   UNL     1      33.400 -20.560 -20.370  0.00  0.00    +0.038 C 
ATOM      7  C   UNL     1      37.177 -18.932 -21.575  0.00  0.00    +0.031 C 
ENDROOT
BRANCH   1  12
ATOM      8  O   UNL     1      34.578 -14.128 -22.146  0.00  0.00    -0.246 OA
ATOM      9  O   UNL     1      34.713 -16.758 -25.888  0.00  0.00    -0.267 OA
ATOM     10  N   UNL     1      34.616 -16.447 -21.854  0.00  0.00    -0.280 N 
ATOM     11  N   UNL     1      34.647 -15.462 -23.996  0.00  0.00    -0.275 N 
ATOM     12  C   UNL     1      34.654 -17.712 -22.450  0.00  0.00    +0.064 A 
ATOM     13  C   UNL     1      34.686 -17.881 -23.791  0.00  0.00    +0.050 A 
ATOM     14  C   UNL     1      34.611 -15.268 -22.619  0.00  0.00    +0.331 A 
ATOM     15  C   UNL     1      34.685 -16.669 -24.663  0.00  0.00    +0.258 A 
ATOM     16  C   UNL     1      34.581 -16.334 -20.394  0.00  0.00    +0.135 C 
ATOM     17  C   UNL     1      34.728 -19.194 -24.525  0.00  0.00    +0.038 C 
ATOM     18  H   UNL     1      34.645 -14.652 -24.554  0.00  0.00    +0.173 HD
ENDBRANCH   1  12
BRANCH   5  19
ATOM     19  O   UNL     1      34.561 -22.250 -19.149  0.00  0.00    -0.436 OA
BRANCH  19  21
ATOM     20  N   UNL     1      36.528 -21.647 -18.065  0.00  0.00    -0.210 NA
ATOM     21  C   UNL     1      35.305 -22.219 -17.982  0.00  0.00    +0.234 C 
ATOM     22  C   UNL     1      34.780 -22.757 -16.819  0.00  0.00    +0.125 C 
ATOM     23  C   UNL     1      35.559 -22.708 -15.667  0.00  0.00    +0.010 C 
ATOM     24  C   UNL     1      36.822 -22.128 -15.715  0.00  0.00    +0.021 C 
ATOM     25  C   UNL     1      37.256 -21.617 -16.927  0.00  0.00    +0.102 C 
BRANCH  22  29
ATOM     26  F   UNL     1      32.411 -22.496 -17.034  0.00  0.00    -0.166 F 
ATOM     27  F   UNL     1      33.256 -24.384 -17.688  0.00  0.00    -0.166 F 
ATOM     28  F   UNL     1      33.132 -23.928 -15.565  0.00  0.00    -0.166 F 
ATOM     29  C   UNL     1      33.425 -23.376 -16.780  0.00  0.00    +0.423 C 
ENDBRANCH  22  29
ENDBRANCH  19  21
ENDBRANCH   5  19
TORSDOF 4
ENDMDL
MODEL 5
REMARK VINA RESULT:     -10.5      5.056      8.865
REMARK  Name = 86764100
REMARK  4 active torsions:
REMARK  status: ('A' for Active; 'I' for Inactive)
REMARK    1  A    between atoms: C_1  and  C_12
REMARK    2  A    between atoms: C_5  and  O_19
REMARK    3  A    between atoms: O_19  and  C_21
REMARK    4  A    between atoms: C_22  and  C_29
REMARK                            x       y       z     vdW  Elec       q    Type
REMARK                         _______ _______ _______ _____ _____    ______ ____
ROOT
ATOM      1  C   UNL     1      34.691 -17.974 -21.555  0.00  0.00    +0.012 C 
ATOM      2  C   UNL     1      34.619 -17.844 -22.942  0.00  0.00    -0.017 C 
ATOM      3  C   UNL     1      34.660 -16.839 -20.745  0.00  0.00    +0.004 C 
ATOM      4  C   UNL     1      34.517 -16.578 -23.519  0.00  0.00    +0.033 C 
ATOM      5  C   UNL     1      34.487 -15.443 -22.709  0.00  0.00    +0.147 C 
ATOM      6  C   UNL     1      34.558 -15.573 -21.322  0.00  0.00    +0.038 C 
ATOM      7  C   UNL     1      34.649 -19.039 -23.840  0.00  0.00    +0.031 C 
ENDROOT
BRANCH   1  12
ATOM      8  O   UNL     1      37.350 -21.615 -19.912  0.00  0.00    -0.246 OA
ATOM      9  O   UNL     1      32.797 -21.898 -19.540  0.00  0.00    -0.267 OA
ATOM     10  N   UNL     1      36.072 -19.832 -20.717  0.00  0.00    -0.280 N 
ATOM     11  N   UNL     1      35.077 -21.731 -19.738  0.00  0.00    -0.275 N 
ATOM     12  C   UNL     1      34.799 -19.286 -20.919  0.00  0.00    +0.064 A 
ATOM     13  C   UNL     1      33.669 -19.927 -20.548  0.00  0.00    +0.050 A 
ATOM     14  C   UNL     1      36.252 -21.088 -20.113  0.00  0.00    +0.331 A 
ATOM     15  C   UNL     1      33.788 -21.266 -19.899  0.00  0.00    +0.258 A 
ATOM     16  C   UNL     1      37.257 -19.084 -21.144  0.00  0.00    +0.135 C 
ATOM     17  C   UNL     1      32.261 -19.427 -20.720  0.00  0.00    +0.038 C 
ATOM     18  H   UNL     1      35.176 -22.613 -19.311  0.00  0.00    +0.173 HD
ENDBRANCH   1  12
BRANCH   5  19
ATOM     19  O   UNL     1      34.387 -14.208 -23.272  0.00  0.00    -0.436 OA
BRANCH  19  21
ATOM     20  N   UNL     1      32.871 -13.700 -21.584  0.00  0.00    -0.210 NA
ATOM     21  C   UNL     1      33.442 -13.338 -22.756  0.00  0.00    +0.234 C 
ATOM     22  C   UNL     1      33.133 -12.175 -23.441  0.00  0.00    +0.125 C 
ATOM     23  C   UNL     1      32.176 -11.328 -22.890  0.00  0.00    +0.010 C 
ATOM     24  C   UNL     1      31.567 -11.667 -21.687  0.00  0.00    +0.021 C 
ATOM     25  C   UNL     1      31.947 -12.853 -21.079  0.00  0.00    +0.102 C 
BRANCH  22  29
ATOM     26  F   UNL     1      35.085 -11.406 -24.590  0.00  0.00    -0.166 F 
ATOM     27  F   UNL     1      33.846 -12.858 -25.620  0.00  0.00    -0.166 F 
ATOM     28  F   UNL     1      33.152 -10.811 -25.389  0.00  0.00    -0.166 F 
ATOM     29  C   UNL     1      33.791 -11.822 -24.730  0.00  0.00    +0.423 C 
ENDBRANCH  22  29
ENDBRANCH  19  21
ENDBRANCH   5  19
TORSDOF 4
ENDMDL
MODEL 6
REMARK VINA RESULT:     -10.4      5.077      8.907
REMARK  Name = 86764100
REMARK  4 active torsions:
REMARK  status: ('A' for Active; 'I' for Inactive)
REMARK    1  A    between atoms: C_1  and  C_12
REMARK    2  A    between atoms: C_5  and  O_19
REMARK    3  A    between atoms: O_19  and  C_21
REMARK    4  A    between atoms: C_22  and  C_29
REMARK                            x       y       z     vdW  Elec       q    Type
REMARK                         _______ _______ _______ _____ _____    ______ ____
ROOT
ATOM      1  C   UNL     1      34.711 -17.935 -21.602  0.00  0.00    +0.012 C 
ATOM      2  C   UNL     1      34.596 -17.825 -22.988  0.00  0.00    -0.017 C 
ATOM      3  C   UNL     1      34.707 -16.787 -20.809  0.00  0.00    +0.004 C 
ATOM      4  C   UNL     1      34.477 -16.568 -23.581  0.00  0.00    +0.033 C 
ATOM      5  C   UNL     1      34.473 -15.421 -22.788  0.00  0.00    +0.147 C 
ATOM      6  C   UNL     1      34.587 -15.529 -21.402  0.00  0.00    +0.038 C 
ATOM      7  C   UNL     1      34.596 -19.034 -23.868  0.00  0.00    +0.031 C 
ENDROOT
BRANCH   1  12
ATOM      8  O   UNL     1      32.730 -21.782 -19.528  0.00  0.00    -0.246 OA
ATOM      9  O   UNL     1      37.288 -21.606 -19.893  0.00  0.00    -0.267 OA
ATOM     10  N   UNL     1      33.675 -19.901 -20.542  0.00  0.00    -0.280 N 
ATOM     11  N   UNL     1      35.001 -21.670 -19.724  0.00  0.00    -0.275 N 
ATOM     12  C   UNL     1      34.838 -19.236 -20.950  0.00  0.00    +0.064 A 
ATOM     13  C   UNL     1      36.072 -19.754 -20.760  0.00  0.00    +0.050 A 
ATOM     14  C   UNL     1      33.722 -21.154 -19.907  0.00  0.00    +0.331 A 
ATOM     15  C   UNL     1      36.194 -21.084 -20.093  0.00  0.00    +0.258 A 
ATOM     16  C   UNL     1      32.368 -19.283 -20.776  0.00  0.00    +0.135 C 
ATOM     17  C   UNL     1      37.377 -19.121 -21.161  0.00  0.00    +0.038 C 
ATOM     18  H   UNL     1      35.061 -22.548 -19.282  0.00  0.00    +0.173 HD
ENDBRANCH   1  12
BRANCH   5  19
ATOM     19  O   UNL     1      34.357 -14.194 -23.366  0.00  0.00    -0.436 OA
BRANCH  19  21
ATOM     20  N   UNL     1      32.849 -13.689 -21.669  0.00  0.00    -0.210 NA
ATOM     21  C   UNL     1      33.430 -13.315 -22.832  0.00  0.00    +0.234 C 
ATOM     22  C   UNL     1      33.148 -12.130 -23.493  0.00  0.00    +0.125 C 
ATOM     23  C   UNL     1      32.210 -11.275 -22.925  0.00  0.00    +0.010 C 
ATOM     24  C   UNL     1      31.592 -11.626 -21.729  0.00  0.00    +0.021 C 
ATOM     25  C   UNL     1      31.944 -12.832 -21.147  0.00  0.00    +0.102 C 
BRANCH  22  29
ATOM     26  F   UNL     1      35.117 -11.373 -24.622  0.00  0.00    -0.166 F 
ATOM     27  F   UNL     1      33.857 -12.785 -25.681  0.00  0.00    -0.166 F 
ATOM     28  F   UNL     1      33.197 -10.731 -25.415  0.00  0.00    -0.166 F 
ATOM     29  C   UNL     1      33.816 -11.765 -24.773  0.00  0.00    +0.423 C 
ENDBRANCH  22  29
ENDBRANCH  19  21
ENDBRANCH   5  19
TORSDOF 4
ENDMDL
MODEL 7
REMARK VINA RESULT:     -10.2      4.765      9.059
REMARK  Name = 86764100
REMARK  4 active torsions:
REMARK  status: ('A' for Active; 'I' for Inactive)
REMARK    1  A    between atoms: C_1  and  C_12
REMARK    2  A    between atoms: C_5  and  O_19
REMARK    3  A    between atoms: O_19  and  C_21
REMARK    4  A    between atoms: C_22  and  C_29
REMARK                            x       y       z     vdW  Elec       q    Type
REMARK                         _______ _______ _______ _____ _____    ______ ____
ROOT
ATOM      1  C   UNL     1      34.690 -17.959 -21.604  0.00  0.00    +0.012 C 
ATOM      2  C   UNL     1      34.761 -17.854 -22.993  0.00  0.00    -0.017 C 
ATOM      3  C   UNL     1      34.537 -16.812 -20.825  0.00  0.00    +0.004 C 
ATOM      4  C   UNL     1      34.678 -16.603 -23.604  0.00  0.00    +0.033 C 
ATOM      5  C   UNL     1      34.524 -15.456 -22.825  0.00  0.00    +0.147 C 
ATOM      6  C   UNL     1      34.454 -15.560 -21.436  0.00  0.00    +0.038 C 
ATOM      7  C   UNL     1      34.925 -19.063 -23.859  0.00  0.00    +0.031 C 
ENDROOT
BRANCH   1  12
ATOM      8  O   UNL     1      37.286 -21.574 -19.809  0.00  0.00    -0.246 OA
ATOM      9  O   UNL     1      32.724 -21.820 -19.538  0.00  0.00    -0.267 OA
ATOM     10  N   UNL     1      36.040 -19.803 -20.688  0.00  0.00    -0.280 N 
ATOM     11  N   UNL     1      35.009 -21.671 -19.686  0.00  0.00    -0.275 N 
ATOM     12  C   UNL     1      34.775 -19.254 -20.933  0.00  0.00    +0.064 A 
ATOM     13  C   UNL     1      33.633 -19.880 -20.573  0.00  0.00    +0.050 A 
ATOM     14  C   UNL     1      36.197 -21.045 -20.049  0.00  0.00    +0.331 A 
ATOM     15  C   UNL     1      33.728 -21.203 -19.888  0.00  0.00    +0.258 A 
ATOM     16  C   UNL     1      37.239 -19.073 -21.105  0.00  0.00    +0.135 C 
ATOM     17  C   UNL     1      32.232 -19.375 -20.791  0.00  0.00    +0.038 C 
ATOM     18  H   UNL     1      35.092 -22.543 -19.235  0.00  0.00    +0.173 HD
ENDBRANCH   1  12
BRANCH   5  19
ATOM     19  O   UNL     1      34.443 -14.235 -23.421  0.00  0.00    -0.436 OA
BRANCH  19  21
ATOM     20  N   UNL     1      33.488 -15.339 -25.230  0.00  0.00    -0.210 NA
ATOM     21  C   UNL     1      33.827 -14.161 -24.658  0.00  0.00    +0.234 C 
ATOM     22  C   UNL     1      33.592 -12.924 -25.235  0.00  0.00    +0.125 C 
ATOM     23  C   UNL     1      32.971 -12.892 -26.480  0.00  0.00    +0.010 C 
ATOM     24  C   UNL     1      32.609 -14.083 -27.099  0.00  0.00    +0.021 C 
ATOM     25  C   UNL     1      32.886 -15.269 -26.439  0.00  0.00    +0.102 C 
BRANCH  22  29
ATOM     26  F   UNL     1      33.060 -10.656 -24.690  0.00  0.00    -0.166 F 
ATOM     27  F   UNL     1      34.182 -11.785 -23.216  0.00  0.00    -0.166 F 
ATOM     28  F   UNL     1      35.150 -11.136 -25.051  0.00  0.00    -0.166 F 
ATOM     29  C   UNL     1      33.985 -11.654 -24.562  0.00  0.00    +0.423 C 
ENDBRANCH  22  29
ENDBRANCH  19  21
ENDBRANCH   5  19
TORSDOF 4
ENDMDL
MODEL 8
REMARK VINA RESULT:     -10.0      6.407     10.109
REMARK  Name = 86764100
REMARK  4 active torsions:
REMARK  status: ('A' for Active; 'I' for Inactive)
REMARK    1  A    between atoms: C_1  and  C_12
REMARK    2  A    between atoms: C_5  and  O_19
REMARK    3  A    between atoms: O_19  and  C_21
REMARK    4  A    between atoms: C_22  and  C_29
REMARK                            x       y       z     vdW  Elec       q    Type
REMARK                         _______ _______ _______ _____ _____    ______ ____
ROOT
ATOM      1  C   UNL     1      33.652 -14.637 -22.764  0.00  0.00    +0.012 C 
ATOM      2  C   UNL     1      32.559 -14.338 -21.951  0.00  0.00    -0.017 C 
ATOM      3  C   UNL     1      34.171 -13.666 -23.620  0.00  0.00    +0.004 C 
ATOM      4  C   UNL     1      31.985 -13.068 -21.993  0.00  0.00    +0.033 C 
ATOM      5  C   UNL     1      32.504 -12.097 -22.849  0.00  0.00    +0.147 C 
ATOM      6  C   UNL     1      33.597 -12.395 -23.663  0.00  0.00    +0.038 C 
ATOM      7  C   UNL     1      31.977 -15.355 -21.021  0.00  0.00    +0.031 C 
ENDROOT
BRANCH   1  12
ATOM      8  O   UNL     1      34.903 -18.701 -24.988  0.00  0.00    -0.246 OA
ATOM      9  O   UNL     1      35.965 -18.221 -20.563  0.00  0.00    -0.267 OA
ATOM     10  N   UNL     1      34.286 -16.715 -23.924  0.00  0.00    -0.280 N 
ATOM     11  N   UNL     1      35.422 -18.436 -22.782  0.00  0.00    -0.275 N 
ATOM     12  C   UNL     1      34.276 -15.959 -22.745  0.00  0.00    +0.064 A 
ATOM     13  C   UNL     1      34.819 -16.408 -21.593  0.00  0.00    +0.050 A 
ATOM     14  C   UNL     1      34.867 -17.993 -23.978  0.00  0.00    +0.331 A 
ATOM     15  C   UNL     1      35.455 -17.759 -21.581  0.00  0.00    +0.258 A 
ATOM     16  C   UNL     1      33.678 -16.170 -25.139  0.00  0.00    +0.135 C 
ATOM     17  C   UNL     1      34.859 -15.675 -20.279  0.00  0.00    +0.038 C 
ATOM     18  H   UNL     1      35.836 -19.329 -22.794  0.00  0.00    +0.173 HD
ENDBRANCH   1  12
BRANCH   5  19
ATOM     19  O   UNL     1      31.943 -10.857 -22.890  0.00  0.00    -0.436 OA
BRANCH  19  21
ATOM     20  N   UNL     1      31.429 -10.602 -20.637  0.00  0.00    -0.210 NA
ATOM     21  C   UNL     1      32.007 -10.083 -21.744  0.00  0.00    +0.234 C 
ATOM     22  C   UNL     1      32.639  -8.850 -21.783  0.00  0.00    +0.125 C 
ATOM     23  C   UNL     1      32.680  -8.102 -20.611  0.00  0.00    +0.010 C 
ATOM     24  C   UNL     1      32.097  -8.603 -19.452  0.00  0.00    +0.021 C 
ATOM     25  C   UNL     1      31.490  -9.847 -19.517  0.00  0.00    +0.102 C 
BRANCH  22  29
ATOM     26  F   UNL     1      34.249  -9.122 -23.531  0.00  0.00    -0.166 F 
ATOM     27  F   UNL     1      32.375  -8.166 -24.059  0.00  0.00    -0.166 F 
ATOM     28  F   UNL     1      33.836  -7.097 -22.855  0.00  0.00    -0.166 F 
ATOM     29  C   UNL     1      33.260  -8.323 -23.030  0.00  0.00    +0.423 C 
ENDBRANCH  22  29
ENDBRANCH  19  21
ENDBRANCH   5  19
TORSDOF 4
ENDMDL
MODEL 9
REMARK VINA RESULT:     -10.0      7.102     11.332
REMARK  Name = 86764100
REMARK  4 active torsions:
REMARK  status: ('A' for Active; 'I' for Inactive)
REMARK    1  A    between atoms: C_1  and  C_12
REMARK    2  A    between atoms: C_5  and  O_19
REMARK    3  A    between atoms: O_19  and  C_21
REMARK    4  A    between atoms: C_22  and  C_29
REMARK                            x       y       z     vdW  Elec       q    Type
REMARK                         _______ _______ _______ _____ _____    ______ ____
ROOT
ATOM      1  C   UNL     1      32.915 -13.055 -22.957  0.00  0.00    +0.012 C 
ATOM      2  C   UNL     1      33.305 -11.835 -23.511  0.00  0.00    -0.017 C 
ATOM      3  C   UNL     1      31.884 -13.097 -22.018  0.00  0.00    +0.004 C 
ATOM      4  C   UNL     1      32.664 -10.658 -23.126  0.00  0.00    +0.033 C 
ATOM      5  C   UNL     1      31.634 -10.700 -22.187  0.00  0.00    +0.147 C 
ATOM      6  C   UNL     1      31.243 -11.918 -21.633  0.00  0.00    +0.038 C 
ATOM      7  C   UNL     1      34.405 -11.754 -24.521  0.00  0.00    +0.031 C 
ENDROOT
BRANCH   1  12
ATOM      8  O   UNL     1      33.855 -16.456 -26.209  0.00  0.00    -0.246 OA
ATOM      9  O   UNL     1      35.676 -16.871 -22.031  0.00  0.00    -0.267 OA
ATOM     10  N   UNL     1      33.386 -14.789 -24.640  0.00  0.00    -0.280 N 
ATOM     11  N   UNL     1      34.751 -16.638 -24.118  0.00  0.00    -0.275 N 
ATOM     12  C   UNL     1      33.566 -14.306 -23.338  0.00  0.00    +0.064 A 
ATOM     13  C   UNL     1      34.318 -14.957 -22.423  0.00  0.00    +0.050 A 
ATOM     14  C   UNL     1      33.980 -15.986 -25.075  0.00  0.00    +0.331 A 
ATOM     15  C   UNL     1      34.980 -16.234 -22.819  0.00  0.00    +0.258 A 
ATOM     16  C   UNL     1      32.557 -14.036 -25.583  0.00  0.00    +0.135 C 
ATOM     17  C   UNL     1      34.572 -14.522 -21.004  0.00  0.00    +0.038 C 
ATOM     18  H   UNL     1      35.180 -17.479 -24.398  0.00  0.00    +0.173 HD
ENDBRANCH   1  12
BRANCH   5  19
ATOM     19  O   UNL     1      31.009  -9.550 -21.811  0.00  0.00    -0.436 OA
BRANCH  19  21
ATOM     20  N   UNL     1      31.140  -8.227 -23.718  0.00  0.00    -0.210 NA
ATOM     21  C   UNL     1      31.422  -8.369 -22.403  0.00  0.00    +0.234 C 
ATOM     22  C   UNL     1      32.085  -7.417 -21.646  0.00  0.00    +0.125 C 
ATOM     23  C   UNL     1      32.485  -6.244 -22.278  0.00  0.00    +0.010 C 
ATOM     24  C   UNL     1      32.212  -6.063 -23.629  0.00  0.00    +0.021 C 
ATOM     25  C   UNL     1      31.543  -7.074 -24.298  0.00  0.00    +0.102 C 
BRANCH  22  29
ATOM     26  F   UNL     1      31.249  -7.725 -19.425  0.00  0.00    -0.166 F 
ATOM     27  F   UNL     1      33.087  -8.758 -19.937  0.00  0.00    -0.166 F 
ATOM     28  F   UNL     1      33.097  -6.602 -19.654  0.00  0.00    -0.166 F 
ATOM     29  C   UNL     1      32.371  -7.623 -20.198  0.00  0.00    +0.423 C 
ENDBRANCH  22  29
ENDBRANCH  19  21
ENDBRANCH   5  19
TORSDOF 4
ENDMDL
