MODEL 1
REMARK VINA RESULT:      -7.8      0.000      0.000
REMARK  Name = 10101
REMARK  4 active torsions:
REMARK  status: ('A' for Active; 'I' for Inactive)
REMARK    1  A    between atoms: C_2  and  C_9
REMARK    2  A    between atoms: C_2  and  C_18
REMARK    3  A    between atoms: C_12  and  O_15
REMARK    4  A    between atoms: C_18  and  C_19
REMARK                            x       y       z     vdW  Elec       q    Type
REMARK                         _______ _______ _______ _____ _____    ______ ____
ROOT
ATOM      1  N   UNL     1      31.370 -10.150 -20.639  0.00  0.00    +0.386 N 
ATOM      2  C   UNL     1      32.240  -7.949 -22.453  0.00  0.00    +0.066 C 
ATOM      3  C   UNL     1      32.191  -7.826 -20.908  0.00  0.00    -0.012 C 
ATOM      4  C   UNL     1      31.287  -9.097 -22.872  0.00  0.00    -0.012 C 
ATOM      5  C   UNL     1      32.355  -9.166 -20.182  0.00  0.00    -0.077 C 
ATOM      6  C   UNL     1      31.506 -10.391 -22.079  0.00  0.00    -0.077 C 
ATOM      7  C   UNL     1      31.509 -11.401 -19.895  0.00  0.00    -0.101 C 
ATOM      8  H   UNL     1      30.438  -9.772 -20.466  0.00  0.00    -0.080 HD
ENDROOT
BRANCH   2   9
ATOM      9  C   UNL     1      31.920  -6.596 -23.109  0.00  0.00    -0.013 C 
ATOM     10  C   UNL     1      31.310  -5.592 -22.362  0.00  0.00    +0.033 C 
ATOM     11  C   UNL     1      32.243  -6.381 -24.446  0.00  0.00    -0.004 C 
ATOM     12  C   UNL     1      31.020  -4.364 -22.956  0.00  0.00    +0.133 C 
ATOM     13  C   UNL     1      31.953  -5.153 -25.041  0.00  0.00    +0.003 C 
ATOM     14  C   UNL     1      31.342  -4.144 -24.296  0.00  0.00    +0.037 C 
BRANCH  12  15
ATOM     15  O   UNL     1      30.424  -3.379 -22.229  0.00  0.00    -0.506 OA
ATOM     16  H   UNL     1      29.537  -3.478 -21.945  0.00  0.00    +0.292 HD
ENDBRANCH  12  15
ENDBRANCH   2   9
BRANCH   2  18
ATOM     17  O   UNL     1      34.625  -7.729 -22.464  0.00  0.00    -0.296 OA
ATOM     18  C   UNL     1      33.641  -8.337 -22.883  0.00  0.00    +0.153 C 
BRANCH  18  19
ATOM     19  C   UNL     1      33.745  -9.505 -23.846  0.00  0.00    +0.065 C 
ATOM     20  C   UNL     1      35.086  -9.560 -24.556  0.00  0.00    +0.008 C 
ENDBRANCH  18  19
ENDBRANCH   2  18
TORSDOF 4
ENDMDL
MODEL 2
REMARK VINA RESULT:      -7.8      2.081      5.330
REMARK  Name = 10101
REMARK  4 active torsions:
REMARK  status: ('A' for Active; 'I' for Inactive)
REMARK    1  A    between atoms: C_2  and  C_9
REMARK    2  A    between atoms: C_2  and  C_18
REMARK    3  A    between atoms: C_12  and  O_15
REMARK    4  A    between atoms: C_18  and  C_19
REMARK                            x       y       z     vdW  Elec       q    Type
REMARK                         _______ _______ _______ _____ _____    ______ ____
ROOT
ATOM      1  N   UNL     1      30.974  -5.622 -23.519  0.00  0.00    +0.386 N 
ATOM      2  C   UNL     1      32.172  -8.073 -22.316  0.00  0.00    +0.066 C 
ATOM      3  C   UNL     1      31.205  -8.091 -23.528  0.00  0.00    -0.012 C 
ATOM      4  C   UNL     1      31.953  -6.744 -21.549  0.00  0.00    -0.012 C 
ATOM      5  C   UNL     1      31.235  -6.799 -24.353  0.00  0.00    -0.077 C 
ATOM      6  C   UNL     1      31.975  -5.508 -22.455  0.00  0.00    -0.077 C 
ATOM      7  C   UNL     1      30.952  -4.409 -24.335  0.00  0.00    -0.101 C 
ATOM      8  H   UNL     1      30.058  -5.736 -23.084  0.00  0.00    -0.080 HD
ENDROOT
BRANCH   2   9
ATOM      9  C   UNL     1      31.977  -9.334 -21.457  0.00  0.00    -0.013 C 
ATOM     10  C   UNL     1      31.836 -10.574 -22.072  0.00  0.00    +0.033 C 
ATOM     11  C   UNL     1      31.945  -9.228 -20.069  0.00  0.00    -0.004 C 
ATOM     12  C   UNL     1      31.660 -11.719 -21.294  0.00  0.00    +0.133 C 
ATOM     13  C   UNL     1      31.768 -10.372 -19.290  0.00  0.00    +0.003 C 
ATOM     14  C   UNL     1      31.627 -11.617 -19.903  0.00  0.00    +0.037 C 
BRANCH  12  15
ATOM     15  O   UNL     1      31.523 -12.935 -21.891  0.00  0.00    -0.506 OA
ATOM     16  H   UNL     1      32.141 -13.615 -21.714  0.00  0.00    +0.292 HD
ENDBRANCH  12  15
ENDBRANCH   2   9
BRANCH   2  18
ATOM     17  O   UNL     1      34.525  -7.680 -22.104  0.00  0.00    -0.296 OA
ATOM     18  C   UNL     1      33.604  -8.084 -22.813  0.00  0.00    +0.153 C 
BRANCH  18  19
ATOM     19  C   UNL     1      33.820  -8.618 -24.216  0.00  0.00    +0.065 C 
ATOM     20  C   UNL     1      34.987  -9.587 -24.300  0.00  0.00    +0.008 C 
ENDBRANCH  18  19
ENDBRANCH   2  18
TORSDOF 4
ENDMDL
MODEL 3
REMARK VINA RESULT:      -7.8     15.544     18.141
REMARK  Name = 10101
REMARK  4 active torsions:
REMARK  status: ('A' for Active; 'I' for Inactive)
REMARK    1  A    between atoms: C_2  and  C_9
REMARK    2  A    between atoms: C_2  and  C_18
REMARK    3  A    between atoms: C_12  and  O_15
REMARK    4  A    between atoms: C_18  and  C_19
REMARK                            x       y       z     vdW  Elec       q    Type
REMARK                         _______ _______ _______ _____ _____    ______ ____
ROOT
ATOM      1  N   UNL     1      35.571 -23.504 -12.021  0.00  0.00    +0.386 N 
ATOM      2  C   UNL     1      35.789 -23.677 -14.989  0.00  0.00    +0.066 C 
ATOM      3  C   UNL     1      36.752 -22.849 -14.099  0.00  0.00    -0.012 C 
ATOM      4  C   UNL     1      34.473 -23.890 -14.199  0.00  0.00    -0.012 C 
ATOM      5  C   UNL     1      36.879 -23.388 -12.670  0.00  0.00    -0.077 C 
ATOM      6  C   UNL     1      34.696 -24.408 -12.773  0.00  0.00    -0.077 C 
ATOM      7  C   UNL     1      35.720 -23.966 -10.641  0.00  0.00    -0.101 C 
ATOM      8  H   UNL     1      35.138 -22.580 -12.007  0.00  0.00    -0.080 HD
ENDROOT
BRANCH   2   9
ATOM      9  C   UNL     1      35.599 -22.993 -16.353  0.00  0.00    -0.013 C 
ATOM     10  C   UNL     1      34.371 -23.077 -17.004  0.00  0.00    +0.033 C 
ATOM     11  C   UNL     1      36.654 -22.293 -16.930  0.00  0.00    -0.004 C 
ATOM     12  C   UNL     1      34.197 -22.457 -18.241  0.00  0.00    +0.133 C 
ATOM     13  C   UNL     1      36.482 -21.672 -18.168  0.00  0.00    +0.003 C 
ATOM     14  C   UNL     1      35.253 -21.754 -18.822  0.00  0.00    +0.037 C 
BRANCH  12  15
ATOM     15  O   UNL     1      32.998 -22.535 -18.881  0.00  0.00    -0.506 OA
ATOM     16  H   UNL     1      32.427 -23.260 -18.718  0.00  0.00    +0.292 HD
ENDBRANCH  12  15
ENDBRANCH   2   9
BRANCH   2  18
ATOM     17  O   UNL     1      35.690 -25.990 -15.602  0.00  0.00    -0.296 OA
ATOM     18  C   UNL     1      36.393 -25.042 -15.251  0.00  0.00    +0.153 C 
BRANCH  18  19
ATOM     19  C   UNL     1      37.892 -25.159 -15.055  0.00  0.00    +0.065 C 
ATOM     20  C   UNL     1      38.288 -26.421 -14.309  0.00  0.00    +0.008 C 
ENDBRANCH  18  19
ENDBRANCH   2  18
TORSDOF 4
ENDMDL
MODEL 4
REMARK VINA RESULT:      -7.6      8.011     11.530
REMARK  Name = 10101
REMARK  4 active torsions:
REMARK  status: ('A' for Active; 'I' for Inactive)
REMARK    1  A    between atoms: C_2  and  C_9
REMARK    2  A    between atoms: C_2  and  C_18
REMARK    3  A    between atoms: C_12  and  O_15
REMARK    4  A    between atoms: C_18  and  C_19
REMARK                            x       y       z     vdW  Elec       q    Type
REMARK                         _______ _______ _______ _____ _____    ______ ____
ROOT
ATOM      1  N   UNL     1      33.026 -14.550 -20.694  0.00  0.00    +0.386 N 
ATOM      2  C   UNL     1      34.310 -17.157 -21.362  0.00  0.00    +0.066 C 
ATOM      3  C   UNL     1      32.776 -16.930 -21.343  0.00  0.00    -0.012 C 
ATOM      4  C   UNL     1      34.966 -16.064 -20.481  0.00  0.00    -0.012 C 
ATOM      5  C   UNL     1      32.369 -15.477 -21.619  0.00  0.00    -0.077 C 
ATOM      6  C   UNL     1      34.485 -14.646 -20.811  0.00  0.00    -0.077 C 
ATOM      7  C   UNL     1      32.582 -13.178 -20.940  0.00  0.00    -0.101 C 
ATOM      8  H   UNL     1      32.765 -14.809 -19.743  0.00  0.00    -0.080 HD
ENDROOT
BRANCH   2   9
ATOM      9  C   UNL     1      34.643 -18.595 -20.931  0.00  0.00    -0.013 C 
ATOM     10  C   UNL     1      33.615 -19.492 -20.660  0.00  0.00    +0.033 C 
ATOM     11  C   UNL     1      35.972 -18.993 -20.816  0.00  0.00    -0.004 C 
ATOM     12  C   UNL     1      33.916 -20.797 -20.270  0.00  0.00    +0.133 C 
ATOM     13  C   UNL     1      36.275 -20.297 -20.425  0.00  0.00    +0.003 C 
ATOM     14  C   UNL     1      35.247 -21.199 -20.153  0.00  0.00    +0.037 C 
BRANCH  12  15
ATOM     15  O   UNL     1      32.913 -21.679 -20.004  0.00  0.00    -0.506 OA
ATOM     16  H   UNL     1      32.037 -21.369 -19.885  0.00  0.00    +0.292 HD
ENDBRANCH  12  15
ENDBRANCH   2   9
BRANCH   2  18
ATOM     17  O   UNL     1      35.473 -15.981 -23.094  0.00  0.00    -0.296 OA
ATOM     18  C   UNL     1      34.828 -16.980 -22.775  0.00  0.00    +0.153 C 
BRANCH  18  19
ATOM     19  C   UNL     1      34.504 -18.095 -23.751  0.00  0.00    +0.065 C 
ATOM     20  C   UNL     1      34.523 -17.632 -25.197  0.00  0.00    +0.008 C 
ENDBRANCH  18  19
ENDBRANCH   2  18
TORSDOF 4
ENDMDL
MODEL 5
REMARK VINA RESULT:      -7.5     17.807     19.614
REMARK  Name = 10101
REMARK  4 active torsions:
REMARK  status: ('A' for Active; 'I' for Inactive)
REMARK    1  A    between atoms: C_2  and  C_9
REMARK    2  A    between atoms: C_2  and  C_18
REMARK    3  A    between atoms: C_12  and  O_15
REMARK    4  A    between atoms: C_18  and  C_19
REMARK                            x       y       z     vdW  Elec       q    Type
REMARK                         _______ _______ _______ _____ _____    ______ ____
ROOT
ATOM      1  N   UNL     1      38.707 -25.476 -15.341  0.00  0.00    +0.386 N 
ATOM      2  C   UNL     1      36.007 -24.683 -14.356  0.00  0.00    +0.066 C 
ATOM      3  C   UNL     1      36.359 -26.108 -14.858  0.00  0.00    -0.012 C 
ATOM      4  C   UNL     1      37.038 -23.696 -14.958  0.00  0.00    -0.012 C 
ATOM      5  C   UNL     1      37.841 -26.465 -14.694  0.00  0.00    -0.077 C 
ATOM      6  C   UNL     1      38.492 -24.144 -14.769  0.00  0.00    -0.077 C 
ATOM      7  C   UNL     1      40.111 -25.866 -15.221  0.00  0.00    -0.101 C 
ATOM      8  H   UNL     1      38.465 -25.440 -16.332  0.00  0.00    -0.080 HD
ENDROOT
BRANCH   2   9
ATOM      9  C   UNL     1      34.544 -24.344 -14.688  0.00  0.00    -0.013 C 
ATOM     10  C   UNL     1      33.531 -24.718 -13.810  0.00  0.00    +0.033 C 
ATOM     11  C   UNL     1      34.241 -23.664 -15.864  0.00  0.00    -0.004 C 
ATOM     12  C   UNL     1      32.204 -24.411 -14.110  0.00  0.00    +0.133 C 
ATOM     13  C   UNL     1      32.914 -23.356 -16.165  0.00  0.00    +0.003 C 
ATOM     14  C   UNL     1      31.896 -23.729 -15.288  0.00  0.00    +0.037 C 
BRANCH  12  15
ATOM     15  O   UNL     1      31.209 -24.774 -13.255  0.00  0.00    -0.506 OA
ATOM     16  H   UNL     1      30.360 -24.385 -13.332  0.00  0.00    +0.292 HD
ENDBRANCH  12  15
ENDBRANCH   2   9
BRANCH   2  18
ATOM     17  O   UNL     1      36.317 -25.657 -12.190  0.00  0.00    -0.296 OA
ATOM     18  C   UNL     1      36.148 -24.631 -12.847  0.00  0.00    +0.153 C 
BRANCH  18  19
ATOM     19  C   UNL     1      36.070 -23.254 -12.216  0.00  0.00    +0.065 C 
ATOM     20  C   UNL     1      37.340 -22.877 -11.474  0.00  0.00    +0.008 C 
ENDBRANCH  18  19
ENDBRANCH   2  18
TORSDOF 4
ENDMDL
MODEL 6
REMARK VINA RESULT:      -7.5      7.954     10.487
REMARK  Name = 10101
REMARK  4 active torsions:
REMARK  status: ('A' for Active; 'I' for Inactive)
REMARK    1  A    between atoms: C_2  and  C_9
REMARK    2  A    between atoms: C_2  and  C_18
REMARK    3  A    between atoms: C_12  and  O_15
REMARK    4  A    between atoms: C_18  and  C_19
REMARK                            x       y       z     vdW  Elec       q    Type
REMARK                         _______ _______ _______ _____ _____    ______ ____
ROOT
ATOM      1  N   UNL     1      35.486 -20.387 -19.987  0.00  0.00    +0.386 N 
ATOM      2  C   UNL     1      34.695 -18.030 -21.632  0.00  0.00    +0.066 C 
ATOM      3  C   UNL     1      35.912 -18.043 -20.671  0.00  0.00    -0.012 C 
ATOM      4  C   UNL     1      33.716 -19.144 -21.180  0.00  0.00    -0.012 C 
ATOM      5  C   UNL     1      36.503 -19.440 -20.451  0.00  0.00    -0.077 C 
ATOM      6  C   UNL     1      34.397 -20.501 -20.962  0.00  0.00    -0.077 C 
ATOM      7  C   UNL     1      36.083 -21.698 -19.730  0.00  0.00    -0.101 C 
ATOM      8  H   UNL     1      35.095 -20.033 -19.113  0.00  0.00    -0.080 HD
ENDROOT
BRANCH   2   9
ATOM      9  C   UNL     1      34.068 -16.627 -21.685  0.00  0.00    -0.013 C 
ATOM     10  C   UNL     1      34.587 -15.670 -22.552  0.00  0.00    +0.033 C 
ATOM     11  C   UNL     1      32.984 -16.322 -20.867  0.00  0.00    -0.004 C 
ATOM     12  C   UNL     1      34.019 -14.397 -22.601  0.00  0.00    +0.133 C 
ATOM     13  C   UNL     1      32.415 -15.049 -20.915  0.00  0.00    +0.003 C 
ATOM     14  C   UNL     1      32.932 -14.087 -21.783  0.00  0.00    +0.037 C 
BRANCH  12  15
ATOM     15  O   UNL     1      34.523 -13.457 -23.447  0.00  0.00    -0.506 OA
ATOM     16  H   UNL     1      34.977 -12.713 -23.104  0.00  0.00    +0.292 HD
ENDBRANCH  12  15
ENDBRANCH   2   9
BRANCH   2  18
ATOM     17  O   UNL     1      36.354 -18.385 -23.322  0.00  0.00    -0.296 OA
ATOM     18  C   UNL     1      35.157 -18.369 -23.036  0.00  0.00    +0.153 C 
BRANCH  18  19
ATOM     19  C   UNL     1      34.066 -18.680 -24.042  0.00  0.00    +0.065 C 
ATOM     20  C   UNL     1      34.208 -17.880 -25.325  0.00  0.00    +0.008 C 
ENDBRANCH  18  19
ENDBRANCH   2  18
TORSDOF 4
ENDMDL
MODEL 7
REMARK VINA RESULT:      -7.4      8.329     10.545
REMARK  Name = 10101
REMARK  4 active torsions:
REMARK  status: ('A' for Active; 'I' for Inactive)
REMARK    1  A    between atoms: C_2  and  C_9
REMARK    2  A    between atoms: C_2  and  C_18
REMARK    3  A    between atoms: C_12  and  O_15
REMARK    4  A    between atoms: C_18  and  C_19
REMARK                            x       y       z     vdW  Elec       q    Type
REMARK                         _______ _______ _______ _____ _____    ______ ____
ROOT
ATOM      1  N   UNL     1      35.628 -20.392 -20.690  0.00  0.00    +0.386 N 
ATOM      2  C   UNL     1      34.741 -17.887 -22.041  0.00  0.00    +0.066 C 
ATOM      3  C   UNL     1      33.854 -19.151 -21.898  0.00  0.00    -0.012 C 
ATOM      4  C   UNL     1      36.222 -18.322 -21.899  0.00  0.00    -0.012 C 
ATOM      5  C   UNL     1      34.212 -20.015 -20.683  0.00  0.00    -0.077 C 
ATOM      6  C   UNL     1      36.483 -19.202 -20.671  0.00  0.00    -0.077 C 
ATOM      7  C   UNL     1      35.934 -21.261 -19.553  0.00  0.00    -0.101 C 
ATOM      8  H   UNL     1      35.817 -20.907 -21.550  0.00  0.00    -0.080 HD
ENDROOT
BRANCH   2   9
ATOM      9  C   UNL     1      34.424 -17.155 -23.356  0.00  0.00    -0.013 C 
ATOM     10  C   UNL     1      34.145 -15.792 -23.339  0.00  0.00    +0.033 C 
ATOM     11  C   UNL     1      34.419 -17.860 -24.556  0.00  0.00    -0.004 C 
ATOM     12  C   UNL     1      33.858 -15.127 -24.531  0.00  0.00    +0.133 C 
ATOM     13  C   UNL     1      34.132 -17.196 -25.749  0.00  0.00    +0.003 C 
ATOM     14  C   UNL     1      33.852 -15.830 -25.736  0.00  0.00    +0.037 C 
BRANCH  12  15
ATOM     15  O   UNL     1      33.586 -13.793 -24.520  0.00  0.00    -0.506 OA
ATOM     16  H   UNL     1      33.027 -13.436 -23.859  0.00  0.00    +0.292 HD
ENDBRANCH  12  15
ENDBRANCH   2   9
BRANCH   2  18
ATOM     17  O   UNL     1      35.336 -16.471 -20.203  0.00  0.00    -0.296 OA
ATOM     18  C   UNL     1      34.436 -16.927 -20.908  0.00  0.00    +0.153 C 
BRANCH  18  19
ATOM     19  C   UNL     1      32.975 -16.573 -20.707  0.00  0.00    +0.065 C 
ATOM     20  C   UNL     1      32.776 -15.130 -20.278  0.00  0.00    +0.008 C 
ENDBRANCH  18  19
ENDBRANCH   2  18
TORSDOF 4
ENDMDL
MODEL 8
REMARK VINA RESULT:      -7.3     17.027     19.073
REMARK  Name = 10101
REMARK  4 active torsions:
REMARK  status: ('A' for Active; 'I' for Inactive)
REMARK    1  A    between atoms: C_2  and  C_9
REMARK    2  A    between atoms: C_2  and  C_18
REMARK    3  A    between atoms: C_12  and  O_15
REMARK    4  A    between atoms: C_18  and  C_19
REMARK                            x       y       z     vdW  Elec       q    Type
REMARK                         _______ _______ _______ _____ _____    ______ ____
ROOT
ATOM      1  N   UNL     1      38.759 -25.412 -15.354  0.00  0.00    +0.386 N 
ATOM      2  C   UNL     1      36.077 -24.265 -14.737  0.00  0.00    +0.066 C 
ATOM      3  C   UNL     1      36.357 -25.785 -14.865  0.00  0.00    -0.012 C 
ATOM      4  C   UNL     1      37.193 -23.507 -15.499  0.00  0.00    -0.012 C 
ATOM      5  C   UNL     1      37.805 -26.169 -14.539  0.00  0.00    -0.077 C 
ATOM      6  C   UNL     1      38.607 -23.971 -15.128  0.00  0.00    -0.077 C 
ATOM      7  C   UNL     1      40.129 -25.834 -15.067  0.00  0.00    -0.101 C 
ATOM      8  H   UNL     1      38.560 -25.603 -16.337  0.00  0.00    -0.080 HD
ENDROOT
BRANCH   2   9
ATOM      9  C   UNL     1      34.654 -23.940 -15.221  0.00  0.00    -0.013 C 
ATOM     10  C   UNL     1      34.449 -23.511 -16.529  0.00  0.00    +0.033 C 
ATOM     11  C   UNL     1      33.577 -24.077 -14.349  0.00  0.00    -0.004 C 
ATOM     12  C   UNL     1      33.159 -23.217 -16.970  0.00  0.00    +0.133 C 
ATOM     13  C   UNL     1      32.287 -23.782 -14.789  0.00  0.00    +0.003 C 
ATOM     14  C   UNL     1      32.078 -23.353 -16.099  0.00  0.00    +0.037 C 
BRANCH  12  15
ATOM     15  O   UNL     1      32.954 -22.798 -18.249  0.00  0.00    -0.506 OA
ATOM     16  H   UNL     1      33.284 -23.304 -18.965  0.00  0.00    +0.292 HD
ENDBRANCH  12  15
ENDBRANCH   2   9
BRANCH   2  18
ATOM     17  O   UNL     1      36.446 -22.705 -12.958  0.00  0.00    -0.296 OA
ATOM     18  C   UNL     1      36.159 -23.858 -13.279  0.00  0.00    +0.153 C 
BRANCH  18  19
ATOM     19  C   UNL     1      35.870 -24.947 -12.264  0.00  0.00    +0.065 C 
ATOM     20  C   UNL     1      35.664 -24.400 -10.862  0.00  0.00    +0.008 C 
ENDBRANCH  18  19
ENDBRANCH   2  18
TORSDOF 4
ENDMDL
MODEL 9
REMARK VINA RESULT:      -7.1     16.677     18.623
REMARK  Name = 10101
REMARK  4 active torsions:
REMARK  status: ('A' for Active; 'I' for Inactive)
REMARK    1  A    between atoms: C_2  and  C_9
REMARK    2  A    between atoms: C_2  and  C_18
REMARK    3  A    between atoms: C_12  and  O_15
REMARK    4  A    between atoms: C_18  and  C_19
REMARK                            x       y       z     vdW  Elec       q    Type
REMARK                         _______ _______ _______ _____ _____    ______ ____
ROOT
ATOM      1  N   UNL     1      37.313 -25.171 -13.632  0.00  0.00    +0.386 N 
ATOM      2  C   UNL     1      34.831 -24.017 -14.815  0.00  0.00    +0.066 C 
ATOM      3  C   UNL     1      35.467 -23.522 -13.490  0.00  0.00    -0.012 C 
ATOM      4  C   UNL     1      35.328 -25.462 -15.074  0.00  0.00    -0.012 C 
ATOM      5  C   UNL     1      36.979 -23.762 -13.411  0.00  0.00    -0.077 C 
ATOM      6  C   UNL     1      36.849 -25.614 -14.951  0.00  0.00    -0.077 C 
ATOM      7  C   UNL     1      38.753 -25.387 -13.497  0.00  0.00    -0.101 C 
ATOM      8  H   UNL     1      36.834 -25.728 -12.923  0.00  0.00    -0.080 HD
ENDROOT
BRANCH   2   9
ATOM      9  C   UNL     1      33.301 -23.880 -14.759  0.00  0.00    -0.013 C 
ATOM     10  C   UNL     1      32.589 -24.489 -13.729  0.00  0.00    +0.033 C 
ATOM     11  C   UNL     1      32.635 -23.146 -15.737  0.00  0.00    -0.004 C 
ATOM     12  C   UNL     1      31.201 -24.364 -13.677  0.00  0.00    +0.133 C 
ATOM     13  C   UNL     1      31.246 -23.022 -15.686  0.00  0.00    +0.003 C 
ATOM     14  C   UNL     1      30.530 -23.630 -14.655  0.00  0.00    +0.037 C 
BRANCH  12  15
ATOM     15  O   UNL     1      30.500 -24.958 -12.671  0.00  0.00    -0.506 OA
ATOM     16  H   UNL     1      30.882 -25.037 -11.819  0.00  0.00    +0.292 HD
ENDBRANCH  12  15
ENDBRANCH   2   9
BRANCH   2  18
ATOM     17  O   UNL     1      34.974 -23.384 -17.121  0.00  0.00    -0.296 OA
ATOM     18  C   UNL     1      35.318 -23.153 -15.962  0.00  0.00    +0.153 C 
BRANCH  18  19
ATOM     19  C   UNL     1      36.240 -22.007 -15.590  0.00  0.00    +0.065 C 
ATOM     20  C   UNL     1      37.215 -21.658 -16.700  0.00  0.00    +0.008 C 
ENDBRANCH  18  19
ENDBRANCH   2  18
TORSDOF 4
ENDMDL
