MODEL 1
REMARK VINA RESULT:      -5.6      0.000      0.000
REMARK  Name = 445032
REMARK  6 active torsions:
REMARK  status: ('A' for Active; 'I' for Inactive)
REMARK    1  A    between atoms: C_1  and  C_2
REMARK    2  A    between atoms: C_1  and  C_13
REMARK    3  A    between atoms: C_2  and  C_3
REMARK    4  A    between atoms: C_3  and  N_4
REMARK    5  A    between atoms: C_13  and  C_16
REMARK    6  A    between atoms: C_13  and  N_19
REMARK                            x       y       z     vdW  Elec       q    Type
REMARK                         _______ _______ _______ _____ _____    ______ ____
ROOT
ATOM      1  C   UNL     1      34.515 -15.503 -20.719  0.00  0.00    -0.011 C 
ENDROOT
BRANCH   1   2
ATOM      2  C   UNL     1      33.064 -15.046 -20.510  0.00  0.00    +0.022 C 
BRANCH   2   3
ATOM      3  C   UNL     1      32.700 -13.864 -21.402  0.00  0.00    +0.100 C 
BRANCH   3   4
ATOM      4  N   UNL     1      32.457 -14.274 -22.783  0.00  0.00    -0.347 N 
ATOM      5  N   UNL     1      32.899 -14.117 -25.170  0.00  0.00    -0.372 N 
ATOM      6  N   UNL     1      34.093 -12.725 -23.622  0.00  0.00    -0.372 N 
ATOM      7  C   UNL     1      33.142 -13.713 -23.861  0.00  0.00    +0.167 C 
ATOM      8  H   UNL     1      31.786 -14.973 -22.960  0.00  0.00    +0.163 HD
ATOM      9  H   UNL     1      32.230 -14.814 -25.353  0.00  0.00    +0.159 HD
ATOM     10  H   UNL     1      33.396 -13.704 -25.913  0.00  0.00    +0.159 HD
ATOM     11  H   UNL     1      34.274 -12.431 -22.700  0.00  0.00    +0.159 HD
ATOM     12  H   UNL     1      34.583 -12.322 -24.375  0.00  0.00    +0.159 HD
ENDBRANCH   3   4
ENDBRANCH   2   3
ENDBRANCH   1   2
BRANCH   1  13
ATOM     13  C   UNL     1      34.595 -16.832 -21.483  0.00  0.00    +0.013 C 
BRANCH  13  16
ATOM     14  O   UNL     1      35.272 -15.638 -23.485  0.00  0.00    -0.278 OA
ATOM     15  N   UNL     1      35.879 -17.843 -23.269  0.00  0.00    -0.330 N 
ATOM     16  C   UNL     1      35.278 -16.681 -22.835  0.00  0.00    +0.199 C 
ATOM     17  H   UNL     1      36.352 -17.860 -24.133  0.00  0.00    +0.145 HD
ATOM     18  H   UNL     1      35.837 -18.656 -22.716  0.00  0.00    +0.145 HD
ENDBRANCH  13  16
BRANCH  13  19
ATOM     19  N   UNL     1      35.416 -17.777 -20.724  0.00  0.00    +0.387 N 
ATOM     20  H   UNL     1      34.919 -18.662 -20.631  0.00  0.00    -0.089 HD
ATOM     21  H   UNL     1      35.606 -17.394 -19.797  0.00  0.00    -0.089 HD
ATOM     22  H   UNL     1      36.297 -17.931 -21.213  0.00  0.00    -0.089 HD
ENDBRANCH  13  19
ENDBRANCH   1  13
TORSDOF 6
ENDMDL
MODEL 2
REMARK VINA RESULT:      -5.6     11.875     13.503
REMARK  Name = 445032
REMARK  6 active torsions:
REMARK  status: ('A' for Active; 'I' for Inactive)
REMARK    1  A    between atoms: C_1  and  C_2
REMARK    2  A    between atoms: C_1  and  C_13
REMARK    3  A    between atoms: C_2  and  C_3
REMARK    4  A    between atoms: C_3  and  N_4
REMARK    5  A    between atoms: C_13  and  C_16
REMARK    6  A    between atoms: C_13  and  N_19
REMARK                            x       y       z     vdW  Elec       q    Type
REMARK                         _______ _______ _______ _____ _____    ______ ____
ROOT
ATOM      1  C   UNL     1      38.387 -25.586 -12.961  0.00  0.00    -0.011 C 
ENDROOT
BRANCH   1   2
ATOM      2  C   UNL     1      38.162 -24.331 -12.107  0.00  0.00    +0.022 C 
BRANCH   2   3
ATOM      3  C   UNL     1      36.681 -24.057 -11.866  0.00  0.00    +0.100 C 
BRANCH   3   4
ATOM      4  N   UNL     1      36.112 -23.187 -12.893  0.00  0.00    -0.347 N 
ATOM      5  N   UNL     1      34.629 -22.794 -14.781  0.00  0.00    -0.372 N 
ATOM      6  N   UNL     1      34.735 -24.960 -13.754  0.00  0.00    -0.372 N 
ATOM      7  C   UNL     1      35.162 -23.637 -13.811  0.00  0.00    +0.167 C 
ATOM      8  H   UNL     1      36.409 -22.249 -12.939  0.00  0.00    +0.163 HD
ATOM      9  H   UNL     1      34.922 -21.856 -14.832  0.00  0.00    +0.159 HD
ATOM     10  H   UNL     1      33.960 -23.136 -15.417  0.00  0.00    +0.159 HD
ATOM     11  H   UNL     1      35.103 -25.566 -13.072  0.00  0.00    +0.159 HD
ATOM     12  H   UNL     1      34.065 -25.288 -14.396  0.00  0.00    +0.159 HD
ENDBRANCH   3   4
ENDBRANCH   2   3
ENDBRANCH   1   2
BRANCH   1  13
ATOM     13  C   UNL     1      38.802 -25.238 -14.398  0.00  0.00    +0.013 C 
BRANCH  13  16
ATOM     14  O   UNL     1      40.549 -25.901 -15.946  0.00  0.00    -0.278 OA
ATOM     15  N   UNL     1      40.745 -26.527 -13.745  0.00  0.00    -0.330 N 
ATOM     16  C   UNL     1      40.112 -25.901 -14.798  0.00  0.00    +0.199 C 
ATOM     17  H   UNL     1      41.602 -26.990 -13.890  0.00  0.00    +0.145 HD
ATOM     18  H   UNL     1      40.340 -26.512 -12.848  0.00  0.00    +0.145 HD
ENDBRANCH  13  16
BRANCH  13  19
ATOM     19  N   UNL     1      37.795 -25.750 -15.329  0.00  0.00    +0.387 N 
ATOM     20  H   UNL     1      38.203 -25.830 -16.260  0.00  0.00    -0.089 HD
ATOM     21  H   UNL     1      37.002 -25.108 -15.359  0.00  0.00    -0.089 HD
ATOM     22  H   UNL     1      37.477 -26.666 -15.017  0.00  0.00    -0.089 HD
ENDBRANCH  13  19
ENDBRANCH   1  13
TORSDOF 6
ENDMDL
MODEL 3
REMARK VINA RESULT:      -5.5     12.711     14.208
REMARK  Name = 445032
REMARK  6 active torsions:
REMARK  status: ('A' for Active; 'I' for Inactive)
REMARK    1  A    between atoms: C_1  and  C_2
REMARK    2  A    between atoms: C_1  and  C_13
REMARK    3  A    between atoms: C_2  and  C_3
REMARK    4  A    between atoms: C_3  and  N_4
REMARK    5  A    between atoms: C_13  and  C_16
REMARK    6  A    between atoms: C_13  and  N_19
REMARK                            x       y       z     vdW  Elec       q    Type
REMARK                         _______ _______ _______ _____ _____    ______ ____
ROOT
ATOM      1  C   UNL     1      36.505 -23.260 -13.473  0.00  0.00    -0.011 C 
ENDROOT
BRANCH   1   2
ATOM      2  C   UNL     1      36.725 -23.700 -14.927  0.00  0.00    +0.022 C 
BRANCH   2   3
ATOM      3  C   UNL     1      36.935 -25.206 -15.046  0.00  0.00    +0.100 C 
BRANCH   3   4
ATOM      4  N   UNL     1      38.340 -25.547 -15.255  0.00  0.00    -0.347 N 
ATOM      5  N   UNL     1      40.509 -26.279 -14.430  0.00  0.00    -0.372 N 
ATOM      6  N   UNL     1      38.656 -26.048 -12.925  0.00  0.00    -0.372 N 
ATOM      7  C   UNL     1      39.173 -25.957 -14.213  0.00  0.00    +0.167 C 
ATOM      8  H   UNL     1      38.714 -25.486 -16.164  0.00  0.00    +0.163 HD
ATOM      9  H   UNL     1      40.888 -26.220 -15.336  0.00  0.00    +0.159 HD
ATOM     10  H   UNL     1      41.075 -26.565 -13.677  0.00  0.00    +0.159 HD
ATOM     11  H   UNL     1      37.712 -25.823 -12.758  0.00  0.00    +0.159 HD
ATOM     12  H   UNL     1      39.233 -26.336 -12.181  0.00  0.00    +0.159 HD
ENDBRANCH   3   4
ENDBRANCH   2   3
ENDBRANCH   1   2
BRANCH   1  13
ATOM     13  C   UNL     1      35.536 -24.191 -12.731  0.00  0.00    +0.013 C 
BRANCH  13  16
ATOM     14  O   UNL     1      35.259 -25.045 -10.476  0.00  0.00    -0.278 OA
ATOM     15  N   UNL     1      36.909 -23.493 -10.862  0.00  0.00    -0.330 N 
ATOM     16  C   UNL     1      35.870 -24.312 -11.251  0.00  0.00    +0.199 C 
ATOM     17  H   UNL     1      37.209 -23.490  -9.925  0.00  0.00    +0.145 HD
ATOM     18  H   UNL     1      37.351 -22.912 -11.522  0.00  0.00    +0.145 HD
ENDBRANCH  13  16
BRANCH  13  19
ATOM     19  N   UNL     1      34.185 -23.630 -12.791  0.00  0.00    +0.387 N 
ATOM     20  H   UNL     1      33.501 -24.384 -12.742  0.00  0.00    -0.089 HD
ATOM     21  H   UNL     1      34.067 -23.121 -13.667  0.00  0.00    -0.089 HD
ATOM     22  H   UNL     1      34.046 -22.993 -12.007  0.00  0.00    -0.089 HD
ENDBRANCH  13  19
ENDBRANCH   1  13
TORSDOF 6
ENDMDL
MODEL 4
REMARK VINA RESULT:      -5.5      8.713     10.348
REMARK  Name = 445032
REMARK  6 active torsions:
REMARK  status: ('A' for Active; 'I' for Inactive)
REMARK    1  A    between atoms: C_1  and  C_2
REMARK    2  A    between atoms: C_1  and  C_13
REMARK    3  A    between atoms: C_2  and  C_3
REMARK    4  A    between atoms: C_3  and  N_4
REMARK    5  A    between atoms: C_13  and  C_16
REMARK    6  A    between atoms: C_13  and  N_19
REMARK                            x       y       z     vdW  Elec       q    Type
REMARK                         _______ _______ _______ _____ _____    ______ ____
ROOT
ATOM      1  C   UNL     1      30.685 -22.858 -16.502  0.00  0.00    -0.011 C 
ENDROOT
BRANCH   1   2
ATOM      2  C   UNL     1      32.066 -23.436 -16.161  0.00  0.00    +0.022 C 
BRANCH   2   3
ATOM      3  C   UNL     1      33.070 -23.230 -17.291  0.00  0.00    +0.100 C 
BRANCH   3   4
ATOM      4  N   UNL     1      32.546 -22.353 -18.335  0.00  0.00    -0.347 N 
ATOM      5  N   UNL     1      32.855 -20.890 -20.254  0.00  0.00    -0.372 N 
ATOM      6  N   UNL     1      34.746 -21.928 -19.205  0.00  0.00    -0.372 N 
ATOM      7  C   UNL     1      33.372 -21.721 -19.266  0.00  0.00    +0.167 C 
ATOM      8  H   UNL     1      31.573 -22.202 -18.385  0.00  0.00    +0.163 HD
ATOM      9  H   UNL     1      31.885 -20.735 -20.309  0.00  0.00    +0.159 HD
ATOM     10  H   UNL     1      33.460 -20.456 -20.898  0.00  0.00    +0.159 HD
ATOM     11  H   UNL     1      35.124 -22.514 -18.510  0.00  0.00    +0.159 HD
ATOM     12  H   UNL     1      35.339 -21.488 -19.855  0.00  0.00    +0.159 HD
ENDBRANCH   3   4
ENDBRANCH   2   3
ENDBRANCH   1   2
BRANCH   1  13
ATOM     13  C   UNL     1      29.557 -23.589 -15.760  0.00  0.00    +0.013 C 
BRANCH  13  16
ATOM     14  O   UNL     1      27.861 -24.114 -17.415  0.00  0.00    -0.278 OA
ATOM     15  N   UNL     1      27.439 -22.425 -15.915  0.00  0.00    -0.330 N 
ATOM     16  C   UNL     1      28.212 -23.432 -16.455  0.00  0.00    +0.199 C 
ATOM     17  H   UNL     1      26.547 -22.236 -16.288  0.00  0.00    +0.145 HD
ATOM     18  H   UNL     1      27.778 -21.897 -15.158  0.00  0.00    +0.145 HD
ENDBRANCH  13  16
BRANCH  13  19
ATOM     19  N   UNL     1      29.837 -25.026 -15.751  0.00  0.00    +0.387 N 
ATOM     20  H   UNL     1      28.992 -25.534 -15.490  0.00  0.00    -0.089 HD
ATOM     21  H   UNL     1      30.575 -25.224 -15.075  0.00  0.00    -0.089 HD
ATOM     22  H   UNL     1      30.139 -25.320 -16.679  0.00  0.00    -0.089 HD
ENDBRANCH  13  19
ENDBRANCH   1  13
TORSDOF 6
ENDMDL
MODEL 5
REMARK VINA RESULT:      -5.5     11.133     12.634
REMARK  Name = 445032
REMARK  6 active torsions:
REMARK  status: ('A' for Active; 'I' for Inactive)
REMARK    1  A    between atoms: C_1  and  C_2
REMARK    2  A    between atoms: C_1  and  C_13
REMARK    3  A    between atoms: C_2  and  C_3
REMARK    4  A    between atoms: C_3  and  N_4
REMARK    5  A    between atoms: C_13  and  C_16
REMARK    6  A    between atoms: C_13  and  N_19
REMARK                            x       y       z     vdW  Elec       q    Type
REMARK                         _______ _______ _______ _____ _____    ______ ____
ROOT
ATOM      1  C   UNL     1      29.077 -24.280 -15.092  0.00  0.00    -0.011 C 
ENDROOT
BRANCH   1   2
ATOM      2  C   UNL     1      30.223 -25.259 -14.803  0.00  0.00    +0.022 C 
BRANCH   2   3
ATOM      3  C   UNL     1      31.032 -24.851 -13.576  0.00  0.00    +0.100 C 
BRANCH   3   4
ATOM      4  N   UNL     1      32.427 -25.273 -13.675  0.00  0.00    -0.347 N 
ATOM      5  N   UNL     1      34.778 -24.805 -14.090  0.00  0.00    -0.372 N 
ATOM      6  N   UNL     1      33.149 -23.050 -14.241  0.00  0.00    -0.372 N 
ATOM      7  C   UNL     1      33.455 -24.386 -14.001  0.00  0.00    +0.167 C 
ATOM      8  H   UNL     1      32.651 -26.217 -13.506  0.00  0.00    +0.163 HD
ATOM      9  H   UNL     1      35.008 -25.747 -13.923  0.00  0.00    +0.159 HD
ATOM     10  H   UNL     1      35.484 -24.160 -14.323  0.00  0.00    +0.159 HD
ATOM     11  H   UNL     1      32.216 -22.741 -14.181  0.00  0.00    +0.159 HD
ATOM     12  H   UNL     1      33.866 -22.416 -14.472  0.00  0.00    +0.159 HD
ENDBRANCH   3   4
ENDBRANCH   2   3
ENDBRANCH   1   2
BRANCH   1  13
ATOM     13  C   UNL     1      29.117 -23.758 -16.535  0.00  0.00    +0.013 C 
BRANCH  13  16
ATOM     14  O   UNL     1      27.395 -22.978 -18.058  0.00  0.00    -0.278 OA
ATOM     15  N   UNL     1      27.270 -22.350 -15.852  0.00  0.00    -0.330 N 
ATOM     16  C   UNL     1      27.846 -23.011 -16.916  0.00  0.00    +0.199 C 
ATOM     17  H   UNL     1      26.442 -21.833 -15.983  0.00  0.00    +0.145 HD
ATOM     18  H   UNL     1      27.685 -22.395 -14.960  0.00  0.00    +0.145 HD
ENDBRANCH  13  16
BRANCH  13  19
ATOM     19  N   UNL     1      30.205 -22.788 -16.668  0.00  0.00    +0.387 N 
ATOM     20  H   UNL     1      31.066 -23.190 -16.298  0.00  0.00    -0.089 HD
ATOM     21  H   UNL     1      29.973 -21.943 -16.146  0.00  0.00    -0.089 HD
ATOM     22  H   UNL     1      30.335 -22.554 -17.652  0.00  0.00    -0.089 HD
ENDBRANCH  13  19
ENDBRANCH   1  13
TORSDOF 6
ENDMDL
MODEL 6
REMARK VINA RESULT:      -5.4      4.463      5.705
REMARK  Name = 445032
REMARK  6 active torsions:
REMARK  status: ('A' for Active; 'I' for Inactive)
REMARK    1  A    between atoms: C_1  and  C_2
REMARK    2  A    between atoms: C_1  and  C_13
REMARK    3  A    between atoms: C_2  and  C_3
REMARK    4  A    between atoms: C_3  and  N_4
REMARK    5  A    between atoms: C_13  and  C_16
REMARK    6  A    between atoms: C_13  and  N_19
REMARK                            x       y       z     vdW  Elec       q    Type
REMARK                         _______ _______ _______ _____ _____    ______ ____
ROOT
ATOM      1  C   UNL     1      35.038 -20.723 -20.121  0.00  0.00    -0.011 C 
ENDROOT
BRANCH   1   2
ATOM      2  C   UNL     1      34.743 -19.470 -20.958  0.00  0.00    +0.022 C 
BRANCH   2   3
ATOM      3  C   UNL     1      36.006 -18.671 -21.261  0.00  0.00    +0.100 C 
BRANCH   3   4
ATOM      4  N   UNL     1      35.972 -18.080 -22.596  0.00  0.00    -0.347 N 
ATOM      5  N   UNL     1      35.365 -16.290 -24.128  0.00  0.00    -0.372 N 
ATOM      6  N   UNL     1      34.814 -16.130 -21.799  0.00  0.00    -0.372 N 
ATOM      7  C   UNL     1      35.387 -16.838 -22.850  0.00  0.00    +0.167 C 
ATOM      8  H   UNL     1      36.377 -18.576 -23.346  0.00  0.00    +0.163 HD
ATOM      9  H   UNL     1      35.767 -16.781 -24.881  0.00  0.00    +0.159 HD
ATOM     10  H   UNL     1      34.945 -15.413 -24.281  0.00  0.00    +0.159 HD
ATOM     11  H   UNL     1      34.823 -16.507 -20.890  0.00  0.00    +0.159 HD
ATOM     12  H   UNL     1      34.398 -15.253 -21.966  0.00  0.00    +0.159 HD
ENDBRANCH   3   4
ENDBRANCH   2   3
ENDBRANCH   1   2
BRANCH   1  13
ATOM     13  C   UNL     1      33.772 -21.550 -19.859  0.00  0.00    +0.013 C 
BRANCH  13  16
ATOM     14  O   UNL     1      34.942 -22.733 -18.092  0.00  0.00    -0.278 OA
ATOM     15  N   UNL     1      32.645 -22.709 -18.055  0.00  0.00    -0.330 N 
ATOM     16  C   UNL     1      33.874 -22.376 -18.584  0.00  0.00    +0.199 C 
ATOM     17  H   UNL     1      32.593 -23.242 -17.229  0.00  0.00    +0.145 HD
ATOM     18  H   UNL     1      31.820 -22.411 -18.502  0.00  0.00    +0.145 HD
ENDBRANCH  13  16
BRANCH  13  19
ATOM     19  N   UNL     1      32.637 -20.647 -19.659  0.00  0.00    +0.387 N 
ATOM     20  H   UNL     1      32.660 -20.278 -18.708  0.00  0.00    -0.089 HD
ATOM     21  H   UNL     1      31.766 -21.158 -19.804  0.00  0.00    -0.089 HD
ATOM     22  H   UNL     1      32.694 -19.877 -20.324  0.00  0.00    -0.089 HD
ENDBRANCH  13  19
ENDBRANCH   1  13
TORSDOF 6
ENDMDL
MODEL 7
REMARK VINA RESULT:      -5.4     12.706     13.831
REMARK  Name = 445032
REMARK  6 active torsions:
REMARK  status: ('A' for Active; 'I' for Inactive)
REMARK    1  A    between atoms: C_1  and  C_2
REMARK    2  A    between atoms: C_1  and  C_13
REMARK    3  A    between atoms: C_2  and  C_3
REMARK    4  A    between atoms: C_3  and  N_4
REMARK    5  A    between atoms: C_13  and  C_16
REMARK    6  A    between atoms: C_13  and  N_19
REMARK                            x       y       z     vdW  Elec       q    Type
REMARK                         _______ _______ _______ _____ _____    ______ ____
ROOT
ATOM      1  C   UNL     1      37.049 -24.872 -15.073  0.00  0.00    -0.011 C 
ENDROOT
BRANCH   1   2
ATOM      2  C   UNL     1      35.559 -25.137 -14.811  0.00  0.00    +0.022 C 
BRANCH   2   3
ATOM      3  C   UNL     1      34.937 -24.077 -13.908  0.00  0.00    +0.100 C 
BRANCH   3   4
ATOM      4  N   UNL     1      35.948 -23.328 -13.167  0.00  0.00    -0.347 N 
ATOM      5  N   UNL     1      37.216 -22.874 -11.140  0.00  0.00    -0.372 N 
ATOM      6  N   UNL     1      35.566 -24.615 -11.173  0.00  0.00    -0.372 N 
ATOM      7  C   UNL     1      36.249 -23.597 -11.831  0.00  0.00    +0.167 C 
ATOM      8  H   UNL     1      36.437 -22.606 -13.626  0.00  0.00    +0.163 HD
ATOM      9  H   UNL     1      37.707 -22.151 -11.594  0.00  0.00    +0.159 HD
ATOM     10  H   UNL     1      37.409 -23.084 -10.198  0.00  0.00    +0.159 HD
ATOM     11  H   UNL     1      34.879 -25.134 -11.650  0.00  0.00    +0.159 HD
ATOM     12  H   UNL     1      35.769 -24.815 -10.230  0.00  0.00    +0.159 HD
ENDBRANCH   3   4
ENDBRANCH   2   3
ENDBRANCH   1   2
BRANCH   1  13
ATOM     13  C   UNL     1      37.934 -26.021 -14.571  0.00  0.00    +0.013 C 
BRANCH  13  16
ATOM     14  O   UNL     1      39.086 -24.527 -13.043  0.00  0.00    -0.278 OA
ATOM     15  N   UNL     1      40.258 -26.286 -13.944  0.00  0.00    -0.330 N 
ATOM     16  C   UNL     1      39.124 -25.523 -13.763  0.00  0.00    +0.199 C 
ATOM     17  H   UNL     1      41.088 -26.055 -13.468  0.00  0.00    +0.145 HD
ATOM     18  H   UNL     1      40.237 -27.063 -14.547  0.00  0.00    +0.145 HD
ENDBRANCH  13  16
BRANCH  13  19
ATOM     19  N   UNL     1      37.159 -26.866 -13.661  0.00  0.00    +0.387 N 
ATOM     20  H   UNL     1      37.747 -27.151 -12.878  0.00  0.00    -0.089 HD
ATOM     21  H   UNL     1      36.834 -27.694 -14.161  0.00  0.00    -0.089 HD
ATOM     22  H   UNL     1      36.357 -26.344 -13.312  0.00  0.00    -0.089 HD
ENDBRANCH  13  19
ENDBRANCH   1  13
TORSDOF 6
ENDMDL
MODEL 8
REMARK VINA RESULT:      -5.4     12.293     13.247
REMARK  Name = 445032
REMARK  6 active torsions:
REMARK  status: ('A' for Active; 'I' for Inactive)
REMARK    1  A    between atoms: C_1  and  C_2
REMARK    2  A    between atoms: C_1  and  C_13
REMARK    3  A    between atoms: C_2  and  C_3
REMARK    4  A    between atoms: C_3  and  N_4
REMARK    5  A    between atoms: C_13  and  C_16
REMARK    6  A    between atoms: C_13  and  N_19
REMARK                            x       y       z     vdW  Elec       q    Type
REMARK                         _______ _______ _______ _____ _____    ______ ____
ROOT
ATOM      1  C   UNL     1      38.112 -24.551 -13.233  0.00  0.00    -0.011 C 
ENDROOT
BRANCH   1   2
ATOM      2  C   UNL     1      37.137 -24.872 -12.091  0.00  0.00    +0.022 C 
BRANCH   2   3
ATOM      3  C   UNL     1      35.918 -23.955 -12.102  0.00  0.00    +0.100 C 
BRANCH   3   4
ATOM      4  N   UNL     1      34.690 -24.681 -12.419  0.00  0.00    -0.347 N 
ATOM      5  N   UNL     1      32.677 -25.000 -13.747  0.00  0.00    -0.372 N 
ATOM      6  N   UNL     1      34.168 -23.183 -14.226  0.00  0.00    -0.372 N 
ATOM      7  C   UNL     1      33.842 -24.296 -13.459  0.00  0.00    +0.167 C 
ATOM      8  H   UNL     1      34.452 -25.470 -11.881  0.00  0.00    +0.163 HD
ATOM      9  H   UNL     1      32.434 -25.789 -13.212  0.00  0.00    +0.159 HD
ATOM     10  H   UNL     1      32.095 -24.707 -14.486  0.00  0.00    +0.159 HD
ATOM     11  H   UNL     1      34.990 -22.677 -14.032  0.00  0.00    +0.159 HD
ATOM     12  H   UNL     1      33.578 -22.902 -14.962  0.00  0.00    +0.159 HD
ENDBRANCH   3   4
ENDBRANCH   2   3
ENDBRANCH   1   2
BRANCH   1  13
ATOM     13  C   UNL     1      38.135 -25.658 -14.296  0.00  0.00    +0.013 C 
BRANCH  13  16
ATOM     14  O   UNL     1      36.358 -24.764 -15.687  0.00  0.00    -0.278 OA
ATOM     15  N   UNL     1      36.238 -26.966 -15.042  0.00  0.00    -0.330 N 
ATOM     16  C   UNL     1      36.837 -25.725 -15.089  0.00  0.00    +0.199 C 
ATOM     17  H   UNL     1      35.392 -27.123 -15.521  0.00  0.00    +0.145 HD
ATOM     18  H   UNL     1      36.657 -27.696 -14.532  0.00  0.00    +0.145 HD
ENDBRANCH  13  16
BRANCH  13  19
ATOM     19  N   UNL     1      39.185 -25.367 -15.274  0.00  0.00    +0.387 N 
ATOM     20  H   UNL     1      39.994 -25.960 -15.091  0.00  0.00    -0.089 HD
ATOM     21  H   UNL     1      39.458 -24.387 -15.198  0.00  0.00    -0.089 HD
ATOM     22  H   UNL     1      38.835 -25.550 -16.214  0.00  0.00    -0.089 HD
ENDBRANCH  13  19
ENDBRANCH   1  13
TORSDOF 6
ENDMDL
MODEL 9
REMARK VINA RESULT:      -5.4      3.737      4.819
REMARK  Name = 445032
REMARK  6 active torsions:
REMARK  status: ('A' for Active; 'I' for Inactive)
REMARK    1  A    between atoms: C_1  and  C_2
REMARK    2  A    between atoms: C_1  and  C_13
REMARK    3  A    between atoms: C_2  and  C_3
REMARK    4  A    between atoms: C_3  and  N_4
REMARK    5  A    between atoms: C_13  and  C_16
REMARK    6  A    between atoms: C_13  and  N_19
REMARK                            x       y       z     vdW  Elec       q    Type
REMARK                         _______ _______ _______ _____ _____    ______ ____
ROOT
ATOM      1  C   UNL     1      34.255 -19.430 -20.849  0.00  0.00    -0.011 C 
ENDROOT
BRANCH   1   2
ATOM      2  C   UNL     1      34.636 -19.371 -22.335  0.00  0.00    +0.022 C 
BRANCH   2   3
ATOM      3  C   UNL     1      35.744 -18.359 -22.606  0.00  0.00    +0.100 C 
BRANCH   3   4
ATOM      4  N   UNL     1      35.282 -16.984 -22.435  0.00  0.00    -0.347 N 
ATOM      5  N   UNL     1      34.546 -14.847 -23.336  0.00  0.00    -0.372 N 
ATOM      6  N   UNL     1      35.132 -16.647 -24.810  0.00  0.00    -0.372 N 
ATOM      7  C   UNL     1      34.986 -16.155 -23.517  0.00  0.00    +0.167 C 
ATOM      8  H   UNL     1      35.176 -16.628 -21.522  0.00  0.00    +0.163 HD
ATOM      9  H   UNL     1      34.438 -14.487 -22.427  0.00  0.00    +0.159 HD
ATOM     10  H   UNL     1      34.344 -14.283 -24.117  0.00  0.00    +0.159 HD
ATOM     11  H   UNL     1      35.442 -17.570 -24.952  0.00  0.00    +0.159 HD
ATOM     12  H   UNL     1      34.926 -16.071 -25.582  0.00  0.00    +0.159 HD
ENDBRANCH   3   4
ENDBRANCH   2   3
ENDBRANCH   1   2
BRANCH   1  13
ATOM     13  C   UNL     1      34.014 -20.869 -20.374  0.00  0.00    +0.013 C 
BRANCH  13  16
ATOM     14  O   UNL     1      35.099 -22.441 -18.876  0.00  0.00    -0.278 OA
ATOM     15  N   UNL     1      36.253 -20.557 -19.505  0.00  0.00    -0.330 N 
ATOM     16  C   UNL     1      35.157 -21.393 -19.515  0.00  0.00    +0.199 C 
ATOM     17  H   UNL     1      37.051 -20.798 -18.982  0.00  0.00    +0.145 HD
ATOM     18  H   UNL     1      36.238 -19.719 -20.022  0.00  0.00    +0.145 HD
ENDBRANCH  13  16
BRANCH  13  19
ATOM     19  N   UNL     1      32.825 -20.904 -19.520  0.00  0.00    +0.387 N 
ATOM     20  H   UNL     1      32.069 -20.389 -19.970  0.00  0.00    -0.089 HD
ATOM     21  H   UNL     1      33.041 -20.473 -18.620  0.00  0.00    -0.089 HD
ATOM     22  H   UNL     1      32.539 -21.871 -19.374  0.00  0.00    -0.089 HD
ENDBRANCH  13  19
ENDBRANCH   1  13
TORSDOF 6
ENDMDL
