MODEL 1
REMARK VINA RESULT:      -4.3      0.000      0.000
REMARK  Name = 6992099
REMARK  4 active torsions:
REMARK  status: ('A' for Active; 'I' for Inactive)
REMARK    1  A    between atoms: C_1  and  C_2
REMARK    2  A    between atoms: C_1  and  C_7
REMARK    3  A    between atoms: C_2  and  N_3
REMARK    4  A    between atoms: C_7  and  C_10
REMARK                            x       y       z     vdW  Elec       q    Type
REMARK                         _______ _______ _______ _____ _____    ______ ____
ROOT
ATOM      1  C   UNL     1      30.090 -23.501 -15.650  0.00  0.00    -0.012 C 
ENDROOT
BRANCH   1   2
ATOM      2  C   UNL     1      30.093 -24.466 -14.471  0.00  0.00    -0.086 C 
BRANCH   2   3
ATOM      3  N   UNL     1      28.903 -25.346 -14.564  0.00  0.00    +0.380 N 
ATOM      4  H   UNL     1      29.035 -26.018 -15.320  0.00  0.00    -0.089 HD
ATOM      5  H   UNL     1      28.076 -24.780 -14.754  0.00  0.00    -0.089 HD
ATOM      6  H   UNL     1      28.779 -25.845 -13.684  0.00  0.00    -0.089 HD
ENDBRANCH   2   3
ENDBRANCH   1   2
BRANCH   1   7
ATOM      7  C   UNL     1      28.843 -22.621 -15.664  0.00  0.00    +0.112 C 
BRANCH   7  10
ATOM      8  O   UNL     1      27.388 -21.677 -17.255  0.00  0.00    -0.246 OA
ATOM      9  O   UNL     1      27.788 -23.923 -17.353  0.00  0.00    -0.246 OA
ATOM     10  C   UNL     1      27.921 -22.761 -16.880  0.00  0.00    +0.365 C 
ENDBRANCH   7  10
ENDBRANCH   1   7
TORSDOF 4
ENDMDL
MODEL 2
REMARK VINA RESULT:      -4.2     10.548     11.397
REMARK  Name = 6992099
REMARK  4 active torsions:
REMARK  status: ('A' for Active; 'I' for Inactive)
REMARK    1  A    between atoms: C_1  and  C_2
REMARK    2  A    between atoms: C_1  and  C_7
REMARK    3  A    between atoms: C_2  and  N_3
REMARK    4  A    between atoms: C_7  and  C_10
REMARK                            x       y       z     vdW  Elec       q    Type
REMARK                         _______ _______ _______ _____ _____    ______ ____
ROOT
ATOM      1  C   UNL     1      38.210 -25.913 -13.565  0.00  0.00    -0.012 C 
ENDROOT
BRANCH   1   2
ATOM      2  C   UNL     1      37.297 -25.600 -14.743  0.00  0.00    -0.086 C 
BRANCH   2   3
ATOM      3  N   UNL     1      37.727 -24.321 -15.359  0.00  0.00    +0.380 N 
ATOM      4  H   UNL     1      38.563 -23.980 -14.886  0.00  0.00    -0.089 HD
ATOM      5  H   UNL     1      36.980 -23.632 -15.269  0.00  0.00    -0.089 HD
ATOM      6  H   UNL     1      37.932 -24.471 -16.347  0.00  0.00    -0.089 HD
ENDBRANCH   2   3
ENDBRANCH   1   2
BRANCH   1   7
ATOM      7  C   UNL     1      39.601 -25.312 -13.744  0.00  0.00    +0.112 C 
BRANCH   7  10
ATOM      8  O   UNL     1      40.508 -25.909 -15.832  0.00  0.00    -0.246 OA
ATOM      9  O   UNL     1      41.358 -26.902 -13.959  0.00  0.00    -0.246 OA
ATOM     10  C   UNL     1      40.593 -26.120 -14.588  0.00  0.00    +0.365 C 
ENDBRANCH   7  10
ENDBRANCH   1   7
TORSDOF 4
ENDMDL
MODEL 3
REMARK VINA RESULT:      -4.2      7.973      8.308
REMARK  Name = 6992099
REMARK  4 active torsions:
REMARK  status: ('A' for Active; 'I' for Inactive)
REMARK    1  A    between atoms: C_1  and  C_2
REMARK    2  A    between atoms: C_1  and  C_7
REMARK    3  A    between atoms: C_2  and  N_3
REMARK    4  A    between atoms: C_7  and  C_10
REMARK                            x       y       z     vdW  Elec       q    Type
REMARK                         _______ _______ _______ _____ _____    ______ ____
ROOT
ATOM      1  C   UNL     1      33.885 -19.590 -21.572  0.00  0.00    -0.012 C 
ENDROOT
BRANCH   1   2
ATOM      2  C   UNL     1      34.540 -18.262 -21.214  0.00  0.00    -0.086 C 
BRANCH   2   3
ATOM      3  N   UNL     1      35.897 -18.523 -20.676  0.00  0.00    +0.380 N 
ATOM      4  H   UNL     1      35.944 -18.211 -19.706  0.00  0.00    -0.089 HD
ATOM      5  H   UNL     1      36.585 -18.014 -21.230  0.00  0.00    -0.089 HD
ATOM      6  H   UNL     1      36.095 -19.522 -20.721  0.00  0.00    -0.089 HD
ENDBRANCH   2   3
ENDBRANCH   1   2
BRANCH   1   7
ATOM      7  C   UNL     1      33.033 -20.134 -20.428  0.00  0.00    +0.112 C 
BRANCH   7  10
ATOM      8  O   UNL     1      34.884 -21.238 -19.481  0.00  0.00    -0.246 OA
ATOM      9  O   UNL     1      32.815 -22.168 -19.212  0.00  0.00    -0.246 OA
ATOM     10  C   UNL     1      33.629 -21.294 -19.623  0.00  0.00    +0.365 C 
ENDBRANCH   7  10
ENDBRANCH   1   7
TORSDOF 4
ENDMDL
MODEL 4
REMARK VINA RESULT:      -4.1     15.425     15.888
REMARK  Name = 6992099
REMARK  4 active torsions:
REMARK  status: ('A' for Active; 'I' for Inactive)
REMARK    1  A    between atoms: C_1  and  C_2
REMARK    2  A    between atoms: C_1  and  C_7
REMARK    3  A    between atoms: C_2  and  N_3
REMARK    4  A    between atoms: C_7  and  C_10
REMARK                            x       y       z     vdW  Elec       q    Type
REMARK                         _______ _______ _______ _____ _____    ______ ____
ROOT
ATOM      1  C   UNL     1      41.247 -14.217 -17.861  0.00  0.00    -0.012 C 
ENDROOT
BRANCH   1   2
ATOM      2  C   UNL     1      42.016 -12.974 -17.435  0.00  0.00    -0.086 C 
BRANCH   2   3
ATOM      3  N   UNL     1      42.063 -12.919 -15.954  0.00  0.00    +0.380 N 
ATOM      4  H   UNL     1      41.958 -11.953 -15.645  0.00  0.00    -0.089 HD
ATOM      5  H   UNL     1      42.958 -13.284 -15.628  0.00  0.00    -0.089 HD
ATOM      6  H   UNL     1      41.306 -13.483 -15.569  0.00  0.00    -0.089 HD
ENDBRANCH   2   3
ENDBRANCH   1   2
BRANCH   1   7
ATOM      7  C   UNL     1      42.114 -15.472 -17.806  0.00  0.00    +0.112 C 
BRANCH   7  10
ATOM      8  O   UNL     1      41.942 -15.986 -15.515  0.00  0.00    -0.246 OA
ATOM      9  O   UNL     1      41.484 -17.632 -17.031  0.00  0.00    -0.246 OA
ATOM     10  C   UNL     1      41.811 -16.465 -16.678  0.00  0.00    +0.365 C 
ENDBRANCH   7  10
ENDBRANCH   1   7
TORSDOF 4
ENDMDL
MODEL 5
REMARK VINA RESULT:      -4.1      2.090      2.512
REMARK  Name = 6992099
REMARK  4 active torsions:
REMARK  status: ('A' for Active; 'I' for Inactive)
REMARK    1  A    between atoms: C_1  and  C_2
REMARK    2  A    between atoms: C_1  and  C_7
REMARK    3  A    between atoms: C_2  and  N_3
REMARK    4  A    between atoms: C_7  and  C_10
REMARK                            x       y       z     vdW  Elec       q    Type
REMARK                         _______ _______ _______ _____ _____    ______ ____
ROOT
ATOM      1  C   UNL     1      28.450 -22.397 -15.517  0.00  0.00    -0.012 C 
ENDROOT
BRANCH   1   2
ATOM      2  C   UNL     1      29.787 -23.127 -15.543  0.00  0.00    -0.086 C 
BRANCH   2   3
ATOM      3  N   UNL     1      30.545 -22.703 -16.744  0.00  0.00    +0.380 N 
ATOM      4  H   UNL     1      30.484 -21.690 -16.846  0.00  0.00    -0.089 HD
ATOM      5  H   UNL     1      30.151 -23.152 -17.571  0.00  0.00    -0.089 HD
ATOM      6  H   UNL     1      31.523 -22.976 -16.643  0.00  0.00    -0.089 HD
ENDBRANCH   2   3
ENDBRANCH   1   2
BRANCH   1   7
ATOM      7  C   UNL     1      27.750 -22.439 -16.872  0.00  0.00    +0.112 C 
BRANCH   7  10
ATOM      8  O   UNL     1      25.569 -21.971 -16.121  0.00  0.00    -0.246 OA
ATOM      9  O   UNL     1      26.361 -20.822 -17.929  0.00  0.00    -0.246 OA
ATOM     10  C   UNL     1      26.435 -21.660 -16.988  0.00  0.00    +0.365 C 
ENDBRANCH   7  10
ENDBRANCH   1   7
TORSDOF 4
ENDMDL
MODEL 6
REMARK VINA RESULT:      -4.0     10.565     10.950
REMARK  Name = 6992099
REMARK  4 active torsions:
REMARK  status: ('A' for Active; 'I' for Inactive)
REMARK    1  A    between atoms: C_1  and  C_2
REMARK    2  A    between atoms: C_1  and  C_7
REMARK    3  A    between atoms: C_2  and  N_3
REMARK    4  A    between atoms: C_7  and  C_10
REMARK                            x       y       z     vdW  Elec       q    Type
REMARK                         _______ _______ _______ _____ _____    ______ ____
ROOT
ATOM      1  C   UNL     1      35.267 -18.838 -23.621  0.00  0.00    -0.012 C 
ENDROOT
BRANCH   1   2
ATOM      2  C   UNL     1      34.746 -17.570 -24.285  0.00  0.00    -0.086 C 
BRANCH   2   3
ATOM      3  N   UNL     1      35.444 -16.398 -23.703  0.00  0.00    +0.380 N 
ATOM      4  H   UNL     1      34.881 -15.560 -23.849  0.00  0.00    -0.089 HD
ATOM      5  H   UNL     1      36.350 -16.282 -24.156  0.00  0.00    -0.089 HD
ATOM      6  H   UNL     1      35.580 -16.546 -22.703  0.00  0.00    -0.089 HD
ENDBRANCH   2   3
ENDBRANCH   1   2
BRANCH   1   7
ATOM      7  C   UNL     1      34.520 -19.154 -22.329  0.00  0.00    +0.112 C 
BRANCH   7  10
ATOM      8  O   UNL     1      35.386 -17.598 -20.789  0.00  0.00    -0.246 OA
ATOM      9  O   UNL     1      35.640 -19.822 -20.338  0.00  0.00    -0.246 OA
ATOM     10  C   UNL     1      35.250 -18.834 -21.019  0.00  0.00    +0.365 C 
ENDBRANCH   7  10
ENDBRANCH   1   7
TORSDOF 4
ENDMDL
MODEL 7
REMARK VINA RESULT:      -4.0      9.515     10.171
REMARK  Name = 6992099
REMARK  4 active torsions:
REMARK  status: ('A' for Active; 'I' for Inactive)
REMARK    1  A    between atoms: C_1  and  C_2
REMARK    2  A    between atoms: C_1  and  C_7
REMARK    3  A    between atoms: C_2  and  N_3
REMARK    4  A    between atoms: C_7  and  C_10
REMARK                            x       y       z     vdW  Elec       q    Type
REMARK                         _______ _______ _______ _____ _____    ______ ____
ROOT
ATOM      1  C   UNL     1      37.981 -24.827 -14.398  0.00  0.00    -0.012 C 
ENDROOT
BRANCH   1   2
ATOM      2  C   UNL     1      37.158 -26.056 -14.760  0.00  0.00    -0.086 C 
BRANCH   2   3
ATOM      3  N   UNL     1      37.104 -26.963 -13.588  0.00  0.00    +0.380 N 
ATOM      4  H   UNL     1      37.825 -27.679 -13.679  0.00  0.00    -0.089 HD
ATOM      5  H   UNL     1      36.188 -27.408 -13.545  0.00  0.00    -0.089 HD
ATOM      6  H   UNL     1      37.263 -26.427 -12.736  0.00  0.00    -0.089 HD
ENDBRANCH   2   3
ENDBRANCH   1   2
BRANCH   1   7
ATOM      7  C   UNL     1      38.700 -24.994 -13.062  0.00  0.00    +0.112 C 
BRANCH   7  10
ATOM      8  O   UNL     1      37.249 -24.738 -11.226  0.00  0.00    -0.246 OA
ATOM      9  O   UNL     1      38.672 -23.024 -11.727  0.00  0.00    -0.246 OA
ATOM     10  C   UNL     1      38.162 -24.167 -11.888  0.00  0.00    +0.365 C 
ENDBRANCH   7  10
ENDBRANCH   1   7
TORSDOF 4
ENDMDL
MODEL 8
REMARK VINA RESULT:      -4.0     10.949     11.292
REMARK  Name = 6992099
REMARK  4 active torsions:
REMARK  status: ('A' for Active; 'I' for Inactive)
REMARK    1  A    between atoms: C_1  and  C_2
REMARK    2  A    between atoms: C_1  and  C_7
REMARK    3  A    between atoms: C_2  and  N_3
REMARK    4  A    between atoms: C_7  and  C_10
REMARK                            x       y       z     vdW  Elec       q    Type
REMARK                         _______ _______ _______ _____ _____    ______ ____
ROOT
ATOM      1  C   UNL     1      34.611 -19.037 -22.677  0.00  0.00    -0.012 C 
ENDROOT
BRANCH   1   2
ATOM      2  C   UNL     1      35.658 -18.817 -21.592  0.00  0.00    -0.086 C 
BRANCH   2   3
ATOM      3  N   UNL     1      35.321 -17.583 -20.841  0.00  0.00    +0.380 N 
ATOM      4  H   UNL     1      34.308 -17.477 -20.798  0.00  0.00    -0.089 HD
ATOM      5  H   UNL     1      35.727 -16.776 -21.314  0.00  0.00    -0.089 HD
ATOM      6  H   UNL     1      35.696 -17.648 -19.895  0.00  0.00    -0.089 HD
ENDBRANCH   2   3
ENDBRANCH   1   2
BRANCH   1   7
ATOM      7  C   UNL     1      35.115 -18.605 -24.051  0.00  0.00    +0.112 C 
BRANCH   7  10
ATOM      8  O   UNL     1      34.801 -17.032 -25.775  0.00  0.00    -0.246 OA
ATOM      9  O   UNL     1      34.301 -16.408 -23.636  0.00  0.00    -0.246 OA
ATOM     10  C   UNL     1      34.691 -17.211 -24.528  0.00  0.00    +0.365 C 
ENDBRANCH   7  10
ENDBRANCH   1   7
TORSDOF 4
ENDMDL
MODEL 9
REMARK VINA RESULT:      -3.8      8.897      9.293
REMARK  Name = 6992099
REMARK  4 active torsions:
REMARK  status: ('A' for Active; 'I' for Inactive)
REMARK    1  A    between atoms: C_1  and  C_2
REMARK    2  A    between atoms: C_1  and  C_7
REMARK    3  A    between atoms: C_2  and  N_3
REMARK    4  A    between atoms: C_7  and  C_10
REMARK                            x       y       z     vdW  Elec       q    Type
REMARK                         _______ _______ _______ _____ _____    ______ ____
ROOT
ATOM      1  C   UNL     1      33.850 -19.451 -21.079  0.00  0.00    -0.012 C 
ENDROOT
BRANCH   1   2
ATOM      2  C   UNL     1      33.963 -20.652 -20.149  0.00  0.00    -0.086 C 
BRANCH   2   3
ATOM      3  N   UNL     1      32.652 -20.881 -19.495  0.00  0.00    +0.380 N 
ATOM      4  H   UNL     1      32.794 -21.044 -18.498  0.00  0.00    -0.089 HD
ATOM      5  H   UNL     1      32.202 -21.695 -19.911  0.00  0.00    -0.089 HD
ATOM      6  H   UNL     1      32.060 -20.061 -19.624  0.00  0.00    -0.089 HD
ENDBRANCH   2   3
ENDBRANCH   1   2
BRANCH   1   7
ATOM      7  C   UNL     1      35.215 -18.847 -21.399  0.00  0.00    +0.112 C 
BRANCH   7  10
ATOM      8  O   UNL     1      35.202 -16.722 -20.387  0.00  0.00    -0.246 OA
ATOM      9  O   UNL     1      35.386 -16.836 -22.661  0.00  0.00    -0.246 OA
ATOM     10  C   UNL     1      35.280 -17.319 -21.499  0.00  0.00    +0.365 C 
ENDBRANCH   7  10
ENDBRANCH   1   7
TORSDOF 4
ENDMDL
