MODEL 1
REMARK VINA RESULT:      -8.7      0.000      0.000
REMARK  Name = 131704308
REMARK  8 active torsions:
REMARK  status: ('A' for Active; 'I' for Inactive)
REMARK    1  A    between atoms: N_2  and  CA_17
REMARK    2  A    between atoms: C_3  and  C_6
REMARK    3  A    between atoms: N_5  and  O_15
REMARK    4  A    between atoms: C_6  and  C_10
REMARK    5  A    between atoms: CA_17  and  C_20
REMARK    6  A    between atoms: CA_17  and  C_30
REMARK    7  A    between atoms: CA_23  and  C_26
REMARK    8  A    between atoms: C_26  and  O_27
REMARK                            x       y       z     vdW  Elec       q    Type
REMARK                         _______ _______ _______ _____ _____    ______ ____
ROOT
ATOM      1  O   UNL     1      35.382 -24.854 -15.750  0.00  0.00    -0.268 OA
ATOM      2  N   UNL     1      34.651 -22.907 -14.661  0.00  0.00    -0.292 N 
ATOM      3  C   UNL     1      35.393 -23.648 -15.561  0.00  0.00    +0.269 C 
ATOM      4  H   UNL     1      34.776 -21.931 -14.631  0.00  0.00    +0.150 HD
ENDROOT
BRANCH   3   6
ATOM      5  N   UNL     1      37.534 -22.568 -15.977  0.00  0.00    -0.076 NA
ATOM      6  C   UNL     1      36.324 -22.802 -16.389  0.00  0.00    +0.198 C 
BRANCH   6  10
ATOM      7  S   UNL     1      35.691 -21.043 -19.906  0.00  0.00    -0.060 S 
ATOM      8  N   UNL     1      34.540 -22.483 -18.094  0.00  0.00    -0.383 NA
ATOM      9  N   UNL     1      33.181 -21.923 -19.947  0.00  0.00    -0.328 N 
ATOM     10  C   UNL     1      35.837 -22.250 -17.681  0.00  0.00    +0.148 C 
ATOM     11  C   UNL     1      36.613 -21.489 -18.531  0.00  0.00    +0.127 C 
ATOM     12  C   UNL     1      34.351 -21.894 -19.254  0.00  0.00    +0.204 C 
ATOM     13  H   UNL     1      33.110 -21.459 -20.813  0.00  0.00    +0.145 HD
ATOM     14  H   UNL     1      32.406 -22.408 -19.582  0.00  0.00    +0.145 HD
ENDBRANCH   6  10
BRANCH   5  15
ATOM     15  O   UNL     1      37.793 -23.184 -14.746  0.00  0.00    -0.373 OA
ATOM     16  C   UNL     1      38.683 -24.266 -14.972  0.00  0.00    +0.288 C 
ENDBRANCH   5  15
ENDBRANCH   3   6
BRANCH   2  17
ATOM     17  CA  UNL     1      33.704 -23.515 -13.771  0.00  0.00    +0.170 C 
BRANCH  17  20
ATOM     18  S   UNL     1      31.527 -25.083 -13.340  0.00  0.00    -0.110 S 
ATOM     19  N   UNL     1      32.095 -23.404 -15.564  0.00  0.00    -0.253 NA
ATOM     20  C   UNL     1      32.651 -24.303 -14.548  0.00  0.00    +0.176 C 
ATOM     21  C   UNL     1      30.273 -25.588 -14.539  0.00  0.00    +0.087 C 
ATOM     22  C   UNL     1      29.809 -24.397 -15.319  0.00  0.00    +0.012 C 
ATOM     23  CA  UNL     1      30.851 -23.478 -15.873  0.00  0.00    +0.149 C 
ATOM     24  C   UNL     1      28.505 -24.135 -15.494  0.00  0.00    -0.002 C 
BRANCH  23  26
ATOM     25  OXT UNL     1      29.297 -22.118 -17.027  0.00  0.00    -0.243 OA
ATOM     26  C   UNL     1      30.437 -22.507 -16.926  0.00  0.00    +0.355 C 
BRANCH  26  27
ATOM     27  O   UNL     1      31.506 -22.185 -17.661  0.00  0.00    -0.476 OA
ATOM     28  H   UNL     1      31.842 -22.791 -18.290  0.00  0.00    +0.295 HD
ENDBRANCH  26  27
ENDBRANCH  23  26
ENDBRANCH  17  20
BRANCH  17  30
ATOM     29  O   UNL     1      34.833 -24.053 -11.705  0.00  0.00    -0.286 OA
ATOM     30  C   UNL     1      34.474 -24.403 -12.827  0.00  0.00    +0.230 C 
ENDBRANCH  17  30
ENDBRANCH   2  17
TORSDOF 8
ENDMDL
MODEL 2
REMARK VINA RESULT:      -8.6      2.159      5.694
REMARK  Name = 131704308
REMARK  8 active torsions:
REMARK  status: ('A' for Active; 'I' for Inactive)
REMARK    1  A    between atoms: N_2  and  CA_17
REMARK    2  A    between atoms: C_3  and  C_6
REMARK    3  A    between atoms: N_5  and  O_15
REMARK    4  A    between atoms: C_6  and  C_10
REMARK    5  A    between atoms: CA_17  and  C_20
REMARK    6  A    between atoms: CA_17  and  C_30
REMARK    7  A    between atoms: CA_23  and  C_26
REMARK    8  A    between atoms: C_26  and  O_27
REMARK                            x       y       z     vdW  Elec       q    Type
REMARK                         _______ _______ _______ _____ _____    ______ ____
ROOT
ATOM      1  O   UNL     1      33.724 -24.535 -17.737  0.00  0.00    -0.268 OA
ATOM      2  N   UNL     1      33.322 -23.297 -15.784  0.00  0.00    -0.292 N 
ATOM      3  C   UNL     1      33.299 -23.559 -17.140  0.00  0.00    +0.269 C 
ATOM      4  H   UNL     1      32.934 -22.455 -15.455  0.00  0.00    +0.150 HD
ENDROOT
BRANCH   3   6
ATOM      5  N   UNL     1      31.397 -22.178 -17.773  0.00  0.00    -0.076 NA
ATOM      6  C   UNL     1      32.655 -22.457 -17.938  0.00  0.00    +0.198 C 
BRANCH   6  10
ATOM      7  S   UNL     1      35.436 -20.780 -20.246  0.00  0.00    -0.060 S 
ATOM      8  N   UNL     1      32.897 -20.778 -19.760  0.00  0.00    -0.383 NA
ATOM      9  N   UNL     1      33.595 -19.292 -21.461  0.00  0.00    -0.328 N 
ATOM     10  C   UNL     1      33.485 -21.693 -18.909  0.00  0.00    +0.148 C 
ATOM     11  C   UNL     1      34.852 -21.832 -19.024  0.00  0.00    +0.127 C 
ATOM     12  C   UNL     1      33.829 -20.236 -20.511  0.00  0.00    +0.204 C 
ATOM     13  H   UNL     1      34.343 -18.928 -21.989  0.00  0.00    +0.145 HD
ATOM     14  H   UNL     1      32.678 -18.972 -21.621  0.00  0.00    +0.145 HD
ENDBRANCH   6  10
BRANCH   5  15
ATOM     15  O   UNL     1      30.803 -23.007 -16.811  0.00  0.00    -0.373 OA
ATOM     16  C   UNL     1      29.457 -22.591 -16.641  0.00  0.00    +0.288 C 
ENDBRANCH   5  15
ENDBRANCH   3   6
BRANCH   2  17
ATOM     17  CA  UNL     1      33.894 -24.214 -14.841  0.00  0.00    +0.170 C 
BRANCH  17  20
ATOM     18  S   UNL     1      34.940 -23.893 -12.352  0.00  0.00    -0.110 S 
ATOM     19  N   UNL     1      36.303 -24.089 -14.842  0.00  0.00    -0.253 NA
ATOM     20  C   UNL     1      35.108 -23.599 -14.146  0.00  0.00    +0.176 C 
ATOM     21  C   UNL     1      36.622 -23.397 -11.916  0.00  0.00    +0.087 C 
ATOM     22  C   UNL     1      37.608 -24.199 -12.707  0.00  0.00    +0.012 C 
ATOM     23  CA  UNL     1      37.373 -24.338 -14.179  0.00  0.00    +0.149 C 
ATOM     24  C   UNL     1      38.654 -24.804 -12.124  0.00  0.00    -0.002 C 
BRANCH  23  26
ATOM     25  OXT UNL     1      39.451 -24.117 -15.288  0.00  0.00    -0.243 OA
ATOM     26  C   UNL     1      38.503 -24.819 -15.024  0.00  0.00    +0.355 C 
BRANCH  26  27
ATOM     27  O   UNL     1      38.263 -26.083 -15.387  0.00  0.00    -0.476 OA
ATOM     28  H   UNL     1      38.967 -26.699 -15.432  0.00  0.00    +0.295 HD
ENDBRANCH  26  27
ENDBRANCH  23  26
ENDBRANCH  17  20
BRANCH  17  30
ATOM     29  O   UNL     1      31.906 -25.365 -14.095  0.00  0.00    -0.286 OA
ATOM     30  C   UNL     1      32.816 -24.578 -13.850  0.00  0.00    +0.230 C 
ENDBRANCH  17  30
ENDBRANCH   2  17
TORSDOF 8
ENDMDL
MODEL 3
REMARK VINA RESULT:      -8.4     12.397     15.342
REMARK  Name = 131704308
REMARK  8 active torsions:
REMARK  status: ('A' for Active; 'I' for Inactive)
REMARK    1  A    between atoms: N_2  and  CA_17
REMARK    2  A    between atoms: C_3  and  C_6
REMARK    3  A    between atoms: N_5  and  O_15
REMARK    4  A    between atoms: C_6  and  C_10
REMARK    5  A    between atoms: CA_17  and  C_20
REMARK    6  A    between atoms: CA_17  and  C_30
REMARK    7  A    between atoms: CA_23  and  C_26
REMARK    8  A    between atoms: C_26  and  O_27
REMARK                            x       y       z     vdW  Elec       q    Type
REMARK                         _______ _______ _______ _____ _____    ______ ____
ROOT
ATOM      1  O   UNL     1      34.358  -9.105 -23.219  0.00  0.00    -0.268 OA
ATOM      2  N   UNL     1      32.897 -10.891 -23.652  0.00  0.00    -0.292 N 
ATOM      3  C   UNL     1      33.270  -9.655 -23.161  0.00  0.00    +0.269 C 
ATOM      4  H   UNL     1      31.970 -11.195 -23.522  0.00  0.00    +0.150 HD
ENDROOT
BRANCH   3   6
ATOM      5  N   UNL     1      31.538  -9.490 -21.459  0.00  0.00    -0.076 NA
ATOM      6  C   UNL     1      32.143  -8.937 -22.466  0.00  0.00    +0.198 C 
BRANCH   6  10
ATOM      7  S   UNL     1      31.275  -5.573 -24.415  0.00  0.00    -0.060 S 
ATOM      8  N   UNL     1      31.270  -6.642 -22.062  0.00  0.00    -0.383 NA
ATOM      9  N   UNL     1      30.502  -4.408 -22.153  0.00  0.00    -0.328 N 
ATOM     10  C   UNL     1      31.744  -7.587 -22.949  0.00  0.00    +0.148 C 
ATOM     11  C   UNL     1      31.819  -7.192 -24.269  0.00  0.00    +0.127 C 
ATOM     12  C   UNL     1      30.991  -5.541 -22.723  0.00  0.00    +0.204 C 
ATOM     13  H   UNL     1      30.314  -3.617 -22.710  0.00  0.00    +0.145 HD
ATOM     14  H   UNL     1      30.335  -4.378 -21.183  0.00  0.00    +0.145 HD
ENDBRANCH   6  10
BRANCH   5  15
ATOM     15  O   UNL     1      32.070 -10.752 -21.161  0.00  0.00    -0.373 OA
ATOM     16  C   UNL     1      31.436 -11.232 -19.986  0.00  0.00    +0.288 C 
ENDBRANCH   5  15
ENDBRANCH   3   6
BRANCH   2  17
ATOM     17  CA  UNL     1      33.818 -11.744 -24.345  0.00  0.00    +0.170 C 
BRANCH  17  20
ATOM     18  S   UNL     1      33.374 -13.504 -26.369  0.00  0.00    -0.110 S 
ATOM     19  N   UNL     1      33.793 -14.040 -23.607  0.00  0.00    -0.253 NA
ATOM     20  C   UNL     1      33.209 -13.123 -24.592  0.00  0.00    +0.176 C 
ATOM     21  C   UNL     1      32.919 -15.248 -26.238  0.00  0.00    +0.087 C 
ATOM     22  C   UNL     1      33.812 -15.931 -25.249  0.00  0.00    +0.012 C 
ATOM     23  CA  UNL     1      34.040 -15.256 -23.933  0.00  0.00    +0.149 C 
ATOM     24  C   UNL     1      34.419 -17.093 -25.534  0.00  0.00    -0.002 C 
BRANCH  23  26
ATOM     25  OXT UNL     1      33.980 -16.374 -21.848  0.00  0.00    -0.243 OA
ATOM     26  C   UNL     1      34.623 -16.066 -22.825  0.00  0.00    +0.355 C 
BRANCH  26  27
ATOM     27  O   UNL     1      35.893 -16.356 -23.124  0.00  0.00    -0.476 OA
ATOM     28  H   UNL     1      36.132 -17.233 -23.351  0.00  0.00    +0.295 HD
ENDBRANCH  26  27
ENDBRANCH  23  26
ENDBRANCH  17  20
BRANCH  17  30
ATOM     29  O   UNL     1      35.305 -10.630 -25.888  0.00  0.00    -0.286 OA
ATOM     30  C   UNL     1      34.183 -11.062 -25.640  0.00  0.00    +0.230 C 
ENDBRANCH  17  30
ENDBRANCH   2  17
TORSDOF 8
ENDMDL
MODEL 4
REMARK VINA RESULT:      -8.3      3.111      5.745
REMARK  Name = 131704308
REMARK  8 active torsions:
REMARK  status: ('A' for Active; 'I' for Inactive)
REMARK    1  A    between atoms: N_2  and  CA_17
REMARK    2  A    between atoms: C_3  and  C_6
REMARK    3  A    between atoms: N_5  and  O_15
REMARK    4  A    between atoms: C_6  and  C_10
REMARK    5  A    between atoms: CA_17  and  C_20
REMARK    6  A    between atoms: CA_17  and  C_30
REMARK    7  A    between atoms: CA_23  and  C_26
REMARK    8  A    between atoms: C_26  and  O_27
REMARK                            x       y       z     vdW  Elec       q    Type
REMARK                         _______ _______ _______ _____ _____    ______ ____
ROOT
ATOM      1  O   UNL     1      36.355 -22.708 -13.061  0.00  0.00    -0.268 OA
ATOM      2  N   UNL     1      35.169 -24.317 -14.292  0.00  0.00    -0.292 N 
ATOM      3  C   UNL     1      36.150 -23.851 -13.438  0.00  0.00    +0.269 C 
ATOM      4  H   UNL     1      35.135 -25.278 -14.500  0.00  0.00    +0.150 HD
ENDROOT
BRANCH   3   6
ATOM      5  N   UNL     1      36.735 -25.637 -11.892  0.00  0.00    -0.076 NA
ATOM      6  C   UNL     1      37.059 -24.942 -12.941  0.00  0.00    +0.198 C 
BRANCH   6  10
ATOM      7  S   UNL     1      40.197 -25.178 -15.384  0.00  0.00    -0.060 S 
ATOM      8  N   UNL     1      39.234 -26.128 -13.181  0.00  0.00    -0.383 NA
ATOM      9  N   UNL     1      41.340 -26.997 -13.816  0.00  0.00    -0.328 N 
ATOM     10  C   UNL     1      38.326 -25.213 -13.674  0.00  0.00    +0.148 C 
ATOM     11  C   UNL     1      38.672 -24.596 -14.859  0.00  0.00    +0.127 C 
ATOM     12  C   UNL     1      40.260 -26.192 -14.001  0.00  0.00    +0.204 C 
ATOM     13  H   UNL     1      42.075 -26.994 -14.472  0.00  0.00    +0.145 HD
ATOM     14  H   UNL     1      41.386 -27.583 -13.026  0.00  0.00    +0.145 HD
ENDBRANCH   6  10
BRANCH   5  15
ATOM     15  O   UNL     1      35.505 -25.230 -11.358  0.00  0.00    -0.373 OA
ATOM     16  C   UNL     1      35.762 -24.479 -10.182  0.00  0.00    +0.288 C 
ENDBRANCH   5  15
ENDBRANCH   3   6
BRANCH   2  17
ATOM     17  CA  UNL     1      34.197 -23.444 -14.884  0.00  0.00    +0.170 C 
BRANCH  17  20
ATOM     18  S   UNL     1      32.593 -23.048 -17.043  0.00  0.00    -0.110 S 
ATOM     19  N   UNL     1      35.422 -22.810 -16.863  0.00  0.00    -0.253 NA
ATOM     20  C   UNL     1      34.232 -23.538 -16.409  0.00  0.00    +0.176 C 
ATOM     21  C   UNL     1      33.084 -22.924 -18.778  0.00  0.00    +0.087 C 
ATOM     22  C   UNL     1      34.240 -21.982 -18.911  0.00  0.00    +0.012 C 
ATOM     23  CA  UNL     1      35.384 -22.145 -17.960  0.00  0.00    +0.149 C 
ATOM     24  C   UNL     1      34.248 -21.001 -19.826  0.00  0.00    -0.002 C 
BRANCH  23  26
ATOM     25  OXT UNL     1      37.169 -21.541 -19.391  0.00  0.00    -0.243 OA
ATOM     26  C   UNL     1      36.670 -21.466 -18.292  0.00  0.00    +0.355 C 
BRANCH  26  27
ATOM     27  O   UNL     1      37.105 -20.812 -17.211  0.00  0.00    -0.476 OA
ATOM     28  H   UNL     1      37.987 -20.498 -17.177  0.00  0.00    +0.295 HD
ENDBRANCH  26  27
ENDBRANCH  23  26
ENDBRANCH  17  20
BRANCH  17  30
ATOM     29  O   UNL     1      32.626 -24.034 -13.147  0.00  0.00    -0.286 OA
ATOM     30  C   UNL     1      32.845 -23.831 -14.338  0.00  0.00    +0.230 C 
ENDBRANCH  17  30
ENDBRANCH   2  17
TORSDOF 8
ENDMDL
MODEL 5
REMARK VINA RESULT:      -8.3      2.523      6.226
REMARK  Name = 131704308
REMARK  8 active torsions:
REMARK  status: ('A' for Active; 'I' for Inactive)
REMARK    1  A    between atoms: N_2  and  CA_17
REMARK    2  A    between atoms: C_3  and  C_6
REMARK    3  A    between atoms: N_5  and  O_15
REMARK    4  A    between atoms: C_6  and  C_10
REMARK    5  A    between atoms: CA_17  and  C_20
REMARK    6  A    between atoms: CA_17  and  C_30
REMARK    7  A    between atoms: CA_23  and  C_26
REMARK    8  A    between atoms: C_26  and  O_27
REMARK                            x       y       z     vdW  Elec       q    Type
REMARK                         _______ _______ _______ _____ _____    ______ ____
ROOT
ATOM      1  O   UNL     1      34.312 -24.564 -16.731  0.00  0.00    -0.268 OA
ATOM      2  N   UNL     1      34.681 -22.377 -15.962  0.00  0.00    -0.292 N 
ATOM      3  C   UNL     1      34.010 -23.386 -16.625  0.00  0.00    +0.269 C 
ATOM      4  H   UNL     1      34.303 -21.468 -15.970  0.00  0.00    +0.150 HD
ENDROOT
BRANCH   3   6
ATOM      5  N   UNL     1      32.800 -22.345 -18.462  0.00  0.00    -0.076 NA
ATOM      6  C   UNL     1      32.748 -22.909 -17.293  0.00  0.00    +0.198 C 
BRANCH   6  10
ATOM      7  S   UNL     1      29.651 -23.847 -14.970  0.00  0.00    -0.060 S 
ATOM      8  N   UNL     1      30.305 -22.489 -17.070  0.00  0.00    -0.383 NA
ATOM      9  N   UNL     1      28.020 -22.380 -16.474  0.00  0.00    -0.328 N 
ATOM     10  C   UNL     1      31.448 -23.101 -16.595  0.00  0.00    +0.148 C 
ATOM     11  C   UNL     1      31.293 -23.877 -15.465  0.00  0.00    +0.127 C 
ATOM     12  C   UNL     1      29.296 -22.812 -16.292  0.00  0.00    +0.204 C 
ATOM     13  H   UNL     1      27.311 -22.661 -15.850  0.00  0.00    +0.145 HD
ATOM     14  H   UNL     1      27.805 -21.786 -17.229  0.00  0.00    +0.145 HD
ENDBRANCH   6  10
BRANCH   5  15
ATOM     15  O   UNL     1      34.113 -22.269 -18.946  0.00  0.00    -0.373 OA
ATOM     16  C   UNL     1      34.208 -21.131 -19.789  0.00  0.00    +0.288 C 
ENDBRANCH   5  15
ENDBRANCH   3   6
BRANCH   2  17
ATOM     17  CA  UNL     1      35.910 -22.613 -15.260  0.00  0.00    +0.170 C 
BRANCH  17  20
ATOM     18  S   UNL     1      37.366 -24.907 -15.207  0.00  0.00    -0.110 S 
ATOM     19  N   UNL     1      35.744 -23.783 -13.158  0.00  0.00    -0.253 NA
ATOM     20  C   UNL     1      35.909 -23.991 -14.601  0.00  0.00    +0.176 C 
ATOM     21  C   UNL     1      37.258 -26.258 -14.011  0.00  0.00    +0.087 C 
ATOM     22  C   UNL     1      37.259 -25.705 -12.620  0.00  0.00    +0.012 C 
ATOM     23  CA  UNL     1      36.349 -24.553 -12.328  0.00  0.00    +0.149 C 
ATOM     24  C   UNL     1      38.066 -26.194 -11.667  0.00  0.00    -0.002 C 
BRANCH  23  26
ATOM     25  OXT UNL     1      35.255 -24.826 -10.248  0.00  0.00    -0.243 OA
ATOM     26  C   UNL     1      36.076 -24.223 -10.899  0.00  0.00    +0.355 C 
BRANCH  26  27
ATOM     27  O   UNL     1      36.871 -23.215 -10.530  0.00  0.00    -0.476 OA
ATOM     28  H   UNL     1      36.508 -22.367 -10.365  0.00  0.00    +0.295 HD
ENDBRANCH  26  27
ENDBRANCH  23  26
ENDBRANCH  17  20
BRANCH  17  30
ATOM     29  O   UNL     1      36.936 -21.861 -17.313  0.00  0.00    -0.286 OA
ATOM     30  C   UNL     1      37.035 -22.478 -16.256  0.00  0.00    +0.230 C 
ENDBRANCH  17  30
ENDBRANCH   2  17
TORSDOF 8
ENDMDL
MODEL 6
REMARK VINA RESULT:      -8.3     10.163     13.083
REMARK  Name = 131704308
REMARK  8 active torsions:
REMARK  status: ('A' for Active; 'I' for Inactive)
REMARK    1  A    between atoms: N_2  and  CA_17
REMARK    2  A    between atoms: C_3  and  C_6
REMARK    3  A    between atoms: N_5  and  O_15
REMARK    4  A    between atoms: C_6  and  C_10
REMARK    5  A    between atoms: CA_17  and  C_20
REMARK    6  A    between atoms: CA_17  and  C_30
REMARK    7  A    between atoms: CA_23  and  C_26
REMARK    8  A    between atoms: C_26  and  O_27
REMARK                            x       y       z     vdW  Elec       q    Type
REMARK                         _______ _______ _______ _____ _____    ______ ____
ROOT
ATOM      1  O   UNL     1      31.844 -12.346 -23.165  0.00  0.00    -0.268 OA
ATOM      2  N   UNL     1      33.975 -13.326 -23.078  0.00  0.00    -0.292 N 
ATOM      3  C   UNL     1      33.024 -12.405 -23.471  0.00  0.00    +0.269 C 
ATOM      4  H   UNL     1      34.895 -13.235 -23.416  0.00  0.00    +0.150 HD
ENDROOT
BRANCH   3   6
ATOM      5  N   UNL     1      33.842 -11.661 -25.639  0.00  0.00    -0.076 NA
ATOM      6  C   UNL     1      33.573 -11.359 -24.404  0.00  0.00    +0.198 C 
BRANCH   6  10
ATOM      7  S   UNL     1      34.760  -7.679 -23.448  0.00  0.00    -0.060 S 
ATOM      8  N   UNL     1      32.908  -9.422 -22.990  0.00  0.00    -0.383 NA
ATOM      9  N   UNL     1      32.675  -7.379 -21.825  0.00  0.00    -0.328 N 
ATOM     10  C   UNL     1      33.794  -9.980 -23.890  0.00  0.00    +0.148 C 
ATOM     11  C   UNL     1      34.861  -9.187 -24.257  0.00  0.00    +0.127 C 
ATOM     12  C   UNL     1      33.317  -8.211 -22.687  0.00  0.00    +0.204 C 
ATOM     13  H   UNL     1      33.038  -6.481 -21.643  0.00  0.00    +0.145 HD
ATOM     14  H   UNL     1      31.846  -7.673 -21.382  0.00  0.00    +0.145 HD
ENDBRANCH   6  10
BRANCH   5  15
ATOM     15  O   UNL     1      33.556 -13.004 -25.920  0.00  0.00    -0.373 OA
ATOM     16  C   UNL     1      33.516 -13.160 -27.330  0.00  0.00    +0.288 C 
ENDBRANCH   5  15
ENDBRANCH   3   6
BRANCH   2  17
ATOM     17  CA  UNL     1      33.664 -14.411 -22.192  0.00  0.00    +0.170 C 
BRANCH  17  20
ATOM     18  S   UNL     1      34.638 -16.502 -20.755  0.00  0.00    -0.110 S 
ATOM     19  N   UNL     1      34.527 -16.186 -23.579  0.00  0.00    -0.253 NA
ATOM     20  C   UNL     1      34.715 -15.516 -22.288  0.00  0.00    +0.176 C 
ATOM     21  C   UNL     1      35.687 -17.853 -21.339  0.00  0.00    +0.087 C 
ATOM     22  C   UNL     1      35.128 -18.415 -22.609  0.00  0.00    +0.012 C 
ATOM     23  CA  UNL     1      34.718 -17.451 -23.678  0.00  0.00    +0.149 C 
ATOM     24  C   UNL     1      34.964 -19.735 -22.783  0.00  0.00    -0.002 C 
BRANCH  23  26
ATOM     25  OXT UNL     1      34.058 -19.094 -25.246  0.00  0.00    -0.243 OA
ATOM     26  C   UNL     1      34.496 -17.984 -25.052  0.00  0.00    +0.355 C 
BRANCH  26  27
ATOM     27  O   UNL     1      34.849 -17.050 -25.940  0.00  0.00    -0.476 OA
ATOM     28  H   UNL     1      34.272 -16.335 -26.123  0.00  0.00    +0.295 HD
ENDBRANCH  26  27
ENDBRANCH  23  26
ENDBRANCH  17  20
BRANCH  17  30
ATOM     29  O   UNL     1      32.521 -13.626 -20.215  0.00  0.00    -0.286 OA
ATOM     30  C   UNL     1      33.580 -13.848 -20.796  0.00  0.00    +0.230 C 
ENDBRANCH  17  30
ENDBRANCH   2  17
TORSDOF 8
ENDMDL
MODEL 7
REMARK VINA RESULT:      -8.2      9.817     12.828
REMARK  Name = 131704308
REMARK  8 active torsions:
REMARK  status: ('A' for Active; 'I' for Inactive)
REMARK    1  A    between atoms: N_2  and  CA_17
REMARK    2  A    between atoms: C_3  and  C_6
REMARK    3  A    between atoms: N_5  and  O_15
REMARK    4  A    between atoms: C_6  and  C_10
REMARK    5  A    between atoms: CA_17  and  C_20
REMARK    6  A    between atoms: CA_17  and  C_30
REMARK    7  A    between atoms: CA_23  and  C_26
REMARK    8  A    between atoms: C_26  and  O_27
REMARK                            x       y       z     vdW  Elec       q    Type
REMARK                         _______ _______ _______ _____ _____    ______ ____
ROOT
ATOM      1  O   UNL     1      31.966 -12.369 -22.846  0.00  0.00    -0.268 OA
ATOM      2  N   UNL     1      34.047 -13.434 -23.053  0.00  0.00    -0.292 N 
ATOM      3  C   UNL     1      33.090 -12.471 -23.309  0.00  0.00    +0.269 C 
ATOM      4  H   UNL     1      34.916 -13.376 -23.513  0.00  0.00    +0.150 HD
ENDROOT
BRANCH   3   6
ATOM      5  N   UNL     1      33.731 -11.764 -25.548  0.00  0.00    -0.076 NA
ATOM      6  C   UNL     1      33.551 -11.438 -24.303  0.00  0.00    +0.198 C 
BRANCH   6  10
ATOM      7  S   UNL     1      34.765  -7.732 -23.492  0.00  0.00    -0.060 S 
ATOM      8  N   UNL     1      32.929  -9.461 -22.926  0.00  0.00    -0.383 NA
ATOM      9  N   UNL     1      32.731  -7.384 -21.813  0.00  0.00    -0.328 N 
ATOM     10  C   UNL     1      33.786 -10.046 -23.837  0.00  0.00    +0.148 C 
ATOM     11  C   UNL     1      34.841  -9.264 -24.260  0.00  0.00    +0.127 C 
ATOM     12  C   UNL     1      33.346  -8.241 -22.671  0.00  0.00    +0.204 C 
ATOM     13  H   UNL     1      33.099  -6.482 -21.670  0.00  0.00    +0.145 HD
ATOM     14  H   UNL     1      31.917  -7.666 -21.337  0.00  0.00    +0.145 HD
ENDBRANCH   6  10
BRANCH   5  15
ATOM     15  O   UNL     1      33.447 -13.116 -25.779  0.00  0.00    -0.373 OA
ATOM     16  C   UNL     1      33.376 -13.320 -27.181  0.00  0.00    +0.288 C 
ENDBRANCH   5  15
ENDBRANCH   3   6
BRANCH   2  17
ATOM     17  CA  UNL     1      33.815 -14.515 -22.139  0.00  0.00    +0.170 C 
BRANCH  17  20
ATOM     18  S   UNL     1      34.638 -15.816 -24.379  0.00  0.00    -0.110 S 
ATOM     19  N   UNL     1      33.736 -16.915 -21.916  0.00  0.00    -0.253 NA
ATOM     20  C   UNL     1      33.586 -15.827 -22.888  0.00  0.00    +0.176 C 
ATOM     21  C   UNL     1      34.408 -17.560 -24.792  0.00  0.00    +0.087 C 
ATOM     22  C   UNL     1      34.792 -18.413 -23.622  0.00  0.00    +0.012 C 
ATOM     23  CA  UNL     1      34.265 -18.027 -22.276  0.00  0.00    +0.149 C 
ATOM     24  C   UNL     1      35.607 -19.470 -23.759  0.00  0.00    -0.002 C 
BRANCH  23  26
ATOM     25  OXT UNL     1      33.465 -19.851 -21.000  0.00  0.00    -0.243 OA
ATOM     26  C   UNL     1      34.340 -19.037 -21.182  0.00  0.00    +0.355 C 
BRANCH  26  27
ATOM     27  O   UNL     1      35.483 -18.864 -20.512  0.00  0.00    -0.476 OA
ATOM     28  H   UNL     1      35.614 -18.092 -19.998  0.00  0.00    +0.295 HD
ENDBRANCH  26  27
ENDBRANCH  23  26
ENDBRANCH  17  20
BRANCH  17  30
ATOM     29  O   UNL     1      34.963 -15.048 -20.082  0.00  0.00    -0.286 OA
ATOM     30  C   UNL     1      35.012 -14.602 -21.225  0.00  0.00    +0.230 C 
ENDBRANCH  17  30
ENDBRANCH   2  17
TORSDOF 8
ENDMDL
MODEL 8
REMARK VINA RESULT:      -8.2      7.090     10.112
REMARK  Name = 131704308
REMARK  8 active torsions:
REMARK  status: ('A' for Active; 'I' for Inactive)
REMARK    1  A    between atoms: N_2  and  CA_17
REMARK    2  A    between atoms: C_3  and  C_6
REMARK    3  A    between atoms: N_5  and  O_15
REMARK    4  A    between atoms: C_6  and  C_10
REMARK    5  A    between atoms: CA_17  and  C_20
REMARK    6  A    between atoms: CA_17  and  C_30
REMARK    7  A    between atoms: CA_23  and  C_26
REMARK    8  A    between atoms: C_26  and  O_27
REMARK                            x       y       z     vdW  Elec       q    Type
REMARK                         _______ _______ _______ _____ _____    ______ ____
ROOT
ATOM      1  O   UNL     1      35.369 -15.313 -22.283  0.00  0.00    -0.268 OA
ATOM      2  N   UNL     1      33.895 -17.082 -22.738  0.00  0.00    -0.292 N 
ATOM      3  C   UNL     1      34.293 -15.763 -22.644  0.00  0.00    +0.269 C 
ATOM      4  H   UNL     1      32.984 -17.284 -23.050  0.00  0.00    +0.150 HD
ENDROOT
BRANCH   3   6
ATOM      5  N   UNL     1      32.165 -14.634 -22.299  0.00  0.00    -0.076 NA
ATOM      6  C   UNL     1      33.214 -14.795 -23.049  0.00  0.00    +0.198 C 
BRANCH   6  10
ATOM      7  S   UNL     1      33.371 -13.339 -26.753  0.00  0.00    -0.060 S 
ATOM      8  N   UNL     1      33.889 -12.747 -24.291  0.00  0.00    -0.383 NA
ATOM      9  N   UNL     1      34.390 -11.050 -25.859  0.00  0.00    -0.328 N 
ATOM     10  C   UNL     1      33.373 -14.028 -24.314  0.00  0.00    +0.148 C 
ATOM     11  C   UNL     1      33.035 -14.520 -25.557  0.00  0.00    +0.127 C 
ATOM     12  C   UNL     1      33.933 -12.285 -25.521  0.00  0.00    +0.204 C 
ATOM     13  H   UNL     1      34.395 -10.768 -26.803  0.00  0.00    +0.145 HD
ATOM     14  H   UNL     1      34.715 -10.438 -25.160  0.00  0.00    +0.145 HD
ENDBRANCH   6  10
BRANCH   5  15
ATOM     15  O   UNL     1      32.214 -15.442 -21.155  0.00  0.00    -0.373 OA
ATOM     16  C   UNL     1      32.517 -14.614 -20.043  0.00  0.00    +0.288 C 
ENDBRANCH   5  15
ENDBRANCH   3   6
BRANCH   2  17
ATOM     17  CA  UNL     1      34.768 -18.168 -22.396  0.00  0.00    +0.170 C 
BRANCH  17  20
ATOM     18  S   UNL     1      32.794 -19.710 -21.341  0.00  0.00    -0.110 S 
ATOM     19  N   UNL     1      35.522 -19.532 -20.555  0.00  0.00    -0.253 NA
ATOM     20  C   UNL     1      34.356 -18.806 -21.070  0.00  0.00    +0.176 C 
ATOM     21  C   UNL     1      32.802 -20.590 -19.763  0.00  0.00    +0.087 C 
ATOM     22  C   UNL     1      34.082 -21.354 -19.616  0.00  0.00    +0.012 C 
ATOM     23  CA  UNL     1      35.360 -20.638 -19.926  0.00  0.00    +0.149 C 
ATOM     24  C   UNL     1      34.094 -22.644 -19.251  0.00  0.00    -0.002 C 
BRANCH  23  26
ATOM     25  OXT UNL     1      37.363 -21.866 -20.202  0.00  0.00    -0.243 OA
ATOM     26  C   UNL     1      36.635 -21.253 -19.457  0.00  0.00    +0.355 C 
BRANCH  26  27
ATOM     27  O   UNL     1      36.786 -20.993 -18.155  0.00  0.00    -0.476 OA
ATOM     28  H   UNL     1      37.326 -21.547 -17.626  0.00  0.00    +0.295 HD
ENDBRANCH  26  27
ENDBRANCH  23  26
ENDBRANCH  17  20
BRANCH  17  30
ATOM     29  O   UNL     1      34.648 -18.846 -24.711  0.00  0.00    -0.286 OA
ATOM     30  C   UNL     1      34.719 -19.164 -23.527  0.00  0.00    +0.230 C 
ENDBRANCH  17  30
ENDBRANCH   2  17
TORSDOF 8
ENDMDL
MODEL 9
REMARK VINA RESULT:      -8.2      8.770     11.705
REMARK  Name = 131704308
REMARK  8 active torsions:
REMARK  status: ('A' for Active; 'I' for Inactive)
REMARK    1  A    between atoms: N_2  and  CA_17
REMARK    2  A    between atoms: C_3  and  C_6
REMARK    3  A    between atoms: N_5  and  O_15
REMARK    4  A    between atoms: C_6  and  C_10
REMARK    5  A    between atoms: CA_17  and  C_20
REMARK    6  A    between atoms: CA_17  and  C_30
REMARK    7  A    between atoms: CA_23  and  C_26
REMARK    8  A    between atoms: C_26  and  O_27
REMARK                            x       y       z     vdW  Elec       q    Type
REMARK                         _______ _______ _______ _____ _____    ______ ____
ROOT
ATOM      1  O   UNL     1      35.276 -16.008 -20.394  0.00  0.00    -0.268 OA
ATOM      2  N   UNL     1      33.527 -15.333 -21.805  0.00  0.00    -0.292 N 
ATOM      3  C   UNL     1      34.514 -16.176 -21.332  0.00  0.00    +0.269 C 
ATOM      4  H   UNL     1      32.990 -15.617 -22.580  0.00  0.00    +0.150 HD
ENDROOT
BRANCH   3   6
ATOM      5  N   UNL     1      34.713 -17.418 -23.415  0.00  0.00    -0.076 NA
ATOM      6  C   UNL     1      34.620 -17.454 -22.119  0.00  0.00    +0.198 C 
BRANCH   6  10
ATOM      7  S   UNL     1      35.355 -20.880 -20.225  0.00  0.00    -0.060 S 
ATOM      8  N   UNL     1      33.433 -19.341 -21.012  0.00  0.00    -0.383 NA
ATOM      9  N   UNL     1      32.751 -21.304 -19.886  0.00  0.00    -0.328 N 
ATOM     10  C   UNL     1      34.623 -18.750 -21.390  0.00  0.00    +0.148 C 
ATOM     11  C   UNL     1      35.771 -19.436 -21.051  0.00  0.00    +0.127 C 
ATOM     12  C   UNL     1      33.697 -20.469 -20.391  0.00  0.00    +0.204 C 
ATOM     13  H   UNL     1      33.020 -22.135 -19.430  0.00  0.00    +0.145 HD
ATOM     14  H   UNL     1      31.797 -21.078 -19.975  0.00  0.00    +0.145 HD
ENDBRANCH   6  10
BRANCH   5  15
ATOM     15  O   UNL     1      34.700 -16.104 -23.901  0.00  0.00    -0.373 OA
ATOM     16  C   UNL     1      34.013 -16.099 -25.143  0.00  0.00    +0.288 C 
ENDBRANCH   5  15
ENDBRANCH   3   6
BRANCH   2  17
ATOM     17  CA  UNL     1      33.258 -14.059 -21.203  0.00  0.00    +0.170 C 
BRANCH  17  20
ATOM     18  S   UNL     1      31.524 -11.967 -21.137  0.00  0.00    -0.110 S 
ATOM     19  N   UNL     1      33.394 -12.663 -23.165  0.00  0.00    -0.253 NA
ATOM     20  C   UNL     1      32.461 -13.162 -22.149  0.00  0.00    +0.176 C 
ATOM     21  C   UNL     1      31.027 -10.900 -22.508  0.00  0.00    +0.087 C 
ATOM     22  C   UNL     1      32.239 -10.443 -23.259  0.00  0.00    +0.012 C 
ATOM     23  CA  UNL     1      33.262 -11.472 -23.624  0.00  0.00    +0.149 C 
ATOM     24  C   UNL     1      32.428  -9.152 -23.572  0.00  0.00    -0.002 C 
BRANCH  23  26
ATOM     25  OXT UNL     1      34.170 -11.459 -25.808  0.00  0.00    -0.243 OA
ATOM     26  C   UNL     1      34.277 -11.112 -24.655  0.00  0.00    +0.355 C 
BRANCH  26  27
ATOM     27  O   UNL     1      35.238 -10.384 -24.079  0.00  0.00    -0.476 OA
ATOM     28  H   UNL     1      35.706 -10.724 -23.342  0.00  0.00    +0.295 HD
ENDBRANCH  26  27
ENDBRANCH  23  26
ENDBRANCH  17  20
BRANCH  17  30
ATOM     29  O   UNL     1      31.903 -15.353 -19.679  0.00  0.00    -0.286 OA
ATOM     30  C   UNL     1      32.509 -14.312 -19.919  0.00  0.00    +0.230 C 
ENDBRANCH  17  30
ENDBRANCH   2  17
TORSDOF 8
ENDMDL
