MODEL 1
REMARK VINA RESULT:      -8.2      0.000      0.000
REMARK  Name = 44469321
REMARK  0 active torsions:
REMARK  status: ('A' for Active; 'I' for Inactive)
REMARK                            x       y       z     vdW  Elec       q    Type
REMARK                         _______ _______ _______ _____ _____    ______ ____
ROOT
ATOM      1 CL   UNL     1      32.569 -22.264 -18.530  0.00  0.00    -0.082 Cl
ATOM      2 CL   UNL     1      32.374 -12.511 -19.831  0.00  0.00    -0.080 Cl
ATOM      3  F   UNL     1      31.766 -12.969 -22.681  0.00  0.00    -0.203 F 
ATOM      4  O   UNL     1      37.728 -18.295 -22.349  0.00  0.00    -0.276 OA
ATOM      5  N   UNL     1      35.276 -19.930 -23.091  0.00  0.00    +0.399 N 
ATOM      6  N   UNL     1      34.677 -17.117 -20.633  0.00  0.00    -0.358 N 
ATOM      7  N   UNL     1      37.447 -19.737 -20.527  0.00  0.00    -0.285 N 
ATOM      8  C   UNL     1      35.498 -19.241 -21.795  0.00  0.00    +0.080 C 
ATOM      9  C   UNL     1      34.785 -17.929 -21.728  0.00  0.00    +0.023 A 
ATOM     10  C   UNL     1      35.216 -19.017 -24.259  0.00  0.00    -0.056 C 
ATOM     11  C   UNL     1      34.141 -17.319 -22.783  0.00  0.00    -0.013 A 
ATOM     12  C   UNL     1      34.089 -17.961 -24.124  0.00  0.00    +0.006 C 
ATOM     13  C   UNL     1      35.210 -20.156 -20.629  0.00  0.00    -0.013 C 
ATOM     14  C   UNL     1      37.024 -19.000 -21.640  0.00  0.00    +0.216 C 
ATOM     15  C   UNL     1      33.603 -16.091 -22.311  0.00  0.00    +0.015 A 
ATOM     16  C   UNL     1      36.389 -20.412 -19.931  0.00  0.00    +0.045 C 
ATOM     17  C   UNL     1      33.954 -15.989 -20.960  0.00  0.00    +0.057 A 
ATOM     18  C   UNL     1      35.011 -19.851 -25.523  0.00  0.00    -0.023 C 
ATOM     19  C   UNL     1      34.016 -20.721 -20.211  0.00  0.00    +0.007 C 
ATOM     20  C   UNL     1      32.852 -15.052 -22.896  0.00  0.00    +0.032 C 
ATOM     21  C   UNL     1      36.433 -21.221 -18.813  0.00  0.00    +0.015 C 
ATOM     22  C   UNL     1      33.589 -14.894 -20.168  0.00  0.00    +0.031 C 
ATOM     23  C   UNL     1      34.033 -21.544 -19.082  0.00  0.00    +0.057 C 
ATOM     24  C   UNL     1      35.232 -21.792 -18.389  0.00  0.00    +0.013 C 
ATOM     25  C   UNL     1      32.481 -13.953 -22.114  0.00  0.00    +0.151 C 
ATOM     26  C   UNL     1      32.845 -13.877 -20.771  0.00  0.00    +0.086 C 
ATOM     27  H   UNL     1      34.395 -20.439 -23.037  0.00  0.00    -0.083 HD
ATOM     28  H   UNL     1      36.077 -20.544 -23.238  0.00  0.00    -0.083 HD
ATOM     29  H   UNL     1      35.058 -17.307 -19.746  0.00  0.00    +0.166 HD
ATOM     30  H   UNL     1      38.377 -19.773 -20.206  0.00  0.00    +0.155 HD
ENDROOT
TORSDOF 0
ENDMDL
MODEL 2
REMARK VINA RESULT:      -5.3      2.783      6.415
REMARK  Name = 44469321
REMARK  0 active torsions:
REMARK  status: ('A' for Active; 'I' for Inactive)
REMARK                            x       y       z     vdW  Elec       q    Type
REMARK                         _______ _______ _______ _____ _____    ______ ____
ROOT
ATOM      1 CL   UNL     1      33.497 -13.528 -20.263  0.00  0.00    -0.082 Cl
ATOM      2 CL   UNL     1      31.755 -22.878 -17.737  0.00  0.00    -0.080 Cl
ATOM      3  F   UNL     1      34.652 -23.233 -17.309  0.00  0.00    -0.203 F 
ATOM      4  O   UNL     1      35.411 -19.558 -24.376  0.00  0.00    -0.276 OA
ATOM      5  N   UNL     1      36.846 -17.743 -22.406  0.00  0.00    +0.399 N 
ATOM      6  N   UNL     1      33.711 -19.411 -21.099  0.00  0.00    -0.358 N 
ATOM      7  N   UNL     1      34.155 -17.584 -24.419  0.00  0.00    -0.285 N 
ATOM      8  C   UNL     1      35.387 -18.012 -22.431  0.00  0.00    +0.080 C 
ATOM      9  C   UNL     1      34.987 -19.038 -21.421  0.00  0.00    +0.023 A 
ATOM     10  C   UNL     1      37.678 -18.944 -22.148  0.00  0.00    -0.056 C 
ATOM     11  C   UNL     1      35.859 -19.794 -20.667  0.00  0.00    -0.013 A 
ATOM     12  C   UNL     1      37.332 -19.620 -20.796  0.00  0.00    +0.006 C 
ATOM     13  C   UNL     1      34.590 -16.731 -22.352  0.00  0.00    -0.013 C 
ATOM     14  C   UNL     1      35.023 -18.525 -23.850  0.00  0.00    +0.216 C 
ATOM     15  C   UNL     1      35.087 -20.652 -19.840  0.00  0.00    +0.015 A 
ATOM     16  C   UNL     1      33.896 -16.535 -23.545  0.00  0.00    +0.045 C 
ATOM     17  C   UNL     1      33.743 -20.392 -20.132  0.00  0.00    +0.057 A 
ATOM     18  C   UNL     1      39.150 -18.535 -22.173  0.00  0.00    -0.023 C 
ATOM     19  C   UNL     1      34.480 -15.810 -21.323  0.00  0.00    +0.007 C 
ATOM     20  C   UNL     1      35.393 -21.628 -18.870  0.00  0.00    +0.032 C 
ATOM     21  C   UNL     1      33.082 -15.443 -23.764  0.00  0.00    +0.015 C 
ATOM     22  C   UNL     1      32.691 -21.064 -19.499  0.00  0.00    +0.031 C 
ATOM     23  C   UNL     1      33.661 -14.694 -21.519  0.00  0.00    +0.057 C 
ATOM     24  C   UNL     1      32.968 -14.512 -22.730  0.00  0.00    +0.013 C 
ATOM     25  C   UNL     1      34.349 -22.306 -18.230  0.00  0.00    +0.151 C 
ATOM     26  C   UNL     1      33.020 -22.027 -18.541  0.00  0.00    +0.086 C 
ATOM     27  H   UNL     1      37.034 -17.060 -21.673  0.00  0.00    -0.083 HD
ATOM     28  H   UNL     1      37.099 -17.404 -23.334  0.00  0.00    -0.083 HD
ATOM     29  H   UNL     1      32.894 -19.036 -21.499  0.00  0.00    +0.166 HD
ATOM     30  H   UNL     1      33.774 -17.656 -25.324  0.00  0.00    +0.155 HD
ENDROOT
TORSDOF 0
ENDMDL
MODEL 3
REMARK VINA RESULT:      -5.3      5.803      8.766
REMARK  Name = 44469321
REMARK  0 active torsions:
REMARK  status: ('A' for Active; 'I' for Inactive)
REMARK                            x       y       z     vdW  Elec       q    Type
REMARK                         _______ _______ _______ _____ _____    ______ ____
ROOT
ATOM      1 CL   UNL     1      37.911 -21.660 -11.208  0.00  0.00    -0.082 Cl
ATOM      2 CL   UNL     1      36.597 -20.007 -20.820  0.00  0.00    -0.080 Cl
ATOM      3  F   UNL     1      33.685 -20.201 -20.388  0.00  0.00    -0.203 F 
ATOM      4  O   UNL     1      35.477 -26.775 -16.194  0.00  0.00    -0.276 OA
ATOM      5  N   UNL     1      34.155 -24.917 -14.185  0.00  0.00    +0.399 N 
ATOM      6  N   UNL     1      36.388 -23.237 -16.736  0.00  0.00    -0.358 N 
ATOM      7  N   UNL     1      37.174 -26.330 -14.645  0.00  0.00    -0.285 N 
ATOM      8  C   UNL     1      35.465 -24.689 -14.844  0.00  0.00    +0.080 C 
ATOM      9  C   UNL     1      35.355 -23.753 -16.004  0.00  0.00    +0.023 A 
ATOM     10  C   UNL     1      33.008 -24.975 -15.124  0.00  0.00    -0.056 C 
ATOM     11  C   UNL     1      34.173 -23.283 -16.537  0.00  0.00    -0.013 A 
ATOM     12  C   UNL     1      32.860 -23.675 -15.956  0.00  0.00    +0.006 C 
ATOM     13  C   UNL     1      36.525 -24.299 -13.841  0.00  0.00    -0.013 C 
ATOM     14  C   UNL     1      35.990 -26.061 -15.344  0.00  0.00    +0.216 C 
ATOM     15  C   UNL     1      34.497 -22.432 -17.628  0.00  0.00    +0.015 A 
ATOM     16  C   UNL     1      37.492 -25.301 -13.768  0.00  0.00    +0.045 C 
ATOM     17  C   UNL     1      35.893 -22.422 -17.731  0.00  0.00    +0.057 A 
ATOM     18  C   UNL     1      31.732 -25.238 -14.323  0.00  0.00    -0.023 C 
ATOM     19  C   UNL     1      36.637 -23.163 -13.056  0.00  0.00    +0.007 C 
ATOM     20  C   UNL     1      33.745 -21.668 -18.542  0.00  0.00    +0.032 C 
ATOM     21  C   UNL     1      38.587 -25.220 -12.931  0.00  0.00    +0.015 C 
ATOM     22  C   UNL     1      36.571 -21.682 -18.707  0.00  0.00    +0.031 C 
ATOM     23  C   UNL     1      37.736 -23.057 -12.200  0.00  0.00    +0.057 C 
ATOM     24  C   UNL     1      38.703 -24.078 -12.137  0.00  0.00    +0.013 C 
ATOM     25  C   UNL     1      34.411 -20.925 -19.523  0.00  0.00    +0.151 C 
ATOM     26  C   UNL     1      35.802 -20.933 -19.602  0.00  0.00    +0.086 C 
ATOM     27  H   UNL     1      33.991 -24.157 -13.526  0.00  0.00    -0.083 HD
ATOM     28  H   UNL     1      34.210 -25.828 -13.730  0.00  0.00    -0.083 HD
ATOM     29  H   UNL     1      37.342 -23.420 -16.576  0.00  0.00    +0.166 HD
ATOM     30  H   UNL     1      37.714 -27.145 -14.760  0.00  0.00    +0.155 HD
ENDROOT
TORSDOF 0
ENDMDL
