MODEL 1
REMARK VINA RESULT:     -11.9      0.000      0.000
REMARK  Name = 3815
REMARK  0 active torsions:
REMARK  status: ('A' for Active; 'I' for Inactive)
REMARK                            x       y       z     vdW  Elec       q    Type
REMARK                         _______ _______ _______ _____ _____    ______ ____
ROOT
ATOM      1  O   UNL     1      31.289 -22.666 -17.320  0.00  0.00    -0.270 OA
ATOM      2  N   UNL     1      37.632 -23.401 -15.826  0.00  0.00    -0.352 N 
ATOM      3  N   UNL     1      36.685 -22.018 -18.054  0.00  0.00    -0.352 N 
ATOM      4  N   UNL     1      31.646 -23.903 -15.358  0.00  0.00    -0.297 N 
ATOM      5  C   UNL     1      33.928 -23.824 -15.359  0.00  0.00    +0.003 A 
ATOM      6  C   UNL     1      35.314 -23.870 -15.211  0.00  0.00    +0.016 A 
ATOM      7  C   UNL     1      34.405 -22.548 -17.340  0.00  0.00    +0.022 A 
ATOM      8  C   UNL     1      36.305 -23.292 -16.068  0.00  0.00    +0.072 A 
ATOM      9  C   UNL     1      33.470 -23.126 -16.481  0.00  0.00    +0.053 A 
ATOM     10  C   UNL     1      35.830 -22.599 -17.184  0.00  0.00    +0.073 A 
ATOM     11  C   UNL     1      32.779 -24.362 -14.575  0.00  0.00    +0.117 C 
ATOM     12  C   UNL     1      36.276 -24.441 -14.263  0.00  0.00    +0.017 A 
ATOM     13  C   UNL     1      34.442 -21.759 -18.582  0.00  0.00    +0.017 A 
ATOM     14  C   UNL     1      37.623 -24.146 -14.655  0.00  0.00    +0.057 A 
ATOM     15  C   UNL     1      35.795 -21.470 -18.966  0.00  0.00    +0.057 A 
ATOM     16  C   UNL     1      32.013 -23.173 -16.486  0.00  0.00    +0.246 C 
ATOM     17  C   UNL     1      36.085 -25.198 -13.082  0.00  0.00    +0.001 C 
ATOM     18  C   UNL     1      33.414 -21.262 -19.420  0.00  0.00    +0.001 C 
ATOM     19  C   UNL     1      38.720 -24.588 -13.901  0.00  0.00    +0.017 C 
ATOM     20  C   UNL     1      36.093 -20.728 -20.119  0.00  0.00    +0.017 C 
ATOM     21  C   UNL     1      37.187 -25.634 -12.338  0.00  0.00    +0.000 C 
ATOM     22  C   UNL     1      33.723 -20.525 -20.568  0.00  0.00    +0.000 C 
ATOM     23  C   UNL     1      38.481 -25.333 -12.744  0.00  0.00    +0.001 C 
ATOM     24  C   UNL     1      35.043 -20.263 -20.910  0.00  0.00    +0.001 C 
ATOM     25  H   UNL     1      38.395 -23.049 -16.340  0.00  0.00    +0.166 HD
ATOM     26  H   UNL     1      37.668 -21.990 -18.044  0.00  0.00    +0.166 HD
ATOM     27  H   UNL     1      30.710 -24.088 -15.115  0.00  0.00    +0.150 HD
ENDROOT
TORSDOF 0
ENDMDL
MODEL 2
REMARK VINA RESULT:     -11.8      2.205      4.782
REMARK  Name = 3815
REMARK  0 active torsions:
REMARK  status: ('A' for Active; 'I' for Inactive)
REMARK                            x       y       z     vdW  Elec       q    Type
REMARK                         _______ _______ _______ _____ _____    ______ ____
ROOT
ATOM      1  O   UNL     1      37.530 -22.761 -16.322  0.00  0.00    -0.270 OA
ATOM      2  N   UNL     1      31.050 -23.066 -17.284  0.00  0.00    -0.352 N 
ATOM      3  N   UNL     1      32.844 -21.806 -19.007  0.00  0.00    -0.352 N 
ATOM      4  N   UNL     1      36.389 -23.914 -14.625  0.00  0.00    -0.297 N 
ATOM      5  C   UNL     1      34.281 -23.698 -15.474  0.00  0.00    +0.003 A 
ATOM      6  C   UNL     1      32.939 -23.657 -15.852  0.00  0.00    +0.016 A 
ATOM      7  C   UNL     1      34.657 -22.454 -17.496  0.00  0.00    +0.022 A 
ATOM      8  C   UNL     1      32.376 -23.045 -17.017  0.00  0.00    +0.072 A 
ATOM      9  C   UNL     1      35.167 -23.063 -16.349  0.00  0.00    +0.053 A 
ATOM     10  C   UNL     1      33.276 -22.414 -17.880  0.00  0.00    +0.073 A 
ATOM     11  C   UNL     1      35.020 -24.281 -14.317  0.00  0.00    +0.117 C 
ATOM     12  C   UNL     1      31.658 -24.140 -15.324  0.00  0.00    +0.017 A 
ATOM     13  C   UNL     1      35.135 -21.699 -18.665  0.00  0.00    +0.017 A 
ATOM     14  C   UNL     1      30.574 -23.775 -16.189  0.00  0.00    +0.057 A 
ATOM     15  C   UNL     1      34.042 -21.338 -19.525  0.00  0.00    +0.057 A 
ATOM     16  C   UNL     1      36.516 -23.197 -15.813  0.00  0.00    +0.246 C 
ATOM     17  C   UNL     1      31.347 -24.872 -14.154  0.00  0.00    +0.001 C 
ATOM     18  C   UNL     1      36.430 -21.288 -19.064  0.00  0.00    +0.001 C 
ATOM     19  C   UNL     1      29.250 -24.128 -15.895  0.00  0.00    +0.017 C 
ATOM     20  C   UNL     1      34.242 -20.611 -20.708  0.00  0.00    +0.017 C 
ATOM     21  C   UNL     1      30.022 -25.218 -13.870  0.00  0.00    +0.000 C 
ATOM     22  C   UNL     1      36.618 -20.563 -20.245  0.00  0.00    +0.000 C 
ATOM     23  C   UNL     1      28.992 -24.850 -14.728  0.00  0.00    +0.001 C 
ATOM     24  C   UNL     1      35.539 -20.231 -21.054  0.00  0.00    +0.001 C 
ATOM     25  H   UNL     1      30.556 -22.683 -18.045  0.00  0.00    +0.166 HD
ATOM     26  H   UNL     1      31.931 -21.720 -19.363  0.00  0.00    +0.166 HD
ATOM     27  H   UNL     1      37.155 -24.150 -14.052  0.00  0.00    +0.150 HD
ENDROOT
TORSDOF 0
ENDMDL
MODEL 3
REMARK VINA RESULT:     -11.7      2.078      6.610
REMARK  Name = 3815
REMARK  0 active torsions:
REMARK  status: ('A' for Active; 'I' for Inactive)
REMARK                            x       y       z     vdW  Elec       q    Type
REMARK                         _______ _______ _______ _____ _____    ______ ____
ROOT
ATOM      1  O   UNL     1      35.760 -24.279 -14.172  0.00  0.00    -0.270 OA
ATOM      2  N   UNL     1      32.732 -21.486 -19.274  0.00  0.00    -0.352 N 
ATOM      3  N   UNL     1      31.437 -22.904 -17.253  0.00  0.00    -0.352 N 
ATOM      4  N   UNL     1      37.228 -23.184 -15.641  0.00  0.00    -0.297 N 
ATOM      5  C   UNL     1      35.668 -22.448 -17.137  0.00  0.00    +0.003 A 
ATOM      6  C   UNL     1      34.850 -21.926 -18.139  0.00  0.00    +0.016 A 
ATOM      7  C   UNL     1      33.616 -23.283 -16.205  0.00  0.00    +0.022 A 
ATOM      8  C   UNL     1      33.427 -22.035 -18.251  0.00  0.00    +0.072 A 
ATOM      9  C   UNL     1      35.003 -23.155 -16.131  0.00  0.00    +0.053 A 
ATOM     10  C   UNL     1      32.779 -22.745 -17.238  0.00  0.00    +0.073 A 
ATOM     11  C   UNL     1      37.137 -22.428 -16.876  0.00  0.00    +0.117 C 
ATOM     12  C   UNL     1      35.021 -21.143 -19.367  0.00  0.00    +0.017 A 
ATOM     13  C   UNL     1      32.509 -23.892 -15.450  0.00  0.00    +0.017 A 
ATOM     14  C   UNL     1      33.759 -20.904 -20.005  0.00  0.00    +0.057 A 
ATOM     15  C   UNL     1      31.250 -23.647 -16.097  0.00  0.00    +0.057 A 
ATOM     16  C   UNL     1      35.993 -23.629 -15.172  0.00  0.00    +0.246 C 
ATOM     17  C   UNL     1      36.180 -20.615 -19.984  0.00  0.00    +0.001 C 
ATOM     18  C   UNL     1      32.480 -24.642 -14.249  0.00  0.00    +0.001 C 
ATOM     19  C   UNL     1      33.667 -20.173 -21.198  0.00  0.00    +0.017 C 
ATOM     20  C   UNL     1      30.042 -24.128 -15.569  0.00  0.00    +0.017 C 
ATOM     21  C   UNL     1      36.076 -19.888 -21.174  0.00  0.00    +0.000 C 
ATOM     22  C   UNL     1      31.271 -25.117 -13.732  0.00  0.00    +0.000 C 
ATOM     23  C   UNL     1      34.839 -19.673 -21.770  0.00  0.00    +0.001 C 
ATOM     24  C   UNL     1      30.071 -24.862 -14.384  0.00  0.00    +0.001 C 
ATOM     25  H   UNL     1      31.764 -21.496 -19.452  0.00  0.00    +0.166 HD
ATOM     26  H   UNL     1      30.774 -22.581 -17.904  0.00  0.00    +0.166 HD
ATOM     27  H   UNL     1      38.078 -23.365 -15.178  0.00  0.00    +0.150 HD
ENDROOT
TORSDOF 0
ENDMDL
MODEL 4
REMARK VINA RESULT:     -11.6      0.929      5.961
REMARK  Name = 3815
REMARK  0 active torsions:
REMARK  status: ('A' for Active; 'I' for Inactive)
REMARK                            x       y       z     vdW  Elec       q    Type
REMARK                         _______ _______ _______ _____ _____    ______ ____
ROOT
ATOM      1  O   UNL     1      32.793 -24.938 -13.704  0.00  0.00    -0.270 OA
ATOM      2  N   UNL     1      36.701 -21.984 -18.064  0.00  0.00    -0.352 N 
ATOM      3  N   UNL     1      37.603 -23.355 -15.810  0.00  0.00    -0.352 N 
ATOM      4  N   UNL     1      31.621 -23.898 -15.451  0.00  0.00    -0.297 N 
ATOM      5  C   UNL     1      33.426 -23.087 -16.589  0.00  0.00    +0.003 A 
ATOM      6  C   UNL     1      34.413 -22.525 -17.399  0.00  0.00    +0.016 A 
ATOM      7  C   UNL     1      35.272 -23.836 -15.243  0.00  0.00    +0.022 A 
ATOM      8  C   UNL     1      35.831 -22.569 -17.208  0.00  0.00    +0.072 A 
ATOM      9  C   UNL     1      33.896 -23.771 -15.464  0.00  0.00    +0.053 A 
ATOM     10  C   UNL     1      36.282 -23.256 -16.079  0.00  0.00    +0.073 A 
ATOM     11  C   UNL     1      31.936 -23.132 -16.642  0.00  0.00    +0.117 C 
ATOM     12  C   UNL     1      34.470 -21.742 -18.637  0.00  0.00    +0.017 A 
ATOM     13  C   UNL     1      36.220 -24.398 -14.268  0.00  0.00    +0.017 A 
ATOM     14  C   UNL     1      35.826 -21.443 -18.996  0.00  0.00    +0.057 A 
ATOM     15  C   UNL     1      37.575 -24.094 -14.637  0.00  0.00    +0.057 A 
ATOM     16  C   UNL     1      32.747 -24.292 -14.732  0.00  0.00    +0.246 C 
ATOM     17  C   UNL     1      33.444 -21.261 -19.486  0.00  0.00    +0.001 C 
ATOM     18  C   UNL     1      36.029 -25.153 -13.086  0.00  0.00    +0.001 C 
ATOM     19  C   UNL     1      36.134 -20.703 -20.146  0.00  0.00    +0.017 C 
ATOM     20  C   UNL     1      38.665 -24.521 -13.863  0.00  0.00    +0.017 C 
ATOM     21  C   UNL     1      33.764 -20.524 -20.631  0.00  0.00    +0.000 C 
ATOM     22  C   UNL     1      37.123 -25.573 -12.321  0.00  0.00    +0.000 C 
ATOM     23  C   UNL     1      35.088 -20.250 -20.953  0.00  0.00    +0.001 C 
ATOM     24  C   UNL     1      38.420 -25.261 -12.706  0.00  0.00    +0.001 C 
ATOM     25  H   UNL     1      37.684 -21.951 -18.034  0.00  0.00    +0.166 HD
ATOM     26  H   UNL     1      38.373 -23.001 -16.309  0.00  0.00    +0.166 HD
ATOM     27  H   UNL     1      30.701 -24.120 -15.178  0.00  0.00    +0.150 HD
ENDROOT
TORSDOF 0
ENDMDL
MODEL 5
REMARK VINA RESULT:     -11.4      7.666     12.035
REMARK  Name = 3815
REMARK  0 active torsions:
REMARK  status: ('A' for Active; 'I' for Inactive)
REMARK                            x       y       z     vdW  Elec       q    Type
REMARK                         _______ _______ _______ _____ _____    ______ ____
ROOT
ATOM      1  O   UNL     1      34.266 -16.173 -26.249  0.00  0.00    -0.270 OA
ATOM      2  N   UNL     1      32.630 -13.850 -20.339  0.00  0.00    -0.352 N 
ATOM      3  N   UNL     1      33.693 -16.385 -20.799  0.00  0.00    -0.352 N 
ATOM      4  N   UNL     1      33.404 -13.990 -26.312  0.00  0.00    -0.297 N 
ATOM      5  C   UNL     1      33.037 -13.743 -24.072  0.00  0.00    +0.003 A 
ATOM      6  C   UNL     1      32.754 -13.431 -22.743  0.00  0.00    +0.016 A 
ATOM      7  C   UNL     1      33.770 -15.855 -23.187  0.00  0.00    +0.022 A 
ATOM      8  C   UNL     1      32.943 -14.258 -21.590  0.00  0.00    +0.072 A 
ATOM      9  C   UNL     1      33.570 -15.018 -24.285  0.00  0.00    +0.053 A 
ATOM     10  C   UNL     1      33.476 -15.529 -21.821  0.00  0.00    +0.073 A 
ATOM     11  C   UNL     1      32.901 -13.012 -25.365  0.00  0.00    +0.117 C 
ATOM     12  C   UNL     1      32.210 -12.290 -21.999  0.00  0.00    +0.017 A 
ATOM     13  C   UNL     1      34.270 -17.206 -22.890  0.00  0.00    +0.017 A 
ATOM     14  C   UNL     1      32.152 -12.571 -20.594  0.00  0.00    +0.057 A 
ATOM     15  C   UNL     1      34.208 -17.478 -21.480  0.00  0.00    +0.057 A 
ATOM     16  C   UNL     1      33.807 -15.182 -25.714  0.00  0.00    +0.246 C 
ATOM     17  C   UNL     1      31.757 -11.021 -22.434  0.00  0.00    +0.001 C 
ATOM     18  C   UNL     1      34.778 -18.233 -23.722  0.00  0.00    +0.001 C 
ATOM     19  C   UNL     1      31.667 -11.628 -19.676  0.00  0.00    +0.017 C 
ATOM     20  C   UNL     1      34.630 -18.704 -20.945  0.00  0.00    +0.017 C 
ATOM     21  C   UNL     1      31.275 -10.089 -21.510  0.00  0.00    +0.000 C 
ATOM     22  C   UNL     1      35.195 -19.453 -23.178  0.00  0.00    +0.000 C 
ATOM     23  C   UNL     1      31.232 -10.390 -20.154  0.00  0.00    +0.001 C 
ATOM     24  C   UNL     1      35.122 -19.683 -21.810  0.00  0.00    +0.001 C 
ATOM     25  H   UNL     1      32.717 -14.327 -19.482  0.00  0.00    +0.166 HD
ATOM     26  H   UNL     1      33.531 -16.267 -19.836  0.00  0.00    +0.166 HD
ATOM     27  H   UNL     1      33.456 -13.828 -27.282  0.00  0.00    +0.150 HD
ENDROOT
TORSDOF 0
ENDMDL
MODEL 6
REMARK VINA RESULT:     -10.9      1.738      4.517
REMARK  Name = 3815
REMARK  0 active torsions:
REMARK  status: ('A' for Active; 'I' for Inactive)
REMARK                            x       y       z     vdW  Elec       q    Type
REMARK                         _______ _______ _______ _____ _____    ______ ____
ROOT
ATOM      1  O   UNL     1      32.629 -21.954 -18.824  0.00  0.00    -0.270 OA
ATOM      2  N   UNL     1      34.626 -24.968 -13.353  0.00  0.00    -0.352 N 
ATOM      3  N   UNL     1      31.956 -24.560 -14.046  0.00  0.00    -0.352 N 
ATOM      4  N   UNL     1      34.964 -22.082 -18.631  0.00  0.00    -0.297 N 
ATOM      5  C   UNL     1      35.045 -23.178 -16.630  0.00  0.00    +0.003 A 
ATOM      6  C   UNL     1      35.269 -23.842 -15.424  0.00  0.00    +0.016 A 
ATOM      7  C   UNL     1      32.718 -23.450 -16.090  0.00  0.00    +0.022 A 
ATOM      8  C   UNL     1      34.292 -24.336 -14.502  0.00  0.00    +0.072 A 
ATOM      9  C   UNL     1      33.701 -22.983 -16.963  0.00  0.00    +0.053 A 
ATOM     10  C   UNL     1      32.955 -24.131 -14.850  0.00  0.00    +0.073 A 
ATOM     11  C   UNL     1      35.931 -22.609 -17.686  0.00  0.00    +0.117 C 
ATOM     12  C   UNL     1      36.427 -24.282 -14.638  0.00  0.00    +0.017 A 
ATOM     13  C   UNL     1      31.251 -23.494 -15.981  0.00  0.00    +0.017 A 
ATOM     14  C   UNL     1      36.012 -24.938 -13.432  0.00  0.00    +0.057 A 
ATOM     15  C   UNL     1      30.846 -24.152 -14.770  0.00  0.00    +0.057 A 
ATOM     16  C   UNL     1      33.642 -22.283 -18.240  0.00  0.00    +0.246 C 
ATOM     17  C   UNL     1      37.817 -24.165 -14.878  0.00  0.00    +0.001 C 
ATOM     18  C   UNL     1      30.223 -23.018 -16.830  0.00  0.00    +0.001 C 
ATOM     19  C   UNL     1      36.943 -25.448 -12.517  0.00  0.00    +0.017 C 
ATOM     20  C   UNL     1      29.493 -24.318 -14.436  0.00  0.00    +0.017 C 
ATOM     21  C   UNL     1      38.737 -24.678 -13.958  0.00  0.00    +0.000 C 
ATOM     22  C   UNL     1      28.877 -23.189 -16.488  0.00  0.00    +0.000 C 
ATOM     23  C   UNL     1      38.304 -25.308 -12.797  0.00  0.00    +0.001 C 
ATOM     24  C   UNL     1      28.520 -23.830 -15.308  0.00  0.00    +0.001 C 
ATOM     25  H   UNL     1      34.046 -25.345 -12.652  0.00  0.00    +0.166 HD
ATOM     26  H   UNL     1      32.004 -25.033 -13.184  0.00  0.00    +0.166 HD
ATOM     27  H   UNL     1      35.217 -21.627 -19.467  0.00  0.00    +0.150 HD
ENDROOT
TORSDOF 0
ENDMDL
MODEL 7
REMARK VINA RESULT:     -10.6      2.089      6.369
REMARK  Name = 3815
REMARK  0 active torsions:
REMARK  status: ('A' for Active; 'I' for Inactive)
REMARK                            x       y       z     vdW  Elec       q    Type
REMARK                         _______ _______ _______ _____ _____    ______ ____
ROOT
ATOM      1  O   UNL     1      36.766 -22.299 -17.926  0.00  0.00    -0.270 OA
ATOM      2  N   UNL     1      31.975 -24.700 -14.146  0.00  0.00    -0.352 N 
ATOM      3  N   UNL     1      34.696 -24.941 -13.589  0.00  0.00    -0.352 N 
ATOM      4  N   UNL     1      34.615 -21.875 -18.766  0.00  0.00    -0.297 N 
ATOM      5  C   UNL     1      33.431 -22.899 -17.104  0.00  0.00    +0.003 A 
ATOM      6  C   UNL     1      32.564 -23.476 -16.177  0.00  0.00    +0.016 A 
ATOM      7  C   UNL     1      35.166 -23.704 -15.647  0.00  0.00    +0.022 A 
ATOM      8  C   UNL     1      32.906 -24.177 -14.977  0.00  0.00    +0.072 A 
ATOM      9  C   UNL     1      34.792 -23.028 -16.809  0.00  0.00    +0.053 A 
ATOM     10  C   UNL     1      34.270 -24.297 -14.698  0.00  0.00    +0.073 A 
ATOM     11  C   UNL     1      33.244 -22.149 -18.380  0.00  0.00    +0.117 C 
ATOM     12  C   UNL     1      31.114 -23.625 -16.009  0.00  0.00    +0.017 A 
ATOM     13  C   UNL     1      36.389 -24.092 -14.927  0.00  0.00    +0.017 A 
ATOM     14  C   UNL     1      30.807 -24.347 -14.809  0.00  0.00    +0.057 A 
ATOM     15  C   UNL     1      36.070 -24.815 -13.727  0.00  0.00    +0.057 A 
ATOM     16  C   UNL     1      35.554 -22.376 -17.867  0.00  0.00    +0.246 C 
ATOM     17  C   UNL     1      30.032 -23.187 -16.809  0.00  0.00    +0.001 C 
ATOM     18  C   UNL     1      37.761 -23.882 -15.206  0.00  0.00    +0.001 C 
ATOM     19  C   UNL     1      29.483 -24.614 -14.432  0.00  0.00    +0.017 C 
ATOM     20  C   UNL     1      37.068 -25.294 -12.865  0.00  0.00    +0.017 C 
ATOM     21  C   UNL     1      28.715 -23.459 -16.423  0.00  0.00    +0.000 C 
ATOM     22  C   UNL     1      38.749 -24.365 -14.340  0.00  0.00    +0.000 C 
ATOM     23  C   UNL     1      28.448 -24.161 -15.254  0.00  0.00    +0.001 C 
ATOM     24  C   UNL     1      38.405 -25.060 -13.188  0.00  0.00    +0.001 C 
ATOM     25  H   UNL     1      32.092 -25.196 -13.304  0.00  0.00    +0.166 HD
ATOM     26  H   UNL     1      34.175 -25.379 -12.878  0.00  0.00    +0.166 HD
ATOM     27  H   UNL     1      34.859 -21.382 -19.583  0.00  0.00    +0.150 HD
ENDROOT
TORSDOF 0
ENDMDL
MODEL 8
REMARK VINA RESULT:     -10.0      7.852     11.523
REMARK  Name = 3815
REMARK  0 active torsions:
REMARK  status: ('A' for Active; 'I' for Inactive)
REMARK                            x       y       z     vdW  Elec       q    Type
REMARK                         _______ _______ _______ _____ _____    ______ ____
ROOT
ATOM      1  O   UNL     1      32.694 -11.976 -25.670  0.00  0.00    -0.270 OA
ATOM      2  N   UNL     1      33.685 -16.360 -20.894  0.00  0.00    -0.352 N 
ATOM      3  N   UNL     1      32.668 -13.795 -20.496  0.00  0.00    -0.352 N 
ATOM      4  N   UNL     1      33.567 -14.013 -26.442  0.00  0.00    -0.297 N 
ATOM      5  C   UNL     1      33.688 -15.077 -24.425  0.00  0.00    +0.003 A 
ATOM      6  C   UNL     1      33.826 -15.864 -23.283  0.00  0.00    +0.016 A 
ATOM      7  C   UNL     1      32.854 -13.411 -22.906  0.00  0.00    +0.022 A 
ATOM      8  C   UNL     1      33.509 -15.510 -21.933  0.00  0.00    +0.072 A 
ATOM      9  C   UNL     1      33.176 -13.794 -24.208  0.00  0.00    +0.053 A 
ATOM     10  C   UNL     1      32.999 -14.225 -21.734  0.00  0.00    +0.073 A 
ATOM     11  C   UNL     1      33.967 -15.288 -25.876  0.00  0.00    +0.117 C 
ATOM     12  C   UNL     1      34.291 -17.217 -22.959  0.00  0.00    +0.017 A 
ATOM     13  C   UNL     1      32.319 -12.245 -22.185  0.00  0.00    +0.017 A 
ATOM     14  C   UNL     1      34.194 -17.473 -21.551  0.00  0.00    +0.057 A 
ATOM     15  C   UNL     1      32.226 -12.511 -20.777  0.00  0.00    +0.057 A 
ATOM     16  C   UNL     1      33.096 -13.109 -25.492  0.00  0.00    +0.246 C 
ATOM     17  C   UNL     1      34.794 -18.254 -23.782  0.00  0.00    +0.001 C 
ATOM     18  C   UNL     1      31.900 -10.967 -22.628  0.00  0.00    +0.001 C 
ATOM     19  C   UNL     1      34.580 -18.703 -21.001  0.00  0.00    +0.017 C 
ATOM     20  C   UNL     1      31.743 -11.551 -19.874  0.00  0.00    +0.017 C 
ATOM     21  C   UNL     1      35.176 -19.477 -23.221  0.00  0.00    +0.000 C 
ATOM     22  C   UNL     1      31.421 -10.017 -21.720  0.00  0.00    +0.000 C 
ATOM     23  C   UNL     1      35.070 -19.695 -21.853  0.00  0.00    +0.001 C 
ATOM     24  C   UNL     1      31.344 -10.307 -20.364  0.00  0.00    +0.001 C 
ATOM     25  H   UNL     1      33.504 -16.227 -19.936  0.00  0.00    +0.166 HD
ATOM     26  H   UNL     1      32.725 -14.264 -19.633  0.00  0.00    +0.166 HD
ATOM     27  H   UNL     1      33.621 -13.808 -27.403  0.00  0.00    +0.150 HD
ENDROOT
TORSDOF 0
ENDMDL
MODEL 9
REMARK VINA RESULT:      -9.2     11.421     14.785
REMARK  Name = 3815
REMARK  0 active torsions:
REMARK  status: ('A' for Active; 'I' for Inactive)
REMARK                            x       y       z     vdW  Elec       q    Type
REMARK                         _______ _______ _______ _____ _____    ______ ____
ROOT
ATOM      1  O   UNL     1      31.158  -8.446 -19.018  0.00  0.00    -0.270 OA
ATOM      2  N   UNL     1      33.173 -11.559 -24.426  0.00  0.00    -0.352 N 
ATOM      3  N   UNL     1      32.729  -8.812 -24.259  0.00  0.00    -0.352 N 
ATOM      4  N   UNL     1      31.404 -10.761 -18.723  0.00  0.00    -0.297 N 
ATOM      5  C   UNL     1      32.091 -11.267 -20.840  0.00  0.00    +0.003 A 
ATOM      6  C   UNL     1      32.520 -11.743 -22.079  0.00  0.00    +0.016 A 
ATOM      7  C   UNL     1      32.094  -9.117 -21.916  0.00  0.00    +0.022 A 
ATOM      8  C   UNL     1      32.756 -10.989 -23.272  0.00  0.00    +0.072 A 
ATOM      9  C   UNL     1      31.874  -9.888 -20.774  0.00  0.00    +0.053 A 
ATOM     10  C   UNL     1      32.534  -9.612 -23.188  0.00  0.00    +0.073 A 
ATOM     11  C   UNL     1      31.800 -11.904 -19.523  0.00  0.00    +0.117 C 
ATOM     12  C   UNL     1      32.876 -13.038 -22.669  0.00  0.00    +0.017 A 
ATOM     13  C   UNL     1      32.015  -7.712 -22.347  0.00  0.00    +0.017 A 
ATOM     14  C   UNL     1      33.253 -12.892 -24.044  0.00  0.00    +0.057 A 
ATOM     15  C   UNL     1      32.395  -7.576 -23.725  0.00  0.00    +0.057 A 
ATOM     16  C   UNL     1      31.435  -9.558 -19.424  0.00  0.00    +0.246 C 
ATOM     17  C   UNL     1      32.902 -14.341 -22.115  0.00  0.00    +0.001 C 
ATOM     18  C   UNL     1      31.646  -6.530 -21.661  0.00  0.00    +0.001 C 
ATOM     19  C   UNL     1      33.637 -13.994 -24.821  0.00  0.00    +0.017 C 
ATOM     20  C   UNL     1      32.401  -6.331 -24.370  0.00  0.00    +0.017 C 
ATOM     21  C   UNL     1      33.286 -15.433 -22.899  0.00  0.00    +0.000 C 
ATOM     22  C   UNL     1      31.655  -5.293 -22.314  0.00  0.00    +0.000 C 
ATOM     23  C   UNL     1      33.647 -15.260 -24.230  0.00  0.00    +0.001 C 
ATOM     24  C   UNL     1      32.028  -5.197 -23.649  0.00  0.00    +0.001 C 
ATOM     25  H   UNL     1      33.366 -11.145 -25.298  0.00  0.00    +0.166 HD
ATOM     26  H   UNL     1      33.026  -9.042 -25.169  0.00  0.00    +0.166 HD
ATOM     27  H   UNL     1      31.140 -10.829 -17.776  0.00  0.00    +0.150 HD
ENDROOT
TORSDOF 0
ENDMDL
