MODEL 1
REMARK VINA RESULT:      -8.2      0.000      0.000
REMARK  Name = 5360410
REMARK  3 active torsions:
REMARK  status: ('A' for Active; 'I' for Inactive)
REMARK    1  A    between atoms: N_3  and  C_11
REMARK    2  A    between atoms: N_3  and  N_14
REMARK    3  A    between atoms: C_4  and  O_20
REMARK                            x       y       z     vdW  Elec       q    Type
REMARK                         _______ _______ _______ _____ _____    ______ ____
ROOT
ATOM      1  O   UNL     1      33.197 -22.512 -19.586  0.00  0.00    -0.289 OA
ATOM      2  N   UNL     1      34.811 -23.437 -15.146  0.00  0.00    -0.306 N 
ATOM      3  C   UNL     1      36.991 -22.640 -15.576  0.00  0.00    +0.153 C 
ATOM      4  C   UNL     1      36.030 -23.039 -14.443  0.00  0.00    +0.125 C 
ATOM      5  C   UNL     1      36.104 -22.465 -16.779  0.00  0.00    +0.017 C 
ATOM      6  C   UNL     1      34.800 -23.017 -16.462  0.00  0.00    +0.031 C 
ATOM      7  C   UNL     1      36.421 -21.890 -17.941  0.00  0.00    +0.020 C 
ATOM      8  C   UNL     1      33.810 -23.050 -17.362  0.00  0.00    +0.111 C 
ATOM      9  C   UNL     1      33.687 -23.940 -14.388  0.00  0.00    +0.112 C 
ATOM     10  C   UNL     1      35.386 -21.851 -18.996  0.00  0.00    +0.122 C 
ATOM     11  C   UNL     1      34.047 -22.486 -18.710  0.00  0.00    +0.195 C 
ENDROOT
BRANCH   3  12
ATOM     12  O   UNL     1      37.922 -23.691 -15.811  0.00  0.00    -0.378 OA
ATOM     13  H   UNL     1      38.307 -23.590 -16.696  0.00  0.00    +0.211 HD
ENDBRANCH   3  12
BRANCH  10  14
ATOM     14  N   UNL     1      35.551 -21.309 -20.157  0.00  0.00    -0.144 NA
BRANCH  14  16
ATOM     15  O   UNL     1      34.467 -19.560 -21.984  0.00  0.00    -0.251 OA
ATOM     16  N   UNL     1      35.765 -19.976 -20.105  0.00  0.00    -0.200 N 
ATOM     17  N   UNL     1      35.494 -17.832 -20.875  0.00  0.00    -0.312 N 
ATOM     18  C   UNL     1      35.182 -19.166 -21.064  0.00  0.00    +0.315 C 
ATOM     19  H   UNL     1      36.327 -19.587 -19.396  0.00  0.00    +0.176 HD
ATOM     20  H   UNL     1      35.140 -17.151 -21.492  0.00  0.00    +0.147 HD
ATOM     21  H   UNL     1      36.070 -17.562 -20.124  0.00  0.00    +0.147 HD
ENDBRANCH  14  16
ENDBRANCH  10  14
TORSDOF 3
ENDMDL
MODEL 2
REMARK VINA RESULT:      -8.2      4.029      8.925
REMARK  Name = 5360410
REMARK  3 active torsions:
REMARK  status: ('A' for Active; 'I' for Inactive)
REMARK    1  A    between atoms: N_3  and  C_11
REMARK    2  A    between atoms: N_3  and  N_14
REMARK    3  A    between atoms: C_4  and  O_20
REMARK                            x       y       z     vdW  Elec       q    Type
REMARK                         _______ _______ _______ _____ _____    ______ ____
ROOT
ATOM      1  O   UNL     1      34.994 -16.043 -19.861  0.00  0.00    -0.289 OA
ATOM      2  N   UNL     1      33.836 -14.429 -24.247  0.00  0.00    -0.306 N 
ATOM      3  C   UNL     1      34.073 -16.536 -25.284  0.00  0.00    +0.153 C 
ATOM      4  C   UNL     1      33.504 -15.122 -25.491  0.00  0.00    +0.125 C 
ATOM      5  C   UNL     1      34.315 -16.633 -23.801  0.00  0.00    +0.017 C 
ATOM      6  C   UNL     1      34.200 -15.300 -23.239  0.00  0.00    +0.031 C 
ATOM      7  C   UNL     1      34.571 -17.735 -23.094  0.00  0.00    +0.020 C 
ATOM      8  C   UNL     1      34.416 -15.062 -21.939  0.00  0.00    +0.111 C 
ATOM      9  C   UNL     1      33.500 -13.030 -24.102  0.00  0.00    +0.112 C 
ATOM     10  C   UNL     1      34.798 -17.584 -21.640  0.00  0.00    +0.122 C 
ATOM     11  C   UNL     1      34.756 -16.195 -21.049  0.00  0.00    +0.195 C 
ENDROOT
BRANCH   3  12
ATOM     12  O   UNL     1      35.306 -16.667 -25.984  0.00  0.00    -0.378 OA
ATOM     13  H   UNL     1      35.625 -17.580 -25.909  0.00  0.00    +0.211 HD
ENDBRANCH   3  12
BRANCH  10  14
ATOM     14  N   UNL     1      35.036 -18.565 -20.835  0.00  0.00    -0.144 NA
BRANCH  14  16
ATOM     15  O   UNL     1      35.268 -21.026 -19.625  0.00  0.00    -0.251 OA
ATOM     16  N   UNL     1      33.988 -19.405 -20.685  0.00  0.00    -0.200 N 
ATOM     17  N   UNL     1      33.026 -21.368 -19.986  0.00  0.00    -0.312 N 
ATOM     18  C   UNL     1      34.191 -20.626 -20.064  0.00  0.00    +0.315 C 
ATOM     19  H   UNL     1      33.094 -19.153 -21.012  0.00  0.00    +0.176 HD
ATOM     20  H   UNL     1      33.037 -22.258 -19.565  0.00  0.00    +0.147 HD
ATOM     21  H   UNL     1      32.186 -21.007 -20.352  0.00  0.00    +0.147 HD
ENDBRANCH  14  16
ENDBRANCH  10  14
TORSDOF 3
ENDMDL
MODEL 3
REMARK VINA RESULT:      -8.1      4.146      9.005
REMARK  Name = 5360410
REMARK  3 active torsions:
REMARK  status: ('A' for Active; 'I' for Inactive)
REMARK    1  A    between atoms: N_3  and  C_11
REMARK    2  A    between atoms: N_3  and  N_14
REMARK    3  A    between atoms: C_4  and  O_20
REMARK                            x       y       z     vdW  Elec       q    Type
REMARK                         _______ _______ _______ _____ _____    ______ ____
ROOT
ATOM      1  O   UNL     1      35.542 -18.927 -23.576  0.00  0.00    -0.289 OA
ATOM      2  N   UNL     1      33.400 -14.807 -24.849  0.00  0.00    -0.306 N 
ATOM      3  C   UNL     1      33.258 -13.988 -22.640  0.00  0.00    +0.153 C 
ATOM      4  C   UNL     1      33.143 -13.568 -24.116  0.00  0.00    +0.125 C 
ATOM      5  C   UNL     1      33.960 -15.319 -22.679  0.00  0.00    +0.017 C 
ATOM      6  C   UNL     1      33.969 -15.783 -24.054  0.00  0.00    +0.031 C 
ATOM      7  C   UNL     1      34.507 -15.974 -21.653  0.00  0.00    +0.020 C 
ATOM      8  C   UNL     1      34.485 -16.971 -24.393  0.00  0.00    +0.111 C 
ATOM      9  C   UNL     1      33.316 -14.808 -26.293  0.00  0.00    +0.112 C 
ATOM     10  C   UNL     1      35.128 -17.288 -21.928  0.00  0.00    +0.122 C 
ATOM     11  C   UNL     1      35.082 -17.821 -23.339  0.00  0.00    +0.195 C 
ENDROOT
BRANCH   3  12
ATOM     12  O   UNL     1      31.958 -14.143 -22.081  0.00  0.00    -0.378 OA
ATOM     13  H   UNL     1      31.959 -13.821 -21.165  0.00  0.00    +0.211 HD
ENDBRANCH   3  12
BRANCH  10  14
ATOM     14  N   UNL     1      35.709 -18.018 -21.035  0.00  0.00    -0.144 NA
BRANCH  14  16
ATOM     15  O   UNL     1      36.847 -20.397 -20.246  0.00  0.00    -0.251 OA
ATOM     16  N   UNL     1      34.974 -19.085 -20.649  0.00  0.00    -0.200 N 
ATOM     17  N   UNL     1      34.740 -21.242 -19.902  0.00  0.00    -0.312 N 
ATOM     18  C   UNL     1      35.626 -20.245 -20.267  0.00  0.00    +0.315 C 
ATOM     19  H   UNL     1      33.991 -19.038 -20.640  0.00  0.00    +0.176 HD
ATOM     20  H   UNL     1      35.079 -22.119 -19.609  0.00  0.00    +0.147 HD
ATOM     21  H   UNL     1      33.770 -21.075 -19.935  0.00  0.00    +0.147 HD
ENDBRANCH  14  16
ENDBRANCH  10  14
TORSDOF 3
ENDMDL
MODEL 4
REMARK VINA RESULT:      -8.0      1.964      6.556
REMARK  Name = 5360410
REMARK  3 active torsions:
REMARK  status: ('A' for Active; 'I' for Inactive)
REMARK    1  A    between atoms: N_3  and  C_11
REMARK    2  A    between atoms: N_3  and  N_14
REMARK    3  A    between atoms: C_4  and  O_20
REMARK                            x       y       z     vdW  Elec       q    Type
REMARK                         _______ _______ _______ _____ _____    ______ ____
ROOT
ATOM      1  O   UNL     1      37.799 -22.722 -14.991  0.00  0.00    -0.289 OA
ATOM      2  N   UNL     1      35.759 -21.384 -19.142  0.00  0.00    -0.306 N 
ATOM      3  C   UNL     1      33.755 -22.569 -18.749  0.00  0.00    +0.153 C 
ATOM      4  C   UNL     1      34.386 -21.482 -19.636  0.00  0.00    +0.125 C 
ATOM      5  C   UNL     1      34.698 -22.698 -17.582  0.00  0.00    +0.017 C 
ATOM      6  C   UNL     1      35.920 -21.989 -17.910  0.00  0.00    +0.031 C 
ATOM      7  C   UNL     1      34.473 -23.328 -16.427  0.00  0.00    +0.020 C 
ATOM      8  C   UNL     1      36.970 -21.971 -17.079  0.00  0.00    +0.111 C 
ATOM      9  C   UNL     1      36.685 -20.484 -19.792  0.00  0.00    +0.112 C 
ATOM     10  C   UNL     1      35.562 -23.343 -15.427  0.00  0.00    +0.122 C 
ATOM     11  C   UNL     1      36.869 -22.674 -15.781  0.00  0.00    +0.195 C 
ENDROOT
BRANCH   3  12
ATOM     12  O   UNL     1      33.697 -23.800 -19.462  0.00  0.00    -0.378 OA
ATOM     13  H   UNL     1      33.662 -24.537 -18.832  0.00  0.00    +0.211 HD
ENDBRANCH   3  12
BRANCH  10  14
ATOM     14  N   UNL     1      35.474 -23.897 -14.264  0.00  0.00    -0.144 NA
BRANCH  14  16
ATOM     15  O   UNL     1      37.307 -24.912 -12.479  0.00  0.00    -0.251 OA
ATOM     16  N   UNL     1      35.841 -25.198 -14.257  0.00  0.00    -0.200 N 
ATOM     17  N   UNL     1      37.041 -26.977 -13.445  0.00  0.00    -0.312 N 
ATOM     18  C   UNL     1      36.771 -25.626 -13.325  0.00  0.00    +0.315 C 
ATOM     19  H   UNL     1      35.455 -25.830 -14.904  0.00  0.00    +0.176 HD
ATOM     20  H   UNL     1      37.688 -27.406 -12.839  0.00  0.00    +0.147 HD
ATOM     21  H   UNL     1      36.588 -27.511 -14.138  0.00  0.00    +0.147 HD
ENDBRANCH  14  16
ENDBRANCH  10  14
TORSDOF 3
ENDMDL
MODEL 5
REMARK VINA RESULT:      -8.0      8.611     11.616
REMARK  Name = 5360410
REMARK  3 active torsions:
REMARK  status: ('A' for Active; 'I' for Inactive)
REMARK    1  A    between atoms: N_3  and  C_11
REMARK    2  A    between atoms: N_3  and  N_14
REMARK    3  A    between atoms: C_4  and  O_20
REMARK                            x       y       z     vdW  Elec       q    Type
REMARK                         _______ _______ _______ _____ _____    ______ ____
ROOT
ATOM      1  O   UNL     1      32.162 -14.901 -22.159  0.00  0.00    -0.289 OA
ATOM      2  N   UNL     1      32.564 -10.111 -22.426  0.00  0.00    -0.306 N 
ATOM      3  C   UNL     1      33.928 -10.150 -24.353  0.00  0.00    +0.153 C 
ATOM      4  C   UNL     1      33.065  -9.225 -23.478  0.00  0.00    +0.125 C 
ATOM      5  C   UNL     1      33.515 -11.542 -23.953  0.00  0.00    +0.017 C 
ATOM      6  C   UNL     1      32.723 -11.446 -22.741  0.00  0.00    +0.031 C 
ATOM      7  C   UNL     1      33.793 -12.682 -24.589  0.00  0.00    +0.020 C 
ATOM      8  C   UNL     1      32.255 -12.534 -22.117  0.00  0.00    +0.111 C 
ATOM      9  C   UNL     1      31.748  -9.562 -21.366  0.00  0.00    +0.112 C 
ATOM     10  C   UNL     1      33.297 -13.942 -23.995  0.00  0.00    +0.122 C 
ATOM     11  C   UNL     1      32.534 -13.868 -22.694  0.00  0.00    +0.195 C 
ENDROOT
BRANCH   3  12
ATOM     12  O   UNL     1      35.305  -9.950 -24.054  0.00  0.00    -0.378 OA
ATOM     13  H   UNL     1      35.405  -9.745 -23.111  0.00  0.00    +0.211 HD
ENDBRANCH   3  12
BRANCH  10  14
ATOM     14  N   UNL     1      33.476 -15.110 -24.514  0.00  0.00    -0.144 NA
BRANCH  14  16
ATOM     15  O   UNL     1      34.592 -17.398 -25.561  0.00  0.00    -0.251 OA
ATOM     16  N   UNL     1      34.345 -15.881 -23.821  0.00  0.00    -0.200 N 
ATOM     17  N   UNL     1      35.731 -17.695 -23.589  0.00  0.00    -0.312 N 
ATOM     18  C   UNL     1      34.860 -17.016 -24.423  0.00  0.00    +0.315 C 
ATOM     19  H   UNL     1      34.606 -15.638 -22.904  0.00  0.00    +0.176 HD
ATOM     20  H   UNL     1      36.166 -18.521 -23.900  0.00  0.00    +0.147 HD
ATOM     21  H   UNL     1      35.915 -17.352 -22.685  0.00  0.00    +0.147 HD
ENDBRANCH  14  16
ENDBRANCH  10  14
TORSDOF 3
ENDMDL
MODEL 6
REMARK VINA RESULT:      -8.0      3.912      5.521
REMARK  Name = 5360410
REMARK  3 active torsions:
REMARK  status: ('A' for Active; 'I' for Inactive)
REMARK    1  A    between atoms: N_3  and  C_11
REMARK    2  A    between atoms: N_3  and  N_14
REMARK    3  A    between atoms: C_4  and  O_20
REMARK                            x       y       z     vdW  Elec       q    Type
REMARK                         _______ _______ _______ _____ _____    ______ ____
ROOT
ATOM      1  O   UNL     1      32.665 -22.318 -18.573  0.00  0.00    -0.289 OA
ATOM      2  N   UNL     1      35.310 -23.920 -14.882  0.00  0.00    -0.306 N 
ATOM      3  C   UNL     1      33.454 -24.265 -13.465  0.00  0.00    +0.153 C 
ATOM      4  C   UNL     1      34.947 -24.591 -13.634  0.00  0.00    +0.125 C 
ATOM      5  C   UNL     1      33.016 -23.785 -14.824  0.00  0.00    +0.017 C 
ATOM      6  C   UNL     1      34.204 -23.549 -15.622  0.00  0.00    +0.031 C 
ATOM      7  C   UNL     1      31.765 -23.614 -15.256  0.00  0.00    +0.020 C 
ATOM      8  C   UNL     1      34.131 -23.066 -16.868  0.00  0.00    +0.111 C 
ATOM      9  C   UNL     1      36.682 -23.961 -15.337  0.00  0.00    +0.112 C 
ATOM     10  C   UNL     1      31.575 -23.108 -16.633  0.00  0.00    +0.122 C 
ATOM     11  C   UNL     1      32.801 -22.787 -17.453  0.00  0.00    +0.195 C 
ENDROOT
BRANCH   3  12
ATOM     12  O   UNL     1      33.293 -23.222 -12.509  0.00  0.00    -0.378 OA
ATOM     13  H   UNL     1      33.618 -23.523 -11.646  0.00  0.00    +0.211 HD
ENDBRANCH   3  12
BRANCH  10  14
ATOM     14  N   UNL     1      30.423 -22.916 -17.184  0.00  0.00    -0.144 NA
BRANCH  14  16
ATOM     15  O   UNL     1      27.752 -23.420 -17.614  0.00  0.00    -0.251 OA
ATOM     16  N   UNL     1      29.461 -22.546 -16.309  0.00  0.00    -0.200 N 
ATOM     17  N   UNL     1      27.280 -22.396 -15.615  0.00  0.00    -0.312 N 
ATOM     18  C   UNL     1      28.140 -22.837 -16.603  0.00  0.00    +0.315 C 
ATOM     19  H   UNL     1      29.697 -22.075 -15.478  0.00  0.00    +0.176 HD
ATOM     20  H   UNL     1      26.310 -22.543 -15.704  0.00  0.00    +0.147 HD
ATOM     21  H   UNL     1      27.636 -21.934 -14.821  0.00  0.00    +0.147 HD
ENDBRANCH  14  16
ENDBRANCH  10  14
TORSDOF 3
ENDMDL
MODEL 7
REMARK VINA RESULT:      -7.9      3.807      6.140
REMARK  Name = 5360410
REMARK  3 active torsions:
REMARK  status: ('A' for Active; 'I' for Inactive)
REMARK    1  A    between atoms: N_3  and  C_11
REMARK    2  A    between atoms: N_3  and  N_14
REMARK    3  A    between atoms: C_4  and  O_20
REMARK                            x       y       z     vdW  Elec       q    Type
REMARK                         _______ _______ _______ _____ _____    ______ ____
ROOT
ATOM      1  O   UNL     1      34.495 -23.226 -18.073  0.00  0.00    -0.289 OA
ATOM      2  N   UNL     1      30.298 -23.100 -15.717  0.00  0.00    -0.306 N 
ATOM      3  C   UNL     1      31.196 -23.939 -13.702  0.00  0.00    +0.153 C 
ATOM      4  C   UNL     1      29.964 -23.239 -14.300  0.00  0.00    +0.125 C 
ATOM      5  C   UNL     1      32.270 -23.770 -14.744  0.00  0.00    +0.017 C 
ATOM      6  C   UNL     1      31.642 -23.300 -15.964  0.00  0.00    +0.031 C 
ATOM      7  C   UNL     1      33.579 -23.986 -14.599  0.00  0.00    +0.020 C 
ATOM      8  C   UNL     1      32.344 -23.105 -17.088  0.00  0.00    +0.111 C 
ATOM      9  C   UNL     1      29.327 -22.526 -16.622  0.00  0.00    +0.112 C 
ATOM     10  C   UNL     1      34.447 -23.774 -15.777  0.00  0.00    +0.122 C 
ATOM     11  C   UNL     1      33.802 -23.355 -17.076  0.00  0.00    +0.195 C 
ENDROOT
BRANCH   3  12
ATOM     12  O   UNL     1      30.920 -25.323 -13.513  0.00  0.00    -0.378 OA
ATOM     13  H   UNL     1      31.754 -25.812 -13.436  0.00  0.00    +0.211 HD
ENDBRANCH   3  12
BRANCH  10  14
ATOM     14  N   UNL     1      35.729 -23.927 -15.771  0.00  0.00    -0.144 NA
BRANCH  14  16
ATOM     15  O   UNL     1      36.247 -26.620 -15.998  0.00  0.00    -0.251 OA
ATOM     16  N   UNL     1      36.180 -24.672 -14.738  0.00  0.00    -0.200 N 
ATOM     17  N   UNL     1      36.870 -26.643 -13.789  0.00  0.00    -0.312 N 
ATOM     18  C   UNL     1      36.414 -26.021 -14.937  0.00  0.00    +0.315 C 
ATOM     19  H   UNL     1      36.337 -24.261 -13.857  0.00  0.00    +0.176 HD
ATOM     20  H   UNL     1      37.075 -27.606 -13.798  0.00  0.00    +0.147 HD
ATOM     21  H   UNL     1      36.990 -26.124 -12.961  0.00  0.00    +0.147 HD
ENDBRANCH  14  16
ENDBRANCH  10  14
TORSDOF 3
ENDMDL
MODEL 8
REMARK VINA RESULT:      -7.8      3.956      6.085
REMARK  Name = 5360410
REMARK  3 active torsions:
REMARK  status: ('A' for Active; 'I' for Inactive)
REMARK    1  A    between atoms: N_3  and  C_11
REMARK    2  A    between atoms: N_3  and  N_14
REMARK    3  A    between atoms: C_4  and  O_20
REMARK                            x       y       z     vdW  Elec       q    Type
REMARK                         _______ _______ _______ _____ _____    ______ ____
ROOT
ATOM      1  O   UNL     1      31.480 -24.379 -13.291  0.00  0.00    -0.289 OA
ATOM      2  N   UNL     1      35.072 -23.014 -16.191  0.00  0.00    -0.306 N 
ATOM      3  C   UNL     1      33.693 -22.786 -18.093  0.00  0.00    +0.153 C 
ATOM      4  C   UNL     1      35.083 -22.435 -17.534  0.00  0.00    +0.125 C 
ATOM      5  C   UNL     1      32.886 -23.174 -16.883  0.00  0.00    +0.017 C 
ATOM      6  C   UNL     1      33.799 -23.342 -15.768  0.00  0.00    +0.031 C 
ATOM      7  C   UNL     1      31.562 -23.325 -16.808  0.00  0.00    +0.020 C 
ATOM      8  C   UNL     1      33.374 -23.739 -14.562  0.00  0.00    +0.111 C 
ATOM      9  C   UNL     1      36.262 -22.929 -15.373  0.00  0.00    +0.112 C 
ATOM     10  C   UNL     1      30.988 -23.736 -15.509  0.00  0.00    +0.122 C 
ATOM     11  C   UNL     1      31.930 -23.988 -14.357  0.00  0.00    +0.195 C 
ENDROOT
BRANCH   3  12
ATOM     12  O   UNL     1      33.796 -23.894 -18.981  0.00  0.00    -0.378 OA
ATOM     13  H   UNL     1      34.609 -23.814 -19.505  0.00  0.00    +0.211 HD
ENDBRANCH   3  12
BRANCH  10  14
ATOM     14  N   UNL     1      29.725 -23.899 -15.292  0.00  0.00    -0.144 NA
BRANCH  14  16
ATOM     15  O   UNL     1      27.892 -24.374 -17.289  0.00  0.00    -0.251 OA
ATOM     16  N   UNL     1      28.956 -22.923 -15.822  0.00  0.00    -0.200 N 
ATOM     17  N   UNL     1      27.347 -22.144 -17.261  0.00  0.00    -0.312 N 
ATOM     18  C   UNL     1      28.058 -23.247 -16.825  0.00  0.00    +0.315 C 
ATOM     19  H   UNL     1      29.033 -21.996 -15.501  0.00  0.00    +0.176 HD
ATOM     20  H   UNL     1      26.675 -22.241 -17.974  0.00  0.00    +0.147 HD
ATOM     21  H   UNL     1      27.514 -21.260 -16.860  0.00  0.00    +0.147 HD
ENDBRANCH  14  16
ENDBRANCH  10  14
TORSDOF 3
ENDMDL
MODEL 9
REMARK VINA RESULT:      -7.8      6.505      9.262
REMARK  Name = 5360410
REMARK  3 active torsions:
REMARK  status: ('A' for Active; 'I' for Inactive)
REMARK    1  A    between atoms: N_3  and  C_11
REMARK    2  A    between atoms: N_3  and  N_14
REMARK    3  A    between atoms: C_4  and  O_20
REMARK                            x       y       z     vdW  Elec       q    Type
REMARK                         _______ _______ _______ _____ _____    ______ ____
ROOT
ATOM      1  O   UNL     1      33.874 -15.273 -26.525  0.00  0.00    -0.289 OA
ATOM      2  N   UNL     1      34.626 -18.067 -22.677  0.00  0.00    -0.306 N 
ATOM      3  C   UNL     1      33.989 -16.409 -21.122  0.00  0.00    +0.153 C 
ATOM      4  C   UNL     1      34.261 -17.916 -21.269  0.00  0.00    +0.125 C 
ATOM      5  C   UNL     1      33.834 -15.914 -22.536  0.00  0.00    +0.017 C 
ATOM      6  C   UNL     1      34.286 -16.961 -23.432  0.00  0.00    +0.031 C 
ATOM      7  C   UNL     1      33.350 -14.734 -22.930  0.00  0.00    +0.020 C 
ATOM      8  C   UNL     1      34.313 -16.790 -24.759  0.00  0.00    +0.111 C 
ATOM      9  C   UNL     1      35.013 -19.369 -23.174  0.00  0.00    +0.112 C 
ATOM     10  C   UNL     1      33.312 -14.456 -24.382  0.00  0.00    +0.122 C 
ATOM     11  C   UNL     1      33.847 -15.505 -25.327  0.00  0.00    +0.195 C 
ENDROOT
BRANCH   3  12
ATOM     12  O   UNL     1      35.107 -15.775 -20.508  0.00  0.00    -0.378 OA
ATOM     13  H   UNL     1      34.879 -14.857 -20.292  0.00  0.00    +0.211 HD
ENDBRANCH   3  12
BRANCH  10  14
ATOM     14  N   UNL     1      32.853 -13.367 -24.902  0.00  0.00    -0.144 NA
BRANCH  14  16
ATOM     15  O   UNL     1      33.093 -11.086 -23.380  0.00  0.00    -0.251 OA
ATOM     16  N   UNL     1      33.805 -12.435 -25.130  0.00  0.00    -0.200 N 
ATOM     17  N   UNL     1      34.880 -10.459 -24.677  0.00  0.00    -0.312 N 
ATOM     18  C   UNL     1      33.855 -11.315 -24.317  0.00  0.00    +0.315 C 
ATOM     19  H   UNL     1      34.451 -12.550 -25.864  0.00  0.00    +0.176 HD
ATOM     20  H   UNL     1      35.024  -9.624 -24.175  0.00  0.00    +0.147 HD
ATOM     21  H   UNL     1      35.467 -10.684 -25.435  0.00  0.00    +0.147 HD
ENDBRANCH  14  16
ENDBRANCH  10  14
TORSDOF 3
ENDMDL
