MODEL 1
REMARK VINA RESULT:      -8.9      0.000      0.000
REMARK  Name = 86287635
REMARK  6 active torsions:
REMARK  status: ('A' for Active; 'I' for Inactive)
REMARK    1  A    between atoms: N_1  and  C_31
REMARK    2  A    between atoms: C_4  and  C_19
REMARK    3  A    between atoms: C_24  and  C_25
REMARK    4  A    between atoms: C_26  and  C_28
REMARK    5  A    between atoms: C_28  and  O_29
REMARK    6  A    between atoms: C_31  and  C_33
REMARK                            x       y       z     vdW  Elec       q    Type
REMARK                         _______ _______ _______ _____ _____    ______ ____
ROOT
ATOM      1  N   UNL     1      34.196 -23.570 -15.381  0.00  0.00    +0.398 N 
ATOM      2  N   UNL     1      37.967 -23.466 -15.638  0.00  0.00    -0.358 N 
ATOM      3  C   UNL     1      34.224 -24.481 -14.204  0.00  0.00    -0.052 C 
ATOM      4  C   UNL     1      35.482 -22.849 -15.646  0.00  0.00    +0.009 C 
ATOM      5  C   UNL     1      35.293 -25.593 -14.396  0.00  0.00    +0.007 C 
ATOM      6  C   UNL     1      36.654 -23.759 -15.389  0.00  0.00    +0.014 A 
ATOM      7  C   UNL     1      36.594 -25.009 -14.812  0.00  0.00    -0.013 A 
ATOM      8  C   UNL     1      37.918 -25.516 -14.736  0.00  0.00    +0.013 A 
ATOM      9  C   UNL     1      34.407 -23.773 -12.851  0.00  0.00    -0.023 C 
ATOM     10  C   UNL     1      38.760 -24.530 -15.262  0.00  0.00    +0.056 A 
ATOM     11  C   UNL     1      38.491 -26.716 -14.269  0.00  0.00    +0.001 C 
ATOM     12  C   UNL     1      40.148 -24.689 -15.344  0.00  0.00    +0.017 C 
ATOM     13  C   UNL     1      39.877 -26.888 -14.347  0.00  0.00    +0.000 C 
ATOM     14  C   UNL     1      40.691 -25.889 -14.876  0.00  0.00    +0.001 C 
ATOM     15  H   UNL     1      34.074 -24.185 -16.185  0.00  0.00    -0.078 HD
ATOM     16  H   UNL     1      38.297 -22.624 -16.025  0.00  0.00    +0.166 HD
ENDROOT
BRANCH   4  19
ATOM     17  F   UNL     1      37.367 -20.895 -16.479  0.00  0.00    -0.204 F 
ATOM     18  F   UNL     1      33.704 -23.653 -17.711  0.00  0.00    -0.204 F 
ATOM     19  C   UNL     1      35.533 -22.286 -17.061  0.00  0.00    +0.019 C 
ATOM     20  C   UNL     1      36.490 -21.328 -17.396  0.00  0.00    +0.137 C 
ATOM     21  C   UNL     1      34.626 -22.730 -18.023  0.00  0.00    +0.137 C 
ATOM     22  C   UNL     1      36.538 -20.813 -18.692  0.00  0.00    +0.029 C 
ATOM     23  C   UNL     1      34.674 -22.216 -19.318  0.00  0.00    +0.029 C 
ATOM     24  C   UNL     1      35.630 -21.257 -19.653  0.00  0.00    +0.005 C 
BRANCH  24  25
ATOM     25  C   UNL     1      35.681 -20.720 -21.004  0.00  0.00    +0.007 C 
ATOM     26  C   UNL     1      35.298 -19.475 -21.364  0.00  0.00    +0.082 C 
BRANCH  26  28
ATOM     27  O   UNL     1      34.680 -19.426 -23.693  0.00  0.00    -0.245 OA
ATOM     28  C   UNL     1      35.391 -19.051 -22.775  0.00  0.00    +0.338 C 
BRANCH  28  29
ATOM     29  O   UNL     1      36.407 -18.166 -22.897  0.00  0.00    -0.477 OA
ATOM     30  H   UNL     1      36.845 -18.065 -23.718  0.00  0.00    +0.295 HD
ENDBRANCH  28  29
ENDBRANCH  26  28
ENDBRANCH  24  25
ENDBRANCH   4  19
BRANCH   1  31
ATOM     31  C   UNL     1      33.055 -22.652 -15.334  0.00  0.00    -0.043 C 
BRANCH  31  33
ATOM     32  F   UNL     1      31.938 -24.686 -15.582  0.00  0.00    -0.242 F 
ATOM     33  C   UNL     1      31.692 -23.357 -15.349  0.00  0.00    +0.115 C 
ATOM     34  C   UNL     1      30.795 -22.866 -16.483  0.00  0.00    +0.033 C 
ATOM     35  C   UNL     1      30.967 -23.271 -14.008  0.00  0.00    +0.033 C 
ENDBRANCH  31  33
ENDBRANCH   1  31
TORSDOF 6
ENDMDL
MODEL 2
REMARK VINA RESULT:      -8.1     13.890     17.361
REMARK  Name = 86287635
REMARK  6 active torsions:
REMARK  status: ('A' for Active; 'I' for Inactive)
REMARK    1  A    between atoms: N_1  and  C_31
REMARK    2  A    between atoms: C_4  and  C_19
REMARK    3  A    between atoms: C_24  and  C_25
REMARK    4  A    between atoms: C_26  and  C_28
REMARK    5  A    between atoms: C_28  and  O_29
REMARK    6  A    between atoms: C_31  and  C_33
REMARK                            x       y       z     vdW  Elec       q    Type
REMARK                         _______ _______ _______ _____ _____    ______ ____
ROOT
ATOM      1  N   UNL     1      31.860  -7.786 -21.905  0.00  0.00    +0.398 N 
ATOM      2  N   UNL     1      33.968 -10.197 -23.914  0.00  0.00    -0.358 N 
ATOM      3  C   UNL     1      31.461  -8.832 -20.924  0.00  0.00    -0.052 C 
ATOM      4  C   UNL     1      33.074  -8.119 -22.716  0.00  0.00    +0.009 C 
ATOM      5  C   UNL     1      31.125 -10.166 -21.649  0.00  0.00    +0.007 C 
ATOM      6  C   UNL     1      33.073  -9.577 -23.086  0.00  0.00    +0.014 A 
ATOM      7  C   UNL     1      32.201 -10.531 -22.606  0.00  0.00    -0.013 A 
ATOM      8  C   UNL     1      32.555 -11.776 -23.190  0.00  0.00    +0.013 A 
ATOM      9  C   UNL     1      32.473  -9.065 -19.789  0.00  0.00    -0.023 C 
ATOM     10  C   UNL     1      33.665 -11.539 -24.008  0.00  0.00    +0.056 A 
ATOM     11  C   UNL     1      32.045 -13.088 -23.104  0.00  0.00    +0.001 C 
ATOM     12  C   UNL     1      34.288 -12.552 -24.745  0.00  0.00    +0.017 C 
ATOM     13  C   UNL     1      32.659 -14.109 -23.838  0.00  0.00    +0.000 C 
ATOM     14  C   UNL     1      33.763 -13.843 -24.645  0.00  0.00    +0.001 C 
ATOM     15  H   UNL     1      31.097  -7.758 -22.581  0.00  0.00    -0.078 HD
ATOM     16  H   UNL     1      34.716  -9.752 -24.374  0.00  0.00    +0.166 HD
ENDROOT
BRANCH   4  19
ATOM     17  F   UNL     1      30.844  -7.437 -24.337  0.00  0.00    -0.204 F 
ATOM     18  F   UNL     1      35.520  -7.008 -23.639  0.00  0.00    -0.204 F 
ATOM     19  C   UNL     1      33.180  -7.244 -23.960  0.00  0.00    +0.019 C 
ATOM     20  C   UNL     1      32.038  -6.952 -24.705  0.00  0.00    +0.137 C 
ATOM     21  C   UNL     1      34.417  -6.734 -24.352  0.00  0.00    +0.137 C 
ATOM     22  C   UNL     1      32.134  -6.150 -25.844  0.00  0.00    +0.029 C 
ATOM     23  C   UNL     1      34.514  -5.933 -25.489  0.00  0.00    +0.029 C 
ATOM     24  C   UNL     1      33.372  -5.641 -26.235  0.00  0.00    +0.005 C 
BRANCH  24  25
ATOM     25  C   UNL     1      33.471  -4.805 -27.421  0.00  0.00    +0.007 C 
ATOM     26  C   UNL     1      32.485  -4.020 -27.908  0.00  0.00    +0.082 C 
BRANCH  26  28
ATOM     27  O   UNL     1      33.768  -2.749 -29.504  0.00  0.00    -0.245 OA
ATOM     28  C   UNL     1      32.708  -3.224 -29.132  0.00  0.00    +0.338 C 
BRANCH  28  29
ATOM     29  O   UNL     1      31.532  -3.099 -29.789  0.00  0.00    -0.477 OA
ATOM     30  H   UNL     1      30.739  -3.396 -29.390  0.00  0.00    +0.295 HD
ENDBRANCH  28  29
ENDBRANCH  26  28
ENDBRANCH  24  25
ENDBRANCH   4  19
BRANCH   1  31
ATOM     31  C   UNL     1      31.964  -6.464 -21.282  0.00  0.00    -0.043 C 
BRANCH  31  33
ATOM     32  F   UNL     1      30.006  -6.189 -22.522  0.00  0.00    -0.242 F 
ATOM     33  C   UNL     1      30.867  -5.484 -21.722  0.00  0.00    +0.115 C 
ATOM     34  C   UNL     1      31.417  -4.335 -22.564  0.00  0.00    +0.033 C 
ATOM     35  C   UNL     1      30.045  -4.951 -20.550  0.00  0.00    +0.033 C 
ENDBRANCH  31  33
ENDBRANCH   1  31
TORSDOF 6
ENDMDL
MODEL 3
REMARK VINA RESULT:      -7.6     12.407     15.387
REMARK  Name = 86287635
REMARK  6 active torsions:
REMARK  status: ('A' for Active; 'I' for Inactive)
REMARK    1  A    between atoms: N_1  and  C_31
REMARK    2  A    between atoms: C_4  and  C_19
REMARK    3  A    between atoms: C_24  and  C_25
REMARK    4  A    between atoms: C_26  and  C_28
REMARK    5  A    between atoms: C_28  and  O_29
REMARK    6  A    between atoms: C_31  and  C_33
REMARK                            x       y       z     vdW  Elec       q    Type
REMARK                         _______ _______ _______ _____ _____    ______ ____
ROOT
ATOM      1  N   UNL     1      32.418 -11.506 -21.416  0.00  0.00    +0.398 N 
ATOM      2  N   UNL     1      33.740 -11.460 -24.958  0.00  0.00    -0.358 N 
ATOM      3  C   UNL     1      32.589 -12.979 -21.289  0.00  0.00    -0.052 C 
ATOM      4  C   UNL     1      33.207 -10.877 -22.522  0.00  0.00    +0.009 C 
ATOM      5  C   UNL     1      32.131 -13.699 -22.589  0.00  0.00    +0.007 C 
ATOM      6  C   UNL     1      33.213 -11.770 -23.734  0.00  0.00    +0.014 A 
ATOM      7  C   UNL     1      32.737 -13.062 -23.786  0.00  0.00    -0.013 A 
ATOM      8  C   UNL     1      32.949 -13.550 -25.103  0.00  0.00    +0.013 A 
ATOM      9  C   UNL     1      34.004 -13.428 -20.884  0.00  0.00    -0.023 C 
ATOM     10  C   UNL     1      33.578 -12.525 -25.818  0.00  0.00    +0.056 A 
ATOM     11  C   UNL     1      32.673 -14.765 -25.762  0.00  0.00    +0.001 C 
ATOM     12  C   UNL     1      33.942 -12.658 -27.162  0.00  0.00    +0.017 C 
ATOM     13  C   UNL     1      33.031 -14.909 -27.107  0.00  0.00    +0.000 C 
ATOM     14  C   UNL     1      33.656 -13.871 -27.795  0.00  0.00    +0.001 C 
ATOM     15  H   UNL     1      31.444 -11.379 -21.688  0.00  0.00    -0.078 HD
ATOM     16  H   UNL     1      34.170 -10.606 -25.189  0.00  0.00    +0.166 HD
ENDROOT
BRANCH   4  19
ATOM     17  F   UNL     1      34.896  -8.643 -22.998  0.00  0.00    -0.204 F 
ATOM     18  F   UNL     1      30.442 -10.272 -22.769  0.00  0.00    -0.204 F 
ATOM     19  C   UNL     1      32.681  -9.490 -22.874  0.00  0.00    +0.019 C 
ATOM     20  C   UNL     1      33.574  -8.442 -23.094  0.00  0.00    +0.137 C 
ATOM     21  C   UNL     1      31.308  -9.269 -22.977  0.00  0.00    +0.137 C 
ATOM     22  C   UNL     1      33.094  -7.172 -23.417  0.00  0.00    +0.029 C 
ATOM     23  C   UNL     1      30.827  -8.001 -23.299  0.00  0.00    +0.029 C 
ATOM     24  C   UNL     1      31.720  -6.952 -23.520  0.00  0.00    +0.005 C 
BRANCH  24  25
ATOM     25  C   UNL     1      31.220  -5.628 -23.857  0.00  0.00    +0.007 C 
ATOM     26  C   UNL     1      31.536  -4.486 -23.208  0.00  0.00    +0.082 C 
BRANCH  26  28
ATOM     27  O   UNL     1      30.426  -2.973 -24.720  0.00  0.00    -0.245 OA
ATOM     28  C   UNL     1      30.952  -3.202 -23.644  0.00  0.00    +0.338 C 
BRANCH  28  29
ATOM     29  O   UNL     1      31.093  -2.300 -22.645  0.00  0.00    -0.477 OA
ATOM     30  H   UNL     1      30.452  -1.628 -22.526  0.00  0.00    +0.295 HD
ENDBRANCH  28  29
ENDBRANCH  26  28
ENDBRANCH  24  25
ENDBRANCH   4  19
BRANCH   1  31
ATOM     31  C   UNL     1      32.626 -10.821 -20.137  0.00  0.00    -0.043 C 
BRANCH  31  33
ATOM     32  F   UNL     1      30.294 -10.868 -20.214  0.00  0.00    -0.242 F 
ATOM     33  C   UNL     1      31.325 -10.396 -19.443  0.00  0.00    +0.115 C 
ATOM     34  C   UNL     1      31.170  -8.878 -19.375  0.00  0.00    +0.033 C 
ATOM     35  C   UNL     1      31.162 -11.020 -18.059  0.00  0.00    +0.033 C 
ENDBRANCH  31  33
ENDBRANCH   1  31
TORSDOF 6
ENDMDL
MODEL 4
REMARK VINA RESULT:      -7.5      1.544      5.561
REMARK  Name = 86287635
REMARK  6 active torsions:
REMARK  status: ('A' for Active; 'I' for Inactive)
REMARK    1  A    between atoms: N_1  and  C_31
REMARK    2  A    between atoms: C_4  and  C_19
REMARK    3  A    between atoms: C_24  and  C_25
REMARK    4  A    between atoms: C_26  and  C_28
REMARK    5  A    between atoms: C_28  and  O_29
REMARK    6  A    between atoms: C_31  and  C_33
REMARK                            x       y       z     vdW  Elec       q    Type
REMARK                         _______ _______ _______ _____ _____    ______ ____
ROOT
ATOM      1  N   UNL     1      35.456 -23.738 -15.341  0.00  0.00    +0.398 N 
ATOM      2  N   UNL     1      32.145 -23.182 -17.079  0.00  0.00    -0.358 N 
ATOM      3  C   UNL     1      34.813 -24.324 -14.133  0.00  0.00    -0.052 C 
ATOM      4  C   UNL     1      34.594 -23.723 -16.565  0.00  0.00    +0.009 C 
ATOM      5  C   UNL     1      33.544 -23.515 -13.740  0.00  0.00    +0.007 C 
ATOM      6  C   UNL     1      33.172 -23.391 -16.200  0.00  0.00    +0.014 A 
ATOM      7  C   UNL     1      32.668 -23.300 -14.920  0.00  0.00    -0.013 A 
ATOM      8  C   UNL     1      31.286 -22.989 -15.019  0.00  0.00    +0.013 A 
ATOM      9  C   UNL     1      34.493 -25.825 -14.243  0.00  0.00    -0.023 C 
ATOM     10  C   UNL     1      30.983 -22.918 -16.384  0.00  0.00    +0.056 A 
ATOM     11  C   UNL     1      30.255 -22.762 -14.085  0.00  0.00    +0.001 C 
ATOM     12  C   UNL     1      29.699 -22.630 -16.857  0.00  0.00    +0.017 C 
ATOM     13  C   UNL     1      28.967 -22.472 -14.546  0.00  0.00    +0.000 C 
ATOM     14  C   UNL     1      28.694 -22.407 -15.910  0.00  0.00    +0.001 C 
ATOM     15  H   UNL     1      35.597 -22.755 -15.110  0.00  0.00    -0.078 HD
ATOM     16  H   UNL     1      32.223 -23.215 -18.059  0.00  0.00    +0.166 HD
ENDROOT
BRANCH   4  19
ATOM     17  F   UNL     1      33.767 -23.766 -19.282  0.00  0.00    -0.204 F 
ATOM     18  F   UNL     1      36.502 -21.695 -16.000  0.00  0.00    -0.204 F 
ATOM     19  C   UNL     1      35.123 -22.754 -17.616  0.00  0.00    +0.019 C 
ATOM     20  C   UNL     1      34.668 -22.836 -18.932  0.00  0.00    +0.137 C 
ATOM     21  C   UNL     1      36.061 -21.783 -17.263  0.00  0.00    +0.137 C 
ATOM     22  C   UNL     1      35.151 -21.949 -19.895  0.00  0.00    +0.029 C 
ATOM     23  C   UNL     1      36.544 -20.896 -18.225  0.00  0.00    +0.029 C 
ATOM     24  C   UNL     1      36.089 -20.979 -19.541  0.00  0.00    +0.005 C 
BRANCH  24  25
ATOM     25  C   UNL     1      36.591 -20.055 -20.545  0.00  0.00    +0.007 C 
ATOM     26  C   UNL     1      35.858 -19.109 -21.172  0.00  0.00    +0.082 C 
BRANCH  26  28
ATOM     27  O   UNL     1      35.921 -17.403 -22.874  0.00  0.00    -0.245 OA
ATOM     28  C   UNL     1      36.486 -18.235 -22.184  0.00  0.00    +0.338 C 
BRANCH  28  29
ATOM     29  O   UNL     1      37.810 -18.506 -22.229  0.00  0.00    -0.477 OA
ATOM     30  H   UNL     1      38.207 -19.018 -21.553  0.00  0.00    +0.295 HD
ENDBRANCH  28  29
ENDBRANCH  26  28
ENDBRANCH  24  25
ENDBRANCH   4  19
BRANCH   1  31
ATOM     31  C   UNL     1      36.768 -24.335 -15.603  0.00  0.00    -0.043 C 
BRANCH  31  33
ATOM     32  F   UNL     1      38.903 -23.608 -15.004  0.00  0.00    -0.242 F 
ATOM     33  C   UNL     1      37.772 -24.155 -14.455  0.00  0.00    +0.115 C 
ATOM     34  C   UNL     1      38.181 -25.484 -13.826  0.00  0.00    +0.033 C 
ATOM     35  C   UNL     1      37.281 -23.178 -13.389  0.00  0.00    +0.033 C 
ENDBRANCH  31  33
ENDBRANCH   1  31
TORSDOF 6
ENDMDL
MODEL 5
REMARK VINA RESULT:      -6.4      6.469     11.777
REMARK  Name = 86287635
REMARK  6 active torsions:
REMARK  status: ('A' for Active; 'I' for Inactive)
REMARK    1  A    between atoms: N_1  and  C_31
REMARK    2  A    between atoms: C_4  and  C_19
REMARK    3  A    between atoms: C_24  and  C_25
REMARK    4  A    between atoms: C_26  and  C_28
REMARK    5  A    between atoms: C_28  and  O_29
REMARK    6  A    between atoms: C_31  and  C_33
REMARK                            x       y       z     vdW  Elec       q    Type
REMARK                         _______ _______ _______ _____ _____    ______ ____
ROOT
ATOM      1  N   UNL     1      33.689 -15.283 -24.067  0.00  0.00    +0.398 N 
ATOM      2  N   UNL     1      33.274 -13.863 -20.588  0.00  0.00    -0.358 N 
ATOM      3  C   UNL     1      33.345 -13.991 -24.720  0.00  0.00    -0.052 C 
ATOM      4  C   UNL     1      34.095 -15.171 -22.630  0.00  0.00    +0.009 C 
ATOM      5  C   UNL     1      32.144 -13.314 -24.000  0.00  0.00    +0.007 C 
ATOM      6  C   UNL     1      33.252 -14.141 -21.927  0.00  0.00    +0.014 A 
ATOM      7  C   UNL     1      32.363 -13.278 -22.531  0.00  0.00    -0.013 A 
ATOM      8  C   UNL     1      31.794 -12.463 -21.517  0.00  0.00    +0.013 A 
ATOM      9  C   UNL     1      34.523 -13.011 -24.860  0.00  0.00    -0.023 C 
ATOM     10  C   UNL     1      32.380 -12.851 -20.307  0.00  0.00    +0.056 A 
ATOM     11  C   UNL     1      30.837 -11.427 -21.503  0.00  0.00    +0.001 C 
ATOM     12  C   UNL     1      32.054 -12.253 -19.085  0.00  0.00    +0.017 C 
ATOM     13  C   UNL     1      30.502 -10.822 -20.287  0.00  0.00    +0.000 C 
ATOM     14  C   UNL     1      31.102 -11.230 -19.098  0.00  0.00    +0.001 C 
ATOM     15  H   UNL     1      32.815 -15.807 -24.049  0.00  0.00    -0.078 HD
ATOM     16  H   UNL     1      33.842 -14.316 -19.925  0.00  0.00    +0.166 HD
ENDROOT
BRANCH   4  19
ATOM     17  F   UNL     1      31.739 -16.132 -21.368  0.00  0.00    -0.204 F 
ATOM     18  F   UNL     1      36.292 -16.962 -22.430  0.00  0.00    -0.204 F 
ATOM     19  C   UNL     1      34.018 -16.515 -21.915  0.00  0.00    +0.019 C 
ATOM     20  C   UNL     1      32.823 -16.919 -21.318  0.00  0.00    +0.137 C 
ATOM     21  C   UNL     1      35.139 -17.341 -21.857  0.00  0.00    +0.137 C 
ATOM     22  C   UNL     1      32.751 -18.149 -20.664  0.00  0.00    +0.029 C 
ATOM     23  C   UNL     1      35.068 -18.571 -21.203  0.00  0.00    +0.029 C 
ATOM     24  C   UNL     1      33.874 -18.975 -20.607  0.00  0.00    +0.005 C 
BRANCH  24  25
ATOM     25  C   UNL     1      33.798 -20.257 -19.924  0.00  0.00    +0.007 C 
ATOM     26  C   UNL     1      34.807 -21.151 -19.827  0.00  0.00    +0.082 C 
BRANCH  26  28
ATOM     27  O   UNL     1      33.874 -23.343 -19.462  0.00  0.00    -0.245 OA
ATOM     28  C   UNL     1      34.599 -22.427 -19.113  0.00  0.00    +0.338 C 
BRANCH  28  29
ATOM     29  O   UNL     1      35.352 -22.422 -17.988  0.00  0.00    -0.477 OA
ATOM     30  H   UNL     1      36.226 -22.757 -18.008  0.00  0.00    +0.295 HD
ENDBRANCH  28  29
ENDBRANCH  26  28
ENDBRANCH  24  25
ENDBRANCH   4  19
BRANCH   1  31
ATOM     31  C   UNL     1      34.662 -16.049 -24.852  0.00  0.00    -0.043 C 
BRANCH  31  33
ATOM     32  F   UNL     1      34.985 -17.687 -26.482  0.00  0.00    -0.242 F 
ATOM     33  C   UNL     1      34.063 -17.275 -25.555  0.00  0.00    +0.115 C 
ATOM     34  C   UNL     1      32.783 -16.941 -26.318  0.00  0.00    +0.033 C 
ATOM     35  C   UNL     1      33.837 -18.449 -24.606  0.00  0.00    +0.033 C 
ENDBRANCH  31  33
ENDBRANCH   1  31
TORSDOF 6
ENDMDL
MODEL 6
REMARK VINA RESULT:      -6.1     13.939     19.130
REMARK  Name = 86287635
REMARK  6 active torsions:
REMARK  status: ('A' for Active; 'I' for Inactive)
REMARK    1  A    between atoms: N_1  and  C_31
REMARK    2  A    between atoms: C_4  and  C_19
REMARK    3  A    between atoms: C_24  and  C_25
REMARK    4  A    between atoms: C_26  and  C_28
REMARK    5  A    between atoms: C_28  and  O_29
REMARK    6  A    between atoms: C_31  and  C_33
REMARK                            x       y       z     vdW  Elec       q    Type
REMARK                         _______ _______ _______ _____ _____    ______ ____
ROOT
ATOM      1  N   UNL     1      31.858  -5.398 -22.354  0.00  0.00    +0.398 N 
ATOM      2  N   UNL     1      31.892  -5.566 -26.131  0.00  0.00    -0.358 N 
ATOM      3  C   UNL     1      31.635  -3.926 -22.344  0.00  0.00    -0.052 C 
ATOM      4  C   UNL     1      31.526  -6.074 -23.648  0.00  0.00    +0.009 C 
ATOM      5  C   UNL     1      32.518  -3.229 -23.418  0.00  0.00    +0.007 C 
ATOM      6  C   UNL     1      31.942  -5.213 -24.810  0.00  0.00    +0.014 A 
ATOM      7  C   UNL     1      32.388  -3.911 -24.731  0.00  0.00    -0.013 A 
ATOM      8  C   UNL     1      32.655  -3.462 -26.052  0.00  0.00    +0.013 A 
ATOM      9  C   UNL     1      30.163  -3.502 -22.486  0.00  0.00    -0.023 C 
ATOM     10  C   UNL     1      32.337  -4.520 -26.911  0.00  0.00    +0.056 A 
ATOM     11  C   UNL     1      33.133  -2.258 -26.608  0.00  0.00    +0.001 C 
ATOM     12  C   UNL     1      32.476  -4.430 -28.300  0.00  0.00    +0.017 C 
ATOM     13  C   UNL     1      33.277  -2.157 -27.996  0.00  0.00    +0.000 C 
ATOM     14  C   UNL     1      32.954  -3.227 -28.828  0.00  0.00    +0.001 C 
ATOM     15  H   UNL     1      32.867  -5.509 -22.256  0.00  0.00    -0.078 HD
ATOM     16  H   UNL     1      31.584  -6.436 -26.473  0.00  0.00    +0.166 HD
ENDROOT
BRANCH   4  19
ATOM     17  F   UNL     1      30.061  -8.487 -23.337  0.00  0.00    -0.204 F 
ATOM     18  F   UNL     1      34.290  -6.490 -24.157  0.00  0.00    -0.204 F 
ATOM     19  C   UNL     1      32.161  -7.456 -23.743  0.00  0.00    +0.019 C 
ATOM     20  C   UNL     1      31.375  -8.597 -23.580  0.00  0.00    +0.137 C 
ATOM     21  C   UNL     1      33.526  -7.581 -23.996  0.00  0.00    +0.137 C 
ATOM     22  C   UNL     1      31.955  -9.863 -23.668  0.00  0.00    +0.029 C 
ATOM     23  C   UNL     1      34.107  -8.846 -24.084  0.00  0.00    +0.029 C 
ATOM     24  C   UNL     1      33.321  -9.987 -23.921  0.00  0.00    +0.005 C 
BRANCH  24  25
ATOM     25  C   UNL     1      33.925 -11.307 -24.013  0.00  0.00    +0.007 C 
ATOM     26  C   UNL     1      33.281 -12.477 -23.805  0.00  0.00    +0.082 C 
BRANCH  26  28
ATOM     27  O   UNL     1      33.901 -14.574 -24.816  0.00  0.00    -0.245 OA
ATOM     28  C   UNL     1      34.012 -13.755 -23.920  0.00  0.00    +0.338 C 
BRANCH  28  29
ATOM     29  O   UNL     1      34.839 -13.879 -22.857  0.00  0.00    -0.477 OA
ATOM     30  H   UNL     1      35.582 -13.315 -22.772  0.00  0.00    +0.295 HD
ENDBRANCH  28  29
ENDBRANCH  26  28
ENDBRANCH  24  25
ENDBRANCH   4  19
BRANCH   1  31
ATOM     31  C   UNL     1      31.216  -6.055 -21.213  0.00  0.00    -0.043 C 
BRANCH  31  33
ATOM     32  F   UNL     1      32.390  -6.029 -19.197  0.00  0.00    -0.242 F 
ATOM     33  C   UNL     1      32.193  -6.813 -20.304  0.00  0.00    +0.115 C 
ATOM     34  C   UNL     1      33.559  -7.014 -20.956  0.00  0.00    +0.033 C 
ATOM     35  C   UNL     1      31.629  -8.143 -19.808  0.00  0.00    +0.033 C 
ENDBRANCH  31  33
ENDBRANCH   1  31
TORSDOF 6
ENDMDL
MODEL 7
REMARK VINA RESULT:      -6.0     15.511     20.725
REMARK  Name = 86287635
REMARK  6 active torsions:
REMARK  status: ('A' for Active; 'I' for Inactive)
REMARK    1  A    between atoms: N_1  and  C_31
REMARK    2  A    between atoms: C_4  and  C_19
REMARK    3  A    between atoms: C_24  and  C_25
REMARK    4  A    between atoms: C_26  and  C_28
REMARK    5  A    between atoms: C_28  and  O_29
REMARK    6  A    between atoms: C_31  and  C_33
REMARK                            x       y       z     vdW  Elec       q    Type
REMARK                         _______ _______ _______ _____ _____    ______ ____
ROOT
ATOM      1  N   UNL     1      32.093  -3.422 -25.091  0.00  0.00    +0.398 N 
ATOM      2  N   UNL     1      34.053  -5.370 -27.672  0.00  0.00    -0.358 N 
ATOM      3  C   UNL     1      32.354  -2.120 -25.762  0.00  0.00    -0.052 C 
ATOM      4  C   UNL     1      32.304  -4.626 -25.956  0.00  0.00    +0.009 C 
ATOM      5  C   UNL     1      33.832  -2.036 -26.240  0.00  0.00    +0.007 C 
ATOM      6  C   UNL     1      33.506  -4.431 -26.840  0.00  0.00    +0.014 A 
ATOM      7  C   UNL     1      34.213  -3.258 -26.994  0.00  0.00    -0.013 A 
ATOM      8  C   UNL     1      35.255  -3.498 -27.928  0.00  0.00    +0.013 A 
ATOM      9  C   UNL     1      31.387  -1.786 -26.911  0.00  0.00    -0.023 C 
ATOM     10  C   UNL     1      35.134  -4.830 -28.337  0.00  0.00    +0.056 A 
ATOM     11  C   UNL     1      36.292  -2.714 -28.475  0.00  0.00    +0.001 C 
ATOM     12  C   UNL     1      36.002  -5.416 -29.265  0.00  0.00    +0.017 C 
ATOM     13  C   UNL     1      37.167  -3.288 -29.403  0.00  0.00    +0.000 C 
ATOM     14  C   UNL     1      37.023  -4.619 -29.791  0.00  0.00    +0.001 C 
ATOM     15  H   UNL     1      32.810  -3.493 -24.370  0.00  0.00    -0.078 HD
ATOM     16  H   UNL     1      33.726  -6.292 -27.779  0.00  0.00    +0.166 HD
ENDROOT
BRANCH   4  19
ATOM     17  F   UNL     1      34.803  -5.662 -25.090  0.00  0.00    -0.204 F 
ATOM     18  F   UNL     1      30.085  -6.196 -25.128  0.00  0.00    -0.204 F 
ATOM     19  C   UNL     1      32.441  -5.899 -25.129  0.00  0.00    +0.019 C 
ATOM     20  C   UNL     1      33.704  -6.345 -24.740  0.00  0.00    +0.137 C 
ATOM     21  C   UNL     1      31.304  -6.618 -24.760  0.00  0.00    +0.137 C 
ATOM     22  C   UNL     1      33.830  -7.510 -23.982  0.00  0.00    +0.029 C 
ATOM     23  C   UNL     1      31.429  -7.782 -24.003  0.00  0.00    +0.029 C 
ATOM     24  C   UNL     1      32.692  -8.228 -23.613  0.00  0.00    +0.005 C 
BRANCH  24  25
ATOM     25  C   UNL     1      32.825  -9.442 -22.823  0.00  0.00    +0.007 C 
ATOM     26  C   UNL     1      31.829 -10.319 -22.565  0.00  0.00    +0.082 C 
BRANCH  26  28
ATOM     27  O   UNL     1      31.879 -11.628 -20.543  0.00  0.00    -0.245 OA
ATOM     28  C   UNL     1      32.091 -11.514 -21.738  0.00  0.00    +0.338 C 
BRANCH  28  29
ATOM     29  O   UNL     1      32.613 -12.481 -22.527  0.00  0.00    -0.477 OA
ATOM     30  H   UNL     1      32.054 -12.983 -23.086  0.00  0.00    +0.295 HD
ENDBRANCH  28  29
ENDBRANCH  26  28
ENDBRANCH  24  25
ENDBRANCH   4  19
BRANCH   1  31
ATOM     31  C   UNL     1      30.783  -3.444 -24.434  0.00  0.00    -0.043 C 
BRANCH  31  33
ATOM     32  F   UNL     1      32.154  -2.914 -22.622  0.00  0.00    -0.242 F 
ATOM     33  C   UNL     1      30.843  -3.179 -22.923  0.00  0.00    +0.115 C 
ATOM     34  C   UNL     1      30.436  -4.399 -22.101  0.00  0.00    +0.033 C 
ATOM     35  C   UNL     1      30.038  -1.950 -22.506  0.00  0.00    +0.033 C 
ENDBRANCH  31  33
ENDBRANCH   1  31
TORSDOF 6
ENDMDL
MODEL 8
REMARK VINA RESULT:      -6.0     14.093     19.246
REMARK  Name = 86287635
REMARK  6 active torsions:
REMARK  status: ('A' for Active; 'I' for Inactive)
REMARK    1  A    between atoms: N_1  and  C_31
REMARK    2  A    between atoms: C_4  and  C_19
REMARK    3  A    between atoms: C_24  and  C_25
REMARK    4  A    between atoms: C_26  and  C_28
REMARK    5  A    between atoms: C_28  and  O_29
REMARK    6  A    between atoms: C_31  and  C_33
REMARK                            x       y       z     vdW  Elec       q    Type
REMARK                         _______ _______ _______ _____ _____    ______ ____
ROOT
ATOM      1  N   UNL     1      31.874  -5.206 -22.559  0.00  0.00    +0.398 N 
ATOM      2  N   UNL     1      32.001  -5.460 -26.329  0.00  0.00    -0.358 N 
ATOM      3  C   UNL     1      31.667  -3.732 -22.587  0.00  0.00    -0.052 C 
ATOM      4  C   UNL     1      31.567  -5.907 -23.846  0.00  0.00    +0.009 C 
ATOM      5  C   UNL     1      32.585  -3.069 -23.653  0.00  0.00    +0.007 C 
ATOM      6  C   UNL     1      32.022  -5.077 -25.016  0.00  0.00    +0.014 A 
ATOM      7  C   UNL     1      32.481  -3.779 -24.954  0.00  0.00    -0.013 A 
ATOM      8  C   UNL     1      32.786  -3.363 -26.277  0.00  0.00    +0.013 A 
ATOM      9  C   UNL     1      30.205  -3.295 -22.776  0.00  0.00    -0.023 C 
ATOM     10  C   UNL     1      32.478  -4.436 -27.121  0.00  0.00    +0.056 A 
ATOM     11  C   UNL     1      33.291  -2.177 -26.848  0.00  0.00    +0.001 C 
ATOM     12  C   UNL     1      32.652  -4.379 -28.507  0.00  0.00    +0.017 C 
ATOM     13  C   UNL     1      33.472  -2.109 -28.234  0.00  0.00    +0.000 C 
ATOM     14  C   UNL     1      33.157  -3.194 -29.049  0.00  0.00    +0.001 C 
ATOM     15  H   UNL     1      32.879  -5.325 -22.432  0.00  0.00    -0.078 HD
ATOM     16  H   UNL     1      31.692  -6.334 -26.659  0.00  0.00    +0.166 HD
ENDROOT
BRANCH   4  19
ATOM     17  F   UNL     1      34.353  -6.360 -24.155  0.00  0.00    -0.204 F 
ATOM     18  F   UNL     1      30.052  -8.301 -23.632  0.00  0.00    -0.204 F 
ATOM     19  C   UNL     1      32.188  -7.298 -23.894  0.00  0.00    +0.019 C 
ATOM     20  C   UNL     1      33.566  -7.441 -24.048  0.00  0.00    +0.137 C 
ATOM     21  C   UNL     1      31.379  -8.428 -23.783  0.00  0.00    +0.137 C 
ATOM     22  C   UNL     1      34.136  -8.714 -24.091  0.00  0.00    +0.029 C 
ATOM     23  C   UNL     1      31.947  -9.701 -23.826  0.00  0.00    +0.029 C 
ATOM     24  C   UNL     1      33.326  -9.844 -23.980  0.00  0.00    +0.005 C 
BRANCH  24  25
ATOM     25  C   UNL     1      33.921 -11.171 -24.025  0.00  0.00    +0.007 C 
ATOM     26  C   UNL     1      33.308 -12.314 -23.646  0.00  0.00    +0.082 C 
BRANCH  26  28
ATOM     27  O   UNL     1      34.721 -14.103 -22.864  0.00  0.00    -0.245 OA
ATOM     28  C   UNL     1      34.026 -13.602 -23.732  0.00  0.00    +0.338 C 
BRANCH  28  29
ATOM     29  O   UNL     1      33.790 -14.150 -24.946  0.00  0.00    -0.477 OA
ATOM     30  H   UNL     1      33.796 -13.613 -25.712  0.00  0.00    +0.295 HD
ENDBRANCH  28  29
ENDBRANCH  26  28
ENDBRANCH  24  25
ENDBRANCH   4  19
BRANCH   1  31
ATOM     31  C   UNL     1      31.196  -5.830 -21.420  0.00  0.00    -0.043 C 
BRANCH  31  33
ATOM     32  F   UNL     1      33.330  -6.743 -21.181  0.00  0.00    -0.242 F 
ATOM     33  C   UNL     1      32.120  -6.683 -20.540  0.00  0.00    +0.115 C 
ATOM     34  C   UNL     1      31.622  -8.119 -20.394  0.00  0.00    +0.033 C 
ATOM     35  C   UNL     1      32.376  -6.057 -19.171  0.00  0.00    +0.033 C 
ENDBRANCH  31  33
ENDBRANCH   1  31
TORSDOF 6
ENDMDL
MODEL 9
REMARK VINA RESULT:      -6.0      2.044      5.721
REMARK  Name = 86287635
REMARK  6 active torsions:
REMARK  status: ('A' for Active; 'I' for Inactive)
REMARK    1  A    between atoms: N_1  and  C_31
REMARK    2  A    between atoms: C_4  and  C_19
REMARK    3  A    between atoms: C_24  and  C_25
REMARK    4  A    between atoms: C_26  and  C_28
REMARK    5  A    between atoms: C_28  and  O_29
REMARK    6  A    between atoms: C_31  and  C_33
REMARK                            x       y       z     vdW  Elec       q    Type
REMARK                         _______ _______ _______ _____ _____    ______ ____
ROOT
ATOM      1  N   UNL     1      34.873 -22.769 -16.451  0.00  0.00    +0.398 N 
ATOM      2  N   UNL     1      31.330 -23.142 -17.717  0.00  0.00    -0.358 N 
ATOM      3  C   UNL     1      34.569 -23.458 -15.167  0.00  0.00    -0.052 C 
ATOM      4  C   UNL     1      33.881 -23.017 -17.545  0.00  0.00    +0.009 C 
ATOM      5  C   UNL     1      33.198 -22.988 -14.602  0.00  0.00    +0.007 C 
ATOM      6  C   UNL     1      32.484 -23.050 -16.988  0.00  0.00    +0.014 A 
ATOM      7  C   UNL     1      32.148 -23.047 -15.651  0.00  0.00    -0.013 A 
ATOM      8  C   UNL     1      30.732 -23.104 -15.559  0.00  0.00    +0.013 A 
ATOM      9  C   UNL     1      34.637 -24.993 -15.233  0.00  0.00    -0.023 C 
ATOM     10  C   UNL     1      30.242 -23.161 -16.869  0.00  0.00    +0.056 A 
ATOM     11  C   UNL     1      29.811 -23.117 -14.492  0.00  0.00    +0.001 C 
ATOM     12  C   UNL     1      28.876 -23.229 -17.161  0.00  0.00    +0.017 C 
ATOM     13  C   UNL     1      28.442 -23.183 -14.771  0.00  0.00    +0.000 C 
ATOM     14  C   UNL     1      27.983 -23.238 -16.086  0.00  0.00    +0.001 C 
ATOM     15  H   UNL     1      34.783 -21.775 -16.241  0.00  0.00    -0.078 HD
ATOM     16  H   UNL     1      31.282 -23.188 -18.699  0.00  0.00    +0.166 HD
ENDROOT
BRANCH   4  19
ATOM     17  F   UNL     1      36.293 -22.509 -18.957  0.00  0.00    -0.204 F 
ATOM     18  F   UNL     1      31.706 -21.409 -18.413  0.00  0.00    -0.204 F 
ATOM     19  C   UNL     1      33.997 -21.982 -18.658  0.00  0.00    +0.019 C 
ATOM     20  C   UNL     1      35.216 -21.790 -19.307  0.00  0.00    +0.137 C 
ATOM     21  C   UNL     1      32.884 -21.229 -19.030  0.00  0.00    +0.137 C 
ATOM     22  C   UNL     1      35.323 -20.844 -20.327  0.00  0.00    +0.029 C 
ATOM     23  C   UNL     1      32.989 -20.283 -20.049  0.00  0.00    +0.029 C 
ATOM     24  C   UNL     1      34.209 -20.091 -20.698  0.00  0.00    +0.005 C 
BRANCH  24  25
ATOM     25  C   UNL     1      34.321 -19.105 -21.761  0.00  0.00    +0.007 C 
ATOM     26  C   UNL     1      34.738 -19.359 -23.021  0.00  0.00    +0.082 C 
BRANCH  26  28
ATOM     27  O   UNL     1      34.318 -18.256 -25.123  0.00  0.00    -0.245 OA
ATOM     28  C   UNL     1      34.816 -18.265 -24.010  0.00  0.00    +0.338 C 
BRANCH  28  29
ATOM     29  O   UNL     1      35.542 -17.253 -23.480  0.00  0.00    -0.477 OA
ATOM     30  H   UNL     1      35.109 -16.530 -23.072  0.00  0.00    +0.295 HD
ENDBRANCH  28  29
ENDBRANCH  26  28
ENDBRANCH  24  25
ENDBRANCH   4  19
BRANCH   1  31
ATOM     31  C   UNL     1      36.248 -23.018 -16.891  0.00  0.00    -0.043 C 
BRANCH  31  33
ATOM     32  F   UNL     1      36.692 -22.264 -14.728  0.00  0.00    -0.242 F 
ATOM     33  C   UNL     1      37.314 -22.472 -15.932  0.00  0.00    +0.115 C 
ATOM     34  C   UNL     1      37.869 -21.123 -16.384  0.00  0.00    +0.033 C 
ATOM     35  C   UNL     1      38.446 -23.466 -15.678  0.00  0.00    +0.033 C 
ENDBRANCH  31  33
ENDBRANCH   1  31
TORSDOF 6
ENDMDL
