MODEL 1
REMARK VINA RESULT:     -10.8      0.000      0.000
REMARK  Name = 5288720
REMARK  5 active torsions:
REMARK  status: ('A' for Active; 'I' for Inactive)
REMARK    1  A    between atoms: N_3  and  C_20
REMARK    2  A    between atoms: C_20  and  C_21
REMARK    3  A    between atoms: C_21  and  C_22
REMARK    4  A    between atoms: C_22  and  C_24
REMARK    5  A    between atoms: C_24  and  O_25
REMARK                            x       y       z     vdW  Elec       q    Type
REMARK                         _______ _______ _______ _____ _____    ______ ____
ROOT
ATOM      1  O   UNL     1      38.085 -22.470 -15.722  0.00  0.00    -0.287 OA
ATOM      2  O   UNL     1      32.050 -22.802 -17.987  0.00  0.00    -0.267 OA
ATOM      3  N   UNL     1      33.420 -23.277 -16.150  0.00  0.00    -0.295 N 
ATOM      4  C   UNL     1      34.699 -23.231 -15.612  0.00  0.00    +0.066 A 
ATOM      5  C   UNL     1      35.742 -22.727 -16.300  0.00  0.00    +0.055 A 
ATOM      6  C   UNL     1      35.163 -23.681 -14.292  0.00  0.00    +0.019 C 
ATOM      7  C   UNL     1      35.588 -22.201 -17.648  0.00  0.00    +0.009 A 
ATOM      8  C   UNL     1      36.532 -23.427 -14.206  0.00  0.00    +0.040 C 
ATOM      9  C   UNL     1      34.307 -22.234 -18.220  0.00  0.00    +0.056 A 
ATOM     10  C   UNL     1      36.955 -22.819 -15.458  0.00  0.00    +0.197 C 
ATOM     11  C   UNL     1      33.157 -22.792 -17.452  0.00  0.00    +0.261 A 
ATOM     12  C   UNL     1      34.544 -24.265 -13.197  0.00  0.00    +0.002 C 
ATOM     13  C   UNL     1      36.648 -21.671 -18.393  0.00  0.00    +0.000 C 
ATOM     14  C   UNL     1      37.313 -23.721 -13.101  0.00  0.00    +0.003 C 
ATOM     15  C   UNL     1      34.095 -21.741 -19.515  0.00  0.00    +0.005 C 
ATOM     16  C   UNL     1      35.305 -24.577 -12.059  0.00  0.00    +0.000 C 
ATOM     17  C   UNL     1      36.679 -24.307 -12.011  0.00  0.00    +0.000 C 
ATOM     18  C   UNL     1      36.435 -21.181 -19.684  0.00  0.00    +0.000 C 
ATOM     19  C   UNL     1      35.162 -21.217 -20.243  0.00  0.00    +0.000 C 
ENDROOT
BRANCH   3  20
ATOM     20  C   UNL     1      32.332 -23.834 -15.360  0.00  0.00    +0.110 C 
BRANCH  20  21
ATOM     21  C   UNL     1      31.352 -22.770 -14.868  0.00  0.00    +0.036 C 
BRANCH  21  22
ATOM     22  C   UNL     1      29.892 -23.232 -14.834  0.00  0.00    +0.111 C 
BRANCH  22  24
ATOM     23  O   UNL     1      27.951 -21.899 -15.458  0.00  0.00    -0.250 OA
ATOM     24  C   UNL     1      28.997 -22.452 -15.769  0.00  0.00    +0.314 C 
BRANCH  24  25
ATOM     25  O   UNL     1      29.509 -22.411 -17.028  0.00  0.00    -0.480 OA
ATOM     26  H   UNL     1      30.146 -21.761 -17.253  0.00  0.00    +0.295 HD
ENDBRANCH  24  25
ENDBRANCH  22  24
ENDBRANCH  21  22
ENDBRANCH  20  21
ENDBRANCH   3  20
TORSDOF 5
ENDMDL
MODEL 2
REMARK VINA RESULT:     -10.7      1.262      4.761
REMARK  Name = 5288720
REMARK  5 active torsions:
REMARK  status: ('A' for Active; 'I' for Inactive)
REMARK    1  A    between atoms: N_3  and  C_20
REMARK    2  A    between atoms: C_20  and  C_21
REMARK    3  A    between atoms: C_21  and  C_22
REMARK    4  A    between atoms: C_22  and  C_24
REMARK    5  A    between atoms: C_24  and  O_25
REMARK                            x       y       z     vdW  Elec       q    Type
REMARK                         _______ _______ _______ _____ _____    ______ ____
ROOT
ATOM      1  O   UNL     1      37.702 -22.143 -16.272  0.00  0.00    -0.287 OA
ATOM      2  O   UNL     1      32.705 -24.672 -13.063  0.00  0.00    -0.267 OA
ATOM      3  N   UNL     1      33.383 -23.750 -15.105  0.00  0.00    -0.295 N 
ATOM      4  C   UNL     1      34.423 -23.199 -15.842  0.00  0.00    +0.066 A 
ATOM      5  C   UNL     1      35.657 -23.044 -15.325  0.00  0.00    +0.055 A 
ATOM      6  C   UNL     1      34.412 -22.705 -17.226  0.00  0.00    +0.019 C 
ATOM      7  C   UNL     1      35.972 -23.445 -13.963  0.00  0.00    +0.009 A 
ATOM      8  C   UNL     1      35.693 -22.244 -17.530  0.00  0.00    +0.040 C 
ATOM      9  C   UNL     1      34.944 -24.006 -13.192  0.00  0.00    +0.056 A 
ATOM     10  C   UNL     1      36.529 -22.435 -16.355  0.00  0.00    +0.197 C 
ATOM     11  C   UNL     1      33.579 -24.175 -13.770  0.00  0.00    +0.261 A 
ATOM     12  C   UNL     1      33.443 -22.617 -18.214  0.00  0.00    +0.002 C 
ATOM     13  C   UNL     1      37.242 -23.299 -13.393  0.00  0.00    +0.000 C 
ATOM     14  C   UNL     1      36.061 -21.704 -18.751  0.00  0.00    +0.003 C 
ATOM     15  C   UNL     1      35.186 -24.413 -11.872  0.00  0.00    +0.005 C 
ATOM     16  C   UNL     1      33.780 -22.074 -19.465  0.00  0.00    +0.000 C 
ATOM     17  C   UNL     1      35.079 -21.622 -19.732  0.00  0.00    +0.000 C 
ATOM     18  C   UNL     1      37.482 -23.704 -12.077  0.00  0.00    +0.000 C 
ATOM     19  C   UNL     1      36.456 -24.259 -11.319  0.00  0.00    +0.000 C 
ENDROOT
BRANCH   3  20
ATOM     20  C   UNL     1      32.070 -23.892 -15.716  0.00  0.00    +0.110 C 
BRANCH  20  21
ATOM     21  C   UNL     1      31.105 -22.778 -15.315  0.00  0.00    +0.036 C 
BRANCH  21  22
ATOM     22  C   UNL     1      29.663 -23.246 -15.097  0.00  0.00    +0.111 C 
BRANCH  22  24
ATOM     23  O   UNL     1      27.624 -21.974 -15.491  0.00  0.00    -0.250 OA
ATOM     24  C   UNL     1      28.655 -22.474 -15.918  0.00  0.00    +0.314 C 
BRANCH  24  25
ATOM     25  O   UNL     1      29.043 -22.375 -17.217  0.00  0.00    -0.480 OA
ATOM     26  H   UNL     1      29.582 -21.660 -17.491  0.00  0.00    +0.295 HD
ENDBRANCH  24  25
ENDBRANCH  22  24
ENDBRANCH  21  22
ENDBRANCH  20  21
ENDBRANCH   3  20
TORSDOF 5
ENDMDL
MODEL 3
REMARK VINA RESULT:     -10.6      2.140      6.510
REMARK  Name = 5288720
REMARK  5 active torsions:
REMARK  status: ('A' for Active; 'I' for Inactive)
REMARK    1  A    between atoms: N_3  and  C_20
REMARK    2  A    between atoms: C_20  and  C_21
REMARK    3  A    between atoms: C_21  and  C_22
REMARK    4  A    between atoms: C_22  and  C_24
REMARK    5  A    between atoms: C_24  and  O_25
REMARK                            x       y       z     vdW  Elec       q    Type
REMARK                         _______ _______ _______ _____ _____    ______ ____
ROOT
ATOM      1  O   UNL     1      32.238 -22.591 -18.498  0.00  0.00    -0.287 OA
ATOM      2  O   UNL     1      34.184 -24.530 -12.657  0.00  0.00    -0.267 OA
ATOM      3  N   UNL     1      34.882 -23.557 -14.668  0.00  0.00    -0.295 N 
ATOM      4  C   UNL     1      34.520 -23.123 -15.936  0.00  0.00    +0.066 A 
ATOM      5  C   UNL     1      33.254 -23.224 -16.387  0.00  0.00    +0.055 A 
ATOM      6  C   UNL     1      35.357 -22.511 -16.977  0.00  0.00    +0.019 C 
ATOM      7  C   UNL     1      32.194 -23.796 -15.572  0.00  0.00    +0.009 A 
ATOM      8  C   UNL     1      34.547 -22.243 -18.081  0.00  0.00    +0.040 C 
ATOM      9  C   UNL     1      32.529 -24.244 -14.285  0.00  0.00    +0.056 A 
ATOM     10  C   UNL     1      33.196 -22.677 -17.761  0.00  0.00    +0.197 C 
ATOM     11  C   UNL     1      33.931 -24.128 -13.791  0.00  0.00    +0.261 A 
ATOM     12  C   UNL     1      36.699 -22.173 -17.064  0.00  0.00    +0.002 C 
ATOM     13  C   UNL     1      30.870 -23.918 -16.007  0.00  0.00    +0.000 C 
ATOM     14  C   UNL     1      34.994 -21.663 -19.257  0.00  0.00    +0.003 C 
ATOM     15  C   UNL     1      31.550 -24.803 -13.451  0.00  0.00    +0.005 C 
ATOM     16  C   UNL     1      37.188 -21.584 -18.242  0.00  0.00    +0.000 C 
ATOM     17  C   UNL     1      36.341 -21.331 -19.330  0.00  0.00    +0.000 C 
ATOM     18  C   UNL     1      29.896 -24.477 -15.175  0.00  0.00    +0.000 C 
ATOM     19  C   UNL     1      30.236 -24.918 -13.901  0.00  0.00    +0.000 C 
ENDROOT
BRANCH   3  20
ATOM     20  C   UNL     1      36.266 -23.422 -14.234  0.00  0.00    +0.110 C 
BRANCH  20  21
ATOM     21  C   UNL     1      37.110 -24.655 -14.553  0.00  0.00    +0.036 C 
BRANCH  21  22
ATOM     22  C   UNL     1      38.137 -25.005 -13.473  0.00  0.00    +0.111 C 
BRANCH  22  24
ATOM     23  O   UNL     1      37.763 -24.416 -11.139  0.00  0.00    -0.250 OA
ATOM     24  C   UNL     1      37.531 -25.143 -12.094  0.00  0.00    +0.314 C 
BRANCH  24  25
ATOM     25  O   UNL     1      36.657 -26.183 -12.038  0.00  0.00    -0.480 OA
ATOM     26  H   UNL     1      35.780 -26.075 -12.352  0.00  0.00    +0.295 HD
ENDBRANCH  24  25
ENDBRANCH  22  24
ENDBRANCH  21  22
ENDBRANCH  20  21
ENDBRANCH   3  20
TORSDOF 5
ENDMDL
MODEL 4
REMARK VINA RESULT:     -10.5      1.654      5.637
REMARK  Name = 5288720
REMARK  5 active torsions:
REMARK  status: ('A' for Active; 'I' for Inactive)
REMARK    1  A    between atoms: N_3  and  C_20
REMARK    2  A    between atoms: C_20  and  C_21
REMARK    3  A    between atoms: C_21  and  C_22
REMARK    4  A    between atoms: C_22  and  C_24
REMARK    5  A    between atoms: C_24  and  O_25
REMARK                            x       y       z     vdW  Elec       q    Type
REMARK                         _______ _______ _______ _____ _____    ______ ____
ROOT
ATOM      1  O   UNL     1      31.542 -22.756 -17.852  0.00  0.00    -0.287 OA
ATOM      2  O   UNL     1      37.797 -22.494 -16.279  0.00  0.00    -0.267 OA
ATOM      3  N   UNL     1      35.683 -23.200 -15.561  0.00  0.00    -0.295 N 
ATOM      4  C   UNL     1      34.328 -23.283 -15.847  0.00  0.00    +0.066 A 
ATOM      5  C   UNL     1      33.812 -22.800 -16.995  0.00  0.00    +0.055 A 
ATOM      6  C   UNL     1      33.247 -23.864 -15.039  0.00  0.00    +0.019 C 
ATOM      7  C   UNL     1      34.648 -22.162 -18.000  0.00  0.00    +0.009 A 
ATOM      8  C   UNL     1      32.052 -23.715 -15.743  0.00  0.00    +0.040 C 
ATOM      9  C   UNL     1      36.022 -22.062 -17.740  0.00  0.00    +0.056 A 
ATOM     10  C   UNL     1      32.353 -23.043 -16.997  0.00  0.00    +0.197 C 
ATOM     11  C   UNL     1      36.587 -22.600 -16.469  0.00  0.00    +0.261 A 
ATOM     12  C   UNL     1      33.193 -24.486 -13.800  0.00  0.00    +0.002 C 
ATOM     13  C   UNL     1      34.147 -21.648 -19.202  0.00  0.00    +0.000 C 
ATOM     14  C   UNL     1      30.817 -24.145 -15.288  0.00  0.00    +0.003 C 
ATOM     15  C   UNL     1      36.879 -21.458 -18.672  0.00  0.00    +0.005 C 
ATOM     16  C   UNL     1      31.958 -24.936 -13.307  0.00  0.00    +0.000 C 
ATOM     17  C   UNL     1      30.779 -24.767 -14.045  0.00  0.00    +0.000 C 
ATOM     18  C   UNL     1      35.002 -21.046 -20.129  0.00  0.00    +0.000 C 
ATOM     19  C   UNL     1      36.365 -20.951 -19.864  0.00  0.00    +0.000 C 
ENDROOT
BRANCH   3  20
ATOM     20  C   UNL     1      36.184 -23.739 -14.305  0.00  0.00    +0.110 C 
BRANCH  20  21
ATOM     21  C   UNL     1      36.758 -25.147 -14.451  0.00  0.00    +0.036 C 
BRANCH  21  22
ATOM     22  C   UNL     1      38.078 -25.365 -13.705  0.00  0.00    +0.111 C 
BRANCH  22  24
ATOM     23  O   UNL     1      39.912 -26.615 -14.710  0.00  0.00    -0.250 OA
ATOM     24  C   UNL     1      39.255 -25.586 -14.628  0.00  0.00    +0.314 C 
BRANCH  24  25
ATOM     25  O   UNL     1      39.496 -24.491 -15.397  0.00  0.00    -0.480 OA
ATOM     26  H   UNL     1      38.785 -24.044 -15.811  0.00  0.00    +0.295 HD
ENDBRANCH  24  25
ENDBRANCH  22  24
ENDBRANCH  21  22
ENDBRANCH  20  21
ENDBRANCH   3  20
TORSDOF 5
ENDMDL
MODEL 5
REMARK VINA RESULT:     -10.2      9.308     12.572
REMARK  Name = 5288720
REMARK  5 active torsions:
REMARK  status: ('A' for Active; 'I' for Inactive)
REMARK    1  A    between atoms: N_3  and  C_20
REMARK    2  A    between atoms: C_20  and  C_21
REMARK    3  A    between atoms: C_21  and  C_22
REMARK    4  A    between atoms: C_22  and  C_24
REMARK    5  A    between atoms: C_24  and  O_25
REMARK                            x       y       z     vdW  Elec       q    Type
REMARK                         _______ _______ _______ _____ _____    ______ ____
ROOT
ATOM      1  O   UNL     1      33.345 -15.283 -19.853  0.00  0.00    -0.287 OA
ATOM      2  O   UNL     1      34.019 -15.885 -26.245  0.00  0.00    -0.267 OA
ATOM      3  N   UNL     1      33.203 -14.503 -24.540  0.00  0.00    -0.295 N 
ATOM      4  C   UNL     1      33.031 -14.322 -23.175  0.00  0.00    +0.066 A 
ATOM      5  C   UNL     1      33.453 -15.234 -22.277  0.00  0.00    +0.055 A 
ATOM      6  C   UNL     1      32.407 -13.197 -22.464  0.00  0.00    +0.019 C 
ATOM      7  C   UNL     1      34.114 -16.463 -22.688  0.00  0.00    +0.009 A 
ATOM      8  C   UNL     1      32.468 -13.463 -21.096  0.00  0.00    +0.040 C 
ATOM      9  C   UNL     1      34.303 -16.676 -24.062  0.00  0.00    +0.056 A 
ATOM     10  C   UNL     1      33.125 -14.748 -20.918  0.00  0.00    +0.197 C 
ATOM     11  C   UNL     1      33.834 -15.662 -25.049  0.00  0.00    +0.261 A 
ATOM     12  C   UNL     1      31.813 -12.010 -22.865  0.00  0.00    +0.002 C 
ATOM     13  C   UNL     1      34.565 -17.432 -21.785  0.00  0.00    +0.000 C 
ATOM     14  C   UNL     1      31.975 -12.621 -20.113  0.00  0.00    +0.003 C 
ATOM     15  C   UNL     1      34.934 -17.842 -24.519  0.00  0.00    +0.005 C 
ATOM     16  C   UNL     1      31.302 -11.131 -21.896  0.00  0.00    +0.000 C 
ATOM     17  C   UNL     1      31.383 -11.435 -20.530  0.00  0.00    +0.000 C 
ATOM     18  C   UNL     1      35.192 -18.594 -22.243  0.00  0.00    +0.000 C 
ATOM     19  C   UNL     1      35.376 -18.797 -23.607  0.00  0.00    +0.000 C 
ENDROOT
BRANCH   3  20
ATOM     20  C   UNL     1      32.726 -13.483 -25.463  0.00  0.00    +0.110 C 
BRANCH  20  21
ATOM     21  C   UNL     1      33.835 -12.545 -25.936  0.00  0.00    +0.036 C 
BRANCH  21  22
ATOM     22  C   UNL     1      33.862 -11.195 -25.213  0.00  0.00    +0.111 C 
BRANCH  22  24
ATOM     23  O   UNL     1      35.772 -10.305 -26.436  0.00  0.00    -0.250 OA
ATOM     24  C   UNL     1      35.169 -10.454 -25.383  0.00  0.00    +0.314 C 
BRANCH  24  25
ATOM     25  O   UNL     1      35.602  -9.934 -24.203  0.00  0.00    -0.480 OA
ATOM     26  H   UNL     1      35.049  -9.356 -23.715  0.00  0.00    +0.295 HD
ENDBRANCH  24  25
ENDBRANCH  22  24
ENDBRANCH  21  22
ENDBRANCH  20  21
ENDBRANCH   3  20
TORSDOF 5
ENDMDL
MODEL 6
REMARK VINA RESULT:     -10.1      2.037      5.090
REMARK  Name = 5288720
REMARK  5 active torsions:
REMARK  status: ('A' for Active; 'I' for Inactive)
REMARK    1  A    between atoms: N_3  and  C_20
REMARK    2  A    between atoms: C_20  and  C_21
REMARK    3  A    between atoms: C_21  and  C_22
REMARK    4  A    between atoms: C_22  and  C_24
REMARK    5  A    between atoms: C_24  and  O_25
REMARK                            x       y       z     vdW  Elec       q    Type
REMARK                         _______ _______ _______ _____ _____    ______ ____
ROOT
ATOM      1  O   UNL     1      31.404 -22.554 -17.865  0.00  0.00    -0.287 OA
ATOM      2  O   UNL     1      37.665 -22.837 -16.321  0.00  0.00    -0.267 OA
ATOM      3  N   UNL     1      35.509 -23.441 -15.639  0.00  0.00    -0.295 N 
ATOM      4  C   UNL     1      34.150 -23.410 -15.921  0.00  0.00    +0.066 A 
ATOM      5  C   UNL     1      33.667 -22.815 -17.029  0.00  0.00    +0.055 A 
ATOM      6  C   UNL     1      33.033 -23.968 -15.146  0.00  0.00    +0.019 C 
ATOM      7  C   UNL     1      34.543 -22.169 -17.994  0.00  0.00    +0.009 A 
ATOM      8  C   UNL     1      31.851 -23.689 -15.830  0.00  0.00    +0.040 C 
ATOM      9  C   UNL     1      35.922 -22.183 -17.738  0.00  0.00    +0.056 A 
ATOM     10  C   UNL     1      32.194 -22.955 -17.038  0.00  0.00    +0.197 C 
ATOM     11  C   UNL     1      36.450 -22.844 -16.510  0.00  0.00    +0.261 A 
ATOM     12  C   UNL     1      32.939 -24.669 -13.953  0.00  0.00    +0.002 C 
ATOM     13  C   UNL     1      34.077 -21.540 -19.155  0.00  0.00    +0.000 C 
ATOM     14  C   UNL     1      30.589 -24.063 -15.397  0.00  0.00    +0.003 C 
ATOM     15  C   UNL     1      36.817 -21.577 -18.632  0.00  0.00    +0.005 C 
ATOM     16  C   UNL     1      31.676 -25.065 -13.483  0.00  0.00    +0.000 C 
ATOM     17  C   UNL     1      30.510 -24.764 -14.199  0.00  0.00    +0.000 C 
ATOM     18  C   UNL     1      34.970 -20.937 -20.044  0.00  0.00    +0.000 C 
ATOM     19  C   UNL     1      36.336 -20.955 -19.782  0.00  0.00    +0.000 C 
ENDROOT
BRANCH   3  20
ATOM     20  C   UNL     1      35.973 -24.099 -14.426  0.00  0.00    +0.110 C 
BRANCH  20  21
ATOM     21  C   UNL     1      36.177 -23.127 -13.265  0.00  0.00    +0.036 C 
BRANCH  21  22
ATOM     22  C   UNL     1      36.911 -23.731 -12.064  0.00  0.00    +0.111 C 
BRANCH  22  24
ATOM     23  O   UNL     1      34.997 -24.972 -11.213  0.00  0.00    -0.250 OA
ATOM     24  C   UNL     1      35.979 -24.274 -11.005  0.00  0.00    +0.314 C 
BRANCH  24  25
ATOM     25  O   UNL     1      36.378 -23.909  -9.758  0.00  0.00    -0.480 OA
ATOM     26  H   UNL     1      36.995 -23.213  -9.649  0.00  0.00    +0.295 HD
ENDBRANCH  24  25
ENDBRANCH  22  24
ENDBRANCH  21  22
ENDBRANCH  20  21
ENDBRANCH   3  20
TORSDOF 5
ENDMDL
MODEL 7
REMARK VINA RESULT:      -9.1      2.242      5.856
REMARK  Name = 5288720
REMARK  5 active torsions:
REMARK  status: ('A' for Active; 'I' for Inactive)
REMARK    1  A    between atoms: N_3  and  C_20
REMARK    2  A    between atoms: C_20  and  C_21
REMARK    3  A    between atoms: C_21  and  C_22
REMARK    4  A    between atoms: C_22  and  C_24
REMARK    5  A    between atoms: C_24  and  O_25
REMARK                            x       y       z     vdW  Elec       q    Type
REMARK                         _______ _______ _______ _____ _____    ______ ____
ROOT
ATOM      1  O   UNL     1      32.418 -25.057 -12.926  0.00  0.00    -0.287 OA
ATOM      2  O   UNL     1      35.805 -22.366 -17.717  0.00  0.00    -0.267 OA
ATOM      3  N   UNL     1      33.649 -22.903 -16.981  0.00  0.00    -0.295 N 
ATOM      4  C   UNL     1      32.871 -23.471 -15.982  0.00  0.00    +0.066 A 
ATOM      5  C   UNL     1      33.417 -23.997 -14.868  0.00  0.00    +0.055 A 
ATOM      6  C   UNL     1      31.410 -23.613 -15.917  0.00  0.00    +0.019 C 
ATOM      7  C   UNL     1      34.855 -24.002 -14.649  0.00  0.00    +0.009 A 
ATOM      8  C   UNL     1      31.090 -24.246 -14.717  0.00  0.00    +0.040 C 
ATOM      9  C   UNL     1      35.669 -23.436 -15.641  0.00  0.00    +0.056 A 
ATOM     10  C   UNL     1      32.330 -24.515 -14.007  0.00  0.00    +0.197 C 
ATOM     11  C   UNL     1      35.058 -22.854 -16.871  0.00  0.00    +0.261 A 
ATOM     12  C   UNL     1      30.366 -23.261 -16.760  0.00  0.00    +0.002 C 
ATOM     13  C   UNL     1      35.457 -24.540 -13.506  0.00  0.00    +0.000 C 
ATOM     14  C   UNL     1      29.800 -24.549 -14.311  0.00  0.00    +0.003 C 
ATOM     15  C   UNL     1      37.063 -23.410 -15.487  0.00  0.00    +0.005 C 
ATOM     16  C   UNL     1      29.045 -23.553 -16.382  0.00  0.00    +0.000 C 
ATOM     17  C   UNL     1      28.764 -24.191 -15.167  0.00  0.00    +0.000 C 
ATOM     18  C   UNL     1      36.846 -24.515 -13.354  0.00  0.00    +0.000 C 
ATOM     19  C   UNL     1      37.646 -23.951 -14.343  0.00  0.00    +0.000 C 
ENDROOT
BRANCH   3  20
ATOM     20  C   UNL     1      33.004 -22.350 -18.163  0.00  0.00    +0.110 C 
BRANCH  20  21
ATOM     21  C   UNL     1      33.979 -22.115 -19.316  0.00  0.00    +0.036 C 
BRANCH  21  22
ATOM     22  C   UNL     1      33.740 -20.809 -20.080  0.00  0.00    +0.111 C 
BRANCH  22  24
ATOM     23  O   UNL     1      35.128 -19.581 -21.660  0.00  0.00    -0.250 OA
ATOM     24  C   UNL     1      35.013 -20.182 -20.602  0.00  0.00    +0.314 C 
BRANCH  24  25
ATOM     25  O   UNL     1      36.042 -20.346 -19.728  0.00  0.00    -0.480 OA
ATOM     26  H   UNL     1      36.468 -19.596 -19.361  0.00  0.00    +0.295 HD
ENDBRANCH  24  25
ENDBRANCH  22  24
ENDBRANCH  21  22
ENDBRANCH  20  21
ENDBRANCH   3  20
TORSDOF 5
ENDMDL
MODEL 8
REMARK VINA RESULT:      -9.1      1.962      4.940
REMARK  Name = 5288720
REMARK  5 active torsions:
REMARK  status: ('A' for Active; 'I' for Inactive)
REMARK    1  A    between atoms: N_3  and  C_20
REMARK    2  A    between atoms: C_20  and  C_21
REMARK    3  A    between atoms: C_21  and  C_22
REMARK    4  A    between atoms: C_22  and  C_24
REMARK    5  A    between atoms: C_24  and  O_25
REMARK                            x       y       z     vdW  Elec       q    Type
REMARK                         _______ _______ _______ _____ _____    ______ ____
ROOT
ATOM      1  O   UNL     1      33.853 -24.654 -12.500  0.00  0.00    -0.287 OA
ATOM      2  O   UNL     1      32.260 -22.343 -18.312  0.00  0.00    -0.267 OA
ATOM      3  N   UNL     1      34.052 -22.934 -16.927  0.00  0.00    -0.295 N 
ATOM      4  C   UNL     1      34.452 -23.426 -15.692  0.00  0.00    +0.066 A 
ATOM      5  C   UNL     1      33.561 -23.770 -14.741  0.00  0.00    +0.055 A 
ATOM      6  C   UNL     1      35.812 -23.663 -15.189  0.00  0.00    +0.019 C 
ATOM      7  C   UNL     1      32.128 -23.644 -14.954  0.00  0.00    +0.009 A 
ATOM      8  C   UNL     1      35.711 -24.166 -13.892  0.00  0.00    +0.040 C 
ATOM      9  C   UNL     1      31.691 -23.149 -16.191  0.00  0.00    +0.056 A 
ATOM     10  C   UNL     1      34.300 -24.255 -13.554  0.00  0.00    +0.197 C 
ATOM     11  C   UNL     1      32.682 -22.771 -17.240  0.00  0.00    +0.261 A 
ATOM     12  C   UNL     1      37.082 -23.494 -15.719  0.00  0.00    +0.002 C 
ATOM     13  C   UNL     1      31.174 -23.990 -13.989  0.00  0.00    +0.000 C 
ATOM     14  C   UNL     1      36.794 -24.507 -13.099  0.00  0.00    +0.003 C 
ATOM     15  C   UNL     1      30.321 -23.005 -16.456  0.00  0.00    +0.005 C 
ATOM     16  C   UNL     1      38.204 -23.829 -14.944  0.00  0.00    +0.000 C 
ATOM     17  C   UNL     1      38.061 -24.332 -13.643  0.00  0.00    +0.000 C 
ATOM     18  C   UNL     1      29.810 -23.845 -14.254  0.00  0.00    +0.000 C 
ATOM     19  C   UNL     1      29.385 -23.354 -15.485  0.00  0.00    +0.000 C 
ENDROOT
BRANCH   3  20
ATOM     20  C   UNL     1      35.059 -22.579 -17.916  0.00  0.00    +0.110 C 
BRANCH  20  21
ATOM     21  C   UNL     1      34.458 -22.241 -19.279  0.00  0.00    +0.036 C 
BRANCH  21  22
ATOM     22  C   UNL     1      34.980 -20.935 -19.886  0.00  0.00    +0.111 C 
BRANCH  22  24
ATOM     23  O   UNL     1      34.153 -19.359 -21.549  0.00  0.00    -0.250 OA
ATOM     24  C   UNL     1      33.931 -20.180 -20.671  0.00  0.00    +0.314 C 
BRANCH  24  25
ATOM     25  O   UNL     1      32.675 -20.543 -20.297  0.00  0.00    -0.480 OA
ATOM     26  H   UNL     1      31.938 -20.275 -20.810  0.00  0.00    +0.295 HD
ENDBRANCH  24  25
ENDBRANCH  22  24
ENDBRANCH  21  22
ENDBRANCH  20  21
ENDBRANCH   3  20
TORSDOF 5
ENDMDL
MODEL 9
REMARK VINA RESULT:      -9.0      8.205     11.729
REMARK  Name = 5288720
REMARK  5 active torsions:
REMARK  status: ('A' for Active; 'I' for Inactive)
REMARK    1  A    between atoms: N_3  and  C_20
REMARK    2  A    between atoms: C_20  and  C_21
REMARK    3  A    between atoms: C_21  and  C_22
REMARK    4  A    between atoms: C_22  and  C_24
REMARK    5  A    between atoms: C_24  and  O_25
REMARK                            x       y       z     vdW  Elec       q    Type
REMARK                         _______ _______ _______ _____ _____    ______ ____
ROOT
ATOM      1  O   UNL     1      34.379 -17.292 -26.040  0.00  0.00    -0.287 OA
ATOM      2  O   UNL     1      34.712 -15.803 -19.768  0.00  0.00    -0.267 OA
ATOM      3  N   UNL     1      34.207 -14.969 -21.897  0.00  0.00    -0.295 N 
ATOM      4  C   UNL     1      34.118 -15.234 -23.256  0.00  0.00    +0.066 A 
ATOM      5  C   UNL     1      34.412 -16.446 -23.766  0.00  0.00    +0.055 A 
ATOM      6  C   UNL     1      33.720 -14.334 -24.348  0.00  0.00    +0.019 C 
ATOM      7  C   UNL     1      34.841 -17.548 -22.919  0.00  0.00    +0.009 A 
ATOM      8  C   UNL     1      33.783 -15.051 -25.543  0.00  0.00    +0.040 C 
ATOM      9  C   UNL     1      34.941 -17.313 -21.540  0.00  0.00    +0.056 A 
ATOM     10  C   UNL     1      34.219 -16.403 -25.232  0.00  0.00    +0.197 C 
ATOM     11  C   UNL     1      34.613 -15.969 -20.983  0.00  0.00    +0.261 A 
ATOM     12  C   UNL     1      33.322 -13.007 -24.411  0.00  0.00    +0.002 C 
ATOM     13  C   UNL     1      35.156 -18.820 -23.413  0.00  0.00    +0.000 C 
ATOM     14  C   UNL     1      33.475 -14.525 -26.787  0.00  0.00    +0.003 C 
ATOM     15  C   UNL     1      35.349 -18.337 -20.673  0.00  0.00    +0.005 C 
ATOM     16  C   UNL     1      33.002 -12.440 -25.655  0.00  0.00    +0.000 C 
ATOM     17  C   UNL     1      33.078 -13.194 -26.835  0.00  0.00    +0.000 C 
ATOM     18  C   UNL     1      35.563 -19.838 -22.548  0.00  0.00    +0.000 C 
ATOM     19  C   UNL     1      35.659 -19.597 -21.181  0.00  0.00    +0.000 C 
ENDROOT
BRANCH   3  20
ATOM     20  C   UNL     1      33.877 -13.640 -21.403  0.00  0.00    +0.110 C 
BRANCH  20  21
ATOM     21  C   UNL     1      32.414 -13.511 -20.981  0.00  0.00    +0.036 C 
BRANCH  21  22
ATOM     22  C   UNL     1      32.075 -12.181 -20.301  0.00  0.00    +0.111 C 
BRANCH  22  24
ATOM     23  O   UNL     1      31.983  -9.998 -21.378  0.00  0.00    -0.250 OA
ATOM     24  C   UNL     1      31.552 -11.136 -21.261  0.00  0.00    +0.314 C 
BRANCH  24  25
ATOM     25  O   UNL     1      30.533 -11.623 -22.018  0.00  0.00    -0.480 OA
ATOM     26  H   UNL     1      30.183 -11.108 -22.718  0.00  0.00    +0.295 HD
ENDBRANCH  24  25
ENDBRANCH  22  24
ENDBRANCH  21  22
ENDBRANCH  20  21
ENDBRANCH   3  20
TORSDOF 5
ENDMDL
