MODEL 1
REMARK VINA RESULT:     -11.5      0.000      0.000
REMARK  Name = 7297549
REMARK  3 active torsions:
REMARK  status: ('A' for Active; 'I' for Inactive)
REMARK    1  A    between atoms: N_3  and  S_16
REMARK    2  A    between atoms: C_7  and  C_11
REMARK    3  A    between atoms: S_16  and  C_19
REMARK                            x       y       z     vdW  Elec       q    Type
REMARK                         _______ _______ _______ _____ _____    ______ ____
ROOT
ATOM      1  S   UNL     1      33.312 -14.417 -21.361  0.00  0.00    -0.025 S 
ATOM      2  O   UNL     1      32.967 -14.213 -25.152  0.00  0.00    -0.209 OA
ATOM      3  N   UNL     1      34.463 -16.834 -21.567  0.00  0.00    -0.183 N 
ATOM      4  N   UNL     1      33.786 -15.702 -23.571  0.00  0.00    -0.309 NA
ATOM      5  C   UNL     1      33.900 -15.761 -22.286  0.00  0.00    +0.243 C 
ATOM      6  C   UNL     1      32.849 -13.653 -22.828  0.00  0.00    +0.131 C 
ATOM      7  C   UNL     1      32.267 -12.459 -22.941  0.00  0.00    +0.057 C 
ATOM      8  C   UNL     1      33.191 -14.523 -23.990  0.00  0.00    +0.213 C 
ATOM      9  H   UNL     1      34.464 -16.779 -20.584  0.00  0.00    +0.177 HD
ENDROOT
BRANCH   7  11
ATOM     10  O   UNL     1      32.361 -10.330 -21.779  0.00  0.00    -0.458 OA
ATOM     11  C   UNL     1      31.930 -11.607 -21.837  0.00  0.00    +0.146 C 
ATOM     12  C   UNL     1      31.866  -9.824 -20.620  0.00  0.00    +0.123 C 
ATOM     13  C   UNL     1      31.174 -11.941 -20.753  0.00  0.00    +0.040 C 
ATOM     14  C   UNL     1      31.130 -10.775 -19.952  0.00  0.00    +0.036 C 
ATOM     15  C   UNL     1      32.203  -8.424 -20.326  0.00  0.00    +0.072 C 
ENDBRANCH   7  11
BRANCH   3  16
ATOM     16  S   UNL     1      35.148 -18.229 -22.288  0.00  0.00    +0.076 S 
ATOM     17  O   UNL     1      36.600 -18.113 -22.252  0.00  0.00    -0.150 OA
ATOM     18  O   UNL     1      34.479 -18.473 -23.559  0.00  0.00    -0.150 OA
BRANCH  16  19
ATOM     19  C   UNL     1      34.655 -19.480 -21.175  0.00  0.00    +0.125 C 
ATOM     20  C   UNL     1      33.304 -19.655 -20.874  0.00  0.00    +0.020 C 
ATOM     21  C   UNL     1      35.612 -20.306 -20.585  0.00  0.00    +0.020 C 
ATOM     22  C   UNL     1      33.867 -21.481 -19.397  0.00  0.00    -0.022 C 
ATOM     23  C   UNL     1      32.910 -20.655 -19.986  0.00  0.00    -0.003 C 
ATOM     24  C   UNL     1      35.219 -21.306 -19.697  0.00  0.00    -0.003 C 
ATOM     25  C   UNL     1      33.446 -22.550 -18.447  0.00  0.00    +0.031 C 
ENDBRANCH  16  19
ENDBRANCH   3  16
TORSDOF 3
ENDMDL
MODEL 2
REMARK VINA RESULT:     -11.2      1.217      1.660
REMARK  Name = 7297549
REMARK  3 active torsions:
REMARK  status: ('A' for Active; 'I' for Inactive)
REMARK    1  A    between atoms: N_3  and  S_16
REMARK    2  A    between atoms: C_7  and  C_11
REMARK    3  A    between atoms: S_16  and  C_19
REMARK                            x       y       z     vdW  Elec       q    Type
REMARK                         _______ _______ _______ _____ _____    ______ ____
ROOT
ATOM      1  S   UNL     1      34.101 -14.838 -22.302  0.00  0.00    -0.025 S 
ATOM      2  O   UNL     1      33.815 -15.602 -26.026  0.00  0.00    -0.209 OA
ATOM      3  N   UNL     1      35.291 -17.209 -21.879  0.00  0.00    -0.183 N 
ATOM      4  N   UNL     1      34.630 -16.630 -24.112  0.00  0.00    -0.309 NA
ATOM      5  C   UNL     1      34.723 -16.362 -22.852  0.00  0.00    +0.243 C 
ATOM      6  C   UNL     1      33.650 -14.478 -23.920  0.00  0.00    +0.131 C 
ATOM      7  C   UNL     1      33.053 -13.361 -24.337  0.00  0.00    +0.057 C 
ATOM      8  C   UNL     1      34.025 -15.605 -24.821  0.00  0.00    +0.213 C 
ATOM      9  H   UNL     1      35.274 -16.907 -20.941  0.00  0.00    +0.177 HD
ENDROOT
BRANCH   7  11
ATOM     10  O   UNL     1      31.851 -12.437 -22.442  0.00  0.00    -0.458 OA
ATOM     11  C   UNL     1      32.685 -12.265 -23.487  0.00  0.00    +0.146 C 
ATOM     12  C   UNL     1      31.721 -11.213 -21.867  0.00  0.00    +0.123 C 
ATOM     13  C   UNL     1      33.097 -10.971 -23.605  0.00  0.00    +0.040 C 
ATOM     14  C   UNL     1      32.467 -10.278 -22.545  0.00  0.00    +0.036 C 
ATOM     15  C   UNL     1      30.847 -11.139 -20.687  0.00  0.00    +0.072 C 
ENDBRANCH   7  11
BRANCH   3  16
ATOM     16  S   UNL     1      36.007 -18.727 -22.216  0.00  0.00    +0.076 S 
ATOM     17  O   UNL     1      37.412 -18.681 -21.830  0.00  0.00    -0.150 OA
ATOM     18  O   UNL     1      35.649 -19.121 -23.573  0.00  0.00    -0.150 OA
BRANCH  16  19
ATOM     19  C   UNL     1      35.153 -19.774 -21.112  0.00  0.00    +0.125 C 
ATOM     20  C   UNL     1      33.764 -19.698 -21.010  0.00  0.00    +0.020 C 
ATOM     21  C   UNL     1      35.860 -20.689 -20.331  0.00  0.00    +0.020 C 
ATOM     22  C   UNL     1      33.788 -21.450 -19.348  0.00  0.00    -0.022 C 
ATOM     23  C   UNL     1      33.082 -20.536 -20.128  0.00  0.00    -0.003 C 
ATOM     24  C   UNL     1      35.178 -21.527 -19.449  0.00  0.00    -0.003 C 
ATOM     25  C   UNL     1      33.059 -22.346 -18.404  0.00  0.00    +0.031 C 
ENDBRANCH  16  19
ENDBRANCH   3  16
TORSDOF 3
ENDMDL
MODEL 3
REMARK VINA RESULT:     -10.4      3.351      5.695
REMARK  Name = 7297549
REMARK  3 active torsions:
REMARK  status: ('A' for Active; 'I' for Inactive)
REMARK    1  A    between atoms: N_3  and  S_16
REMARK    2  A    between atoms: C_7  and  C_11
REMARK    3  A    between atoms: S_16  and  C_19
REMARK                            x       y       z     vdW  Elec       q    Type
REMARK                         _______ _______ _______ _____ _____    ______ ____
ROOT
ATOM      1  S   UNL     1      33.859 -18.987 -20.848  0.00  0.00    -0.025 S 
ATOM      2  O   UNL     1      37.659 -19.207 -21.066  0.00  0.00    -0.209 OA
ATOM      3  N   UNL     1      33.769 -21.338 -19.552  0.00  0.00    -0.183 N 
ATOM      4  N   UNL     1      35.903 -20.468 -20.220  0.00  0.00    -0.309 NA
ATOM      5  C   UNL     1      34.616 -20.384 -20.150  0.00  0.00    +0.243 C 
ATOM      6  C   UNL     1      35.414 -18.413 -21.301  0.00  0.00    +0.131 C 
ATOM      7  C   UNL     1      35.672 -17.276 -21.946  0.00  0.00    +0.057 C 
ATOM      8  C   UNL     1      36.464 -19.378 -20.866  0.00  0.00    +0.213 C 
ATOM      9  H   UNL     1      32.798 -21.179 -19.591  0.00  0.00    +0.177 HD
ENDROOT
BRANCH   7  11
ATOM     10  O   UNL     1      34.016 -15.561 -21.485  0.00  0.00    -0.458 OA
ATOM     11  C   UNL     1      34.676 -16.334 -22.372  0.00  0.00    +0.146 C 
ATOM     12  C   UNL     1      33.163 -14.801 -22.219  0.00  0.00    +0.123 C 
ATOM     13  C   UNL     1      34.277 -16.097 -23.653  0.00  0.00    +0.040 C 
ATOM     14  C   UNL     1      33.284 -15.093 -23.558  0.00  0.00    +0.036 C 
ATOM     15  C   UNL     1      32.319 -13.862 -21.467  0.00  0.00    +0.072 C 
ENDBRANCH   7  11
BRANCH   3  16
ATOM     16  S   UNL     1      34.315 -22.757 -18.763  0.00  0.00    +0.076 S 
ATOM     17  O   UNL     1      35.643 -22.510 -18.216  0.00  0.00    -0.150 OA
ATOM     18  O   UNL     1      34.105 -23.894 -19.648  0.00  0.00    -0.150 OA
BRANCH  16  19
ATOM     19  C   UNL     1      33.178 -22.887 -17.445  0.00  0.00    +0.125 C 
ATOM     20  C   UNL     1      31.836 -22.562 -17.645  0.00  0.00    +0.020 C 
ATOM     21  C   UNL     1      33.610 -23.317 -16.190  0.00  0.00    +0.020 C 
ATOM     22  C   UNL     1      31.360 -23.097 -15.339  0.00  0.00    -0.022 C 
ATOM     23  C   UNL     1      30.928 -22.668 -16.593  0.00  0.00    -0.003 C 
ATOM     24  C   UNL     1      32.702 -23.423 -15.137  0.00  0.00    -0.003 C 
ATOM     25  C   UNL     1      30.389 -23.210 -14.213  0.00  0.00    +0.031 C 
ENDBRANCH  16  19
ENDBRANCH   3  16
TORSDOF 3
ENDMDL
MODEL 4
REMARK VINA RESULT:     -10.3      4.848     11.046
REMARK  Name = 7297549
REMARK  3 active torsions:
REMARK  status: ('A' for Active; 'I' for Inactive)
REMARK    1  A    between atoms: N_3  and  S_16
REMARK    2  A    between atoms: C_7  and  C_11
REMARK    3  A    between atoms: S_16  and  C_19
REMARK                            x       y       z     vdW  Elec       q    Type
REMARK                         _______ _______ _______ _____ _____    ______ ____
ROOT
ATOM      1  S   UNL     1      33.260 -11.263 -23.439  0.00  0.00    -0.025 S 
ATOM      2  O   UNL     1      30.390 -11.469 -20.938  0.00  0.00    -0.209 OA
ATOM      3  N   UNL     1      32.872  -8.619 -23.709  0.00  0.00    -0.183 N 
ATOM      4  N   UNL     1      31.452  -9.849 -22.216  0.00  0.00    -0.309 NA
ATOM      5  C   UNL     1      32.427  -9.789 -23.062  0.00  0.00    +0.243 C 
ATOM      6  C   UNL     1      32.214 -12.091 -22.356  0.00  0.00    +0.131 C 
ATOM      7  C   UNL     1      32.243 -13.395 -22.082  0.00  0.00    +0.057 C 
ATOM      8  C   UNL     1      31.246 -11.136 -21.746  0.00  0.00    +0.213 C 
ATOM      9  H   UNL     1      33.605  -8.706 -24.361  0.00  0.00    +0.177 HD
ENDROOT
BRANCH   7  11
ATOM     10  O   UNL     1      32.991 -14.815 -23.903  0.00  0.00    -0.458 OA
ATOM     11  C   UNL     1      33.167 -14.331 -22.657  0.00  0.00    +0.146 C 
ATOM     12  C   UNL     1      34.031 -15.661 -24.122  0.00  0.00    +0.123 C 
ATOM     13  C   UNL     1      34.286 -14.837 -22.065  0.00  0.00    +0.040 C 
ATOM     14  C   UNL     1      34.855 -15.710 -23.022  0.00  0.00    +0.036 C 
ATOM     15  C   UNL     1      34.064 -16.324 -25.433  0.00  0.00    +0.072 C 
ENDBRANCH   7  11
BRANCH   3  16
ATOM     16  S   UNL     1      32.224  -7.057 -23.440  0.00  0.00    +0.076 S 
ATOM     17  O   UNL     1      32.739  -6.545 -22.177  0.00  0.00    -0.150 OA
ATOM     18  O   UNL     1      30.784  -7.105 -23.660  0.00  0.00    -0.150 OA
BRANCH  16  19
ATOM     19  C   UNL     1      32.936  -6.149 -24.749  0.00  0.00    +0.125 C 
ATOM     20  C   UNL     1      34.232  -6.438 -25.176  0.00  0.00    +0.020 C 
ATOM     21  C   UNL     1      32.208  -5.132 -25.370  0.00  0.00    +0.020 C 
ATOM     22  C   UNL     1      34.073  -4.698 -26.844  0.00  0.00    -0.022 C 
ATOM     23  C   UNL     1      34.799  -5.713 -26.223  0.00  0.00    -0.003 C 
ATOM     24  C   UNL     1      32.776  -4.407 -26.417  0.00  0.00    -0.003 C 
ATOM     25  C   UNL     1      34.680  -3.922 -27.963  0.00  0.00    +0.031 C 
ENDBRANCH  16  19
ENDBRANCH   3  16
TORSDOF 3
ENDMDL
MODEL 5
REMARK VINA RESULT:      -9.9      2.360      8.906
REMARK  Name = 7297549
REMARK  3 active torsions:
REMARK  status: ('A' for Active; 'I' for Inactive)
REMARK    1  A    between atoms: N_3  and  S_16
REMARK    2  A    between atoms: C_7  and  C_11
REMARK    3  A    between atoms: S_16  and  C_19
REMARK                            x       y       z     vdW  Elec       q    Type
REMARK                         _______ _______ _______ _____ _____    ______ ____
ROOT
ATOM      1  S   UNL     1      34.559 -15.112 -22.972  0.00  0.00    -0.025 S 
ATOM      2  O   UNL     1      33.426 -16.276 -26.422  0.00  0.00    -0.209 OA
ATOM      3  N   UNL     1      34.232 -12.547 -23.699  0.00  0.00    -0.183 N 
ATOM      4  N   UNL     1      33.746 -14.272 -25.296  0.00  0.00    -0.309 NA
ATOM      5  C   UNL     1      34.130 -13.888 -24.124  0.00  0.00    +0.243 C 
ATOM      6  C   UNL     1      34.195 -16.304 -24.156  0.00  0.00    +0.131 C 
ATOM      7  C   UNL     1      34.290 -17.623 -23.994  0.00  0.00    +0.057 C 
ATOM      8  C   UNL     1      33.747 -15.652 -25.419  0.00  0.00    +0.213 C 
ATOM      9  H   UNL     1      34.570 -12.378 -22.790  0.00  0.00    +0.177 HD
ENDROOT
BRANCH   7  11
ATOM     10  O   UNL     1      33.907 -19.115 -22.118  0.00  0.00    -0.458 OA
ATOM     11  C   UNL     1      34.718 -18.270 -22.787  0.00  0.00    +0.146 C 
ATOM     12  C   UNL     1      34.619 -19.538 -21.041  0.00  0.00    +0.123 C 
ATOM     13  C   UNL     1      35.929 -18.134 -22.177  0.00  0.00    +0.040 C 
ATOM     14  C   UNL     1      35.868 -18.963 -21.032  0.00  0.00    +0.036 C 
ATOM     15  C   UNL     1      33.939 -20.482 -20.144  0.00  0.00    +0.072 C 
ENDBRANCH   7  11
BRANCH   3  16
ATOM     16  S   UNL     1      33.808 -11.193 -24.658  0.00  0.00    +0.076 S 
ATOM     17  O   UNL     1      32.640 -11.532 -25.460  0.00  0.00    -0.150 OA
ATOM     18  O   UNL     1      35.008 -10.693 -25.316  0.00  0.00    -0.150 OA
BRANCH  16  19
ATOM     19  C   UNL     1      33.341 -10.032 -23.443  0.00  0.00    +0.125 C 
ATOM     20  C   UNL     1      33.953  -8.779 -23.401  0.00  0.00    +0.020 C 
ATOM     21  C   UNL     1      32.353 -10.356 -22.512  0.00  0.00    +0.020 C 
ATOM     22  C   UNL     1      32.591  -8.175 -21.500  0.00  0.00    -0.022 C 
ATOM     23  C   UNL     1      33.577  -7.851 -22.431  0.00  0.00    -0.003 C 
ATOM     24  C   UNL     1      31.978  -9.428 -21.541  0.00  0.00    -0.003 C 
ATOM     25  C   UNL     1      32.189  -7.183 -20.462  0.00  0.00    +0.031 C 
ENDBRANCH  16  19
ENDBRANCH   3  16
TORSDOF 3
ENDMDL
MODEL 6
REMARK VINA RESULT:      -9.8      1.423      1.976
REMARK  Name = 7297549
REMARK  3 active torsions:
REMARK  status: ('A' for Active; 'I' for Inactive)
REMARK    1  A    between atoms: N_3  and  S_16
REMARK    2  A    between atoms: C_7  and  C_11
REMARK    3  A    between atoms: S_16  and  C_19
REMARK                            x       y       z     vdW  Elec       q    Type
REMARK                         _______ _______ _______ _____ _____    ______ ____
ROOT
ATOM      1  S   UNL     1      33.757 -15.645 -21.416  0.00  0.00    -0.025 S 
ATOM      2  O   UNL     1      34.651 -15.849 -25.117  0.00  0.00    -0.209 OA
ATOM      3  N   UNL     1      34.886 -18.043 -20.983  0.00  0.00    -0.183 N 
ATOM      4  N   UNL     1      34.901 -17.144 -23.207  0.00  0.00    -0.309 NA
ATOM      5  C   UNL     1      34.596 -17.065 -21.955  0.00  0.00    +0.243 C 
ATOM      6  C   UNL     1      33.799 -15.051 -23.028  0.00  0.00    +0.131 C 
ATOM      7  C   UNL     1      33.298 -13.889 -23.448  0.00  0.00    +0.057 C 
ATOM      8  C   UNL     1      34.486 -16.030 -23.918  0.00  0.00    +0.213 C 
ATOM      9  H   UNL     1      34.571 -17.885 -20.063  0.00  0.00    +0.177 HD
ENDROOT
BRANCH   7  11
ATOM     10  O   UNL     1      32.334 -11.697 -23.054  0.00  0.00    -0.458 OA
ATOM     11  C   UNL     1      32.634 -12.934 -22.608  0.00  0.00    +0.146 C 
ATOM     12  C   UNL     1      31.722 -11.068 -22.017  0.00  0.00    +0.123 C 
ATOM     13  C   UNL     1      32.235 -13.123 -21.319  0.00  0.00    +0.040 C 
ATOM     14  C   UNL     1      31.637 -11.903 -20.927  0.00  0.00    +0.036 C 
ATOM     15  C   UNL     1      31.293  -9.683 -22.260  0.00  0.00    +0.072 C 
ENDBRANCH   7  11
BRANCH   3  16
ATOM     16  S   UNL     1      35.749 -19.490 -21.292  0.00  0.00    +0.076 S 
ATOM     17  O   UNL     1      37.141 -19.299 -20.905  0.00  0.00    -0.150 OA
ATOM     18  O   UNL     1      35.437 -19.940 -22.642  0.00  0.00    -0.150 OA
BRANCH  16  19
ATOM     19  C   UNL     1      34.998 -20.596 -20.171  0.00  0.00    +0.125 C 
ATOM     20  C   UNL     1      35.771 -21.247 -19.208  0.00  0.00    +0.020 C 
ATOM     21  C   UNL     1      33.625 -20.831 -20.236  0.00  0.00    +0.020 C 
ATOM     22  C   UNL     1      33.797 -22.364 -18.377  0.00  0.00    -0.022 C 
ATOM     23  C   UNL     1      35.170 -22.129 -18.312  0.00  0.00    -0.003 C 
ATOM     24  C   UNL     1      33.024 -21.713 -19.340  0.00  0.00    -0.003 C 
ATOM     25  C   UNL     1      33.155 -23.308 -17.419  0.00  0.00    +0.031 C 
ENDBRANCH  16  19
ENDBRANCH   3  16
TORSDOF 3
ENDMDL
MODEL 7
REMARK VINA RESULT:      -9.8      3.721      6.071
REMARK  Name = 7297549
REMARK  3 active torsions:
REMARK  status: ('A' for Active; 'I' for Inactive)
REMARK    1  A    between atoms: N_3  and  S_16
REMARK    2  A    between atoms: C_7  and  C_11
REMARK    3  A    between atoms: S_16  and  C_19
REMARK                            x       y       z     vdW  Elec       q    Type
REMARK                         _______ _______ _______ _____ _____    ______ ____
ROOT
ATOM      1  S   UNL     1      33.925 -19.222 -21.018  0.00  0.00    -0.025 S 
ATOM      2  O   UNL     1      37.727 -19.455 -20.860  0.00  0.00    -0.209 OA
ATOM      3  N   UNL     1      33.699 -21.518 -19.642  0.00  0.00    -0.183 N 
ATOM      4  N   UNL     1      35.892 -20.678 -20.137  0.00  0.00    -0.309 NA
ATOM      5  C   UNL     1      34.605 -20.589 -20.194  0.00  0.00    +0.243 C 
ATOM      6  C   UNL     1      35.519 -18.669 -21.342  0.00  0.00    +0.131 C 
ATOM      7  C   UNL     1      35.843 -17.559 -22.006  0.00  0.00    +0.057 C 
ATOM      8  C   UNL     1      36.518 -19.616 -20.770  0.00  0.00    +0.213 C 
ATOM      9  H   UNL     1      32.737 -21.359 -19.781  0.00  0.00    +0.177 HD
ENDROOT
BRANCH   7  11
ATOM     10  O   UNL     1      34.636 -16.611 -23.886  0.00  0.00    -0.458 OA
ATOM     11  C   UNL     1      34.899 -16.634 -22.563  0.00  0.00    +0.146 C 
ATOM     12  C   UNL     1      33.712 -15.631 -24.063  0.00  0.00    +0.123 C 
ATOM     13  C   UNL     1      34.175 -15.701 -21.882  0.00  0.00    +0.040 C 
ATOM     14  C   UNL     1      33.396 -15.041 -22.861  0.00  0.00    +0.036 C 
ATOM     15  C   UNL     1      33.257 -15.409 -25.443  0.00  0.00    +0.072 C 
ENDBRANCH   7  11
BRANCH   3  16
ATOM     16  S   UNL     1      34.159 -22.903 -18.747  0.00  0.00    +0.076 S 
ATOM     17  O   UNL     1      35.472 -22.669 -18.159  0.00  0.00    -0.150 OA
ATOM     18  O   UNL     1      33.944 -24.085 -19.572  0.00  0.00    -0.150 OA
BRANCH  16  19
ATOM     19  C   UNL     1      32.965 -22.914 -17.475  0.00  0.00    +0.125 C 
ATOM     20  C   UNL     1      31.637 -22.596 -17.760  0.00  0.00    +0.020 C 
ATOM     21  C   UNL     1      33.337 -23.241 -16.171  0.00  0.00    +0.020 C 
ATOM     22  C   UNL     1      31.055 -22.933 -15.440  0.00  0.00    -0.022 C 
ATOM     23  C   UNL     1      30.682 -22.606 -16.743  0.00  0.00    -0.003 C 
ATOM     24  C   UNL     1      32.383 -23.252 -15.154  0.00  0.00    -0.003 C 
ATOM     25  C   UNL     1      30.035 -22.944 -14.353  0.00  0.00    +0.031 C 
ENDBRANCH  16  19
ENDBRANCH   3  16
TORSDOF 3
ENDMDL
MODEL 8
REMARK VINA RESULT:      -9.8      2.145      8.762
REMARK  Name = 7297549
REMARK  3 active torsions:
REMARK  status: ('A' for Active; 'I' for Inactive)
REMARK    1  A    between atoms: N_3  and  S_16
REMARK    2  A    between atoms: C_7  and  C_11
REMARK    3  A    between atoms: S_16  and  C_19
REMARK                            x       y       z     vdW  Elec       q    Type
REMARK                         _______ _______ _______ _____ _____    ______ ____
ROOT
ATOM      1  S   UNL     1      34.147 -19.477 -20.732  0.00  0.00    -0.025 S 
ATOM      2  O   UNL     1      37.933 -19.260 -21.117  0.00  0.00    -0.209 OA
ATOM      3  N   UNL     1      33.833 -17.345 -22.335  0.00  0.00    -0.183 N 
ATOM      4  N   UNL     1      36.054 -18.125 -21.870  0.00  0.00    -0.309 NA
ATOM      5  C   UNL     1      34.773 -18.207 -21.735  0.00  0.00    +0.243 C 
ATOM      6  C   UNL     1      35.759 -19.991 -20.435  0.00  0.00    +0.131 C 
ATOM      7  C   UNL     1      36.125 -21.021 -19.673  0.00  0.00    +0.057 C 
ATOM      8  C   UNL     1      36.720 -19.111 -21.160  0.00  0.00    +0.213 C 
ATOM      9  H   UNL     1      32.881 -17.488 -22.129  0.00  0.00    +0.177 HD
ENDROOT
BRANCH   7  11
ATOM     10  O   UNL     1      35.464 -22.274 -17.702  0.00  0.00    -0.458 OA
ATOM     11  C   UNL     1      35.217 -21.881 -18.969  0.00  0.00    +0.146 C 
ATOM     12  C   UNL     1      34.418 -23.067 -17.351  0.00  0.00    +0.123 C 
ATOM     13  C   UNL     1      34.048 -22.394 -19.445  0.00  0.00    +0.040 C 
ATOM     14  C   UNL     1      33.521 -23.173 -18.388  0.00  0.00    +0.036 C 
ATOM     15  C   UNL     1      34.456 -23.627 -15.993  0.00  0.00    +0.072 C 
ENDBRANCH   7  11
BRANCH   3  16
ATOM     16  S   UNL     1      34.236 -16.065 -23.399  0.00  0.00    +0.076 S 
ATOM     17  O   UNL     1      33.671 -16.349 -24.713  0.00  0.00    -0.150 OA
ATOM     18  O   UNL     1      35.661 -15.787 -23.277  0.00  0.00    -0.150 OA
BRANCH  16  19
ATOM     19  C   UNL     1      33.367 -14.729 -22.689  0.00  0.00    +0.125 C 
ATOM     20  C   UNL     1      33.093 -14.721 -21.321  0.00  0.00    +0.020 C 
ATOM     21  C   UNL     1      32.945 -13.667 -23.490  0.00  0.00    +0.020 C 
ATOM     22  C   UNL     1      31.979 -12.591 -21.554  0.00  0.00    -0.022 C 
ATOM     23  C   UNL     1      32.400 -13.652 -20.754  0.00  0.00    -0.003 C 
ATOM     24  C   UNL     1      32.252 -12.598 -22.923  0.00  0.00    -0.003 C 
ATOM     25  C   UNL     1      31.237 -11.448 -20.948  0.00  0.00    +0.031 C 
ENDBRANCH  16  19
ENDBRANCH   3  16
TORSDOF 3
ENDMDL
MODEL 9
REMARK VINA RESULT:      -9.7      5.805     10.267
REMARK  Name = 7297549
REMARK  3 active torsions:
REMARK  status: ('A' for Active; 'I' for Inactive)
REMARK    1  A    between atoms: N_3  and  S_16
REMARK    2  A    between atoms: C_7  and  C_11
REMARK    3  A    between atoms: S_16  and  C_19
REMARK                            x       y       z     vdW  Elec       q    Type
REMARK                         _______ _______ _______ _____ _____    ______ ____
ROOT
ATOM      1  S   UNL     1      32.600 -22.853 -17.349  0.00  0.00    -0.025 S 
ATOM      2  O   UNL     1      35.287 -23.826 -14.825  0.00  0.00    -0.209 OA
ATOM      3  N   UNL     1      34.463 -21.792 -18.966  0.00  0.00    -0.183 N 
ATOM      4  N   UNL     1      35.159 -22.775 -16.891  0.00  0.00    -0.309 NA
ATOM      5  C   UNL     1      34.242 -22.451 -17.740  0.00  0.00    +0.243 C 
ATOM      6  C   UNL     1      33.156 -23.543 -15.877  0.00  0.00    +0.131 C 
ATOM      7  C   UNL     1      32.396 -24.118 -14.944  0.00  0.00    +0.057 C 
ATOM      8  C   UNL     1      34.638 -23.414 -15.777  0.00  0.00    +0.213 C 
ATOM      9  H   UNL     1      33.677 -21.567 -19.515  0.00  0.00    +0.177 HD
ENDROOT
BRANCH   7  11
ATOM     10  O   UNL     1      30.189 -23.232 -15.428  0.00  0.00    -0.458 OA
ATOM     11  C   UNL     1      30.970 -24.253 -15.022  0.00  0.00    +0.146 C 
ATOM     12  C   UNL     1      28.914 -23.699 -15.381  0.00  0.00    +0.123 C 
ATOM     13  C   UNL     1      30.241 -25.363 -14.714  0.00  0.00    +0.040 C 
ATOM     14  C   UNL     1      28.893 -25.004 -14.947  0.00  0.00    +0.036 C 
ATOM     15  C   UNL     1      27.862 -22.756 -15.785  0.00  0.00    +0.072 C 
ENDBRANCH   7  11
BRANCH   3  16
ATOM     16  S   UNL     1      36.007 -21.355 -19.565  0.00  0.00    +0.076 S 
ATOM     17  O   UNL     1      36.535 -22.460 -20.356  0.00  0.00    -0.150 OA
ATOM     18  O   UNL     1      36.799 -20.818 -18.467  0.00  0.00    -0.150 OA
BRANCH  16  19
ATOM     19  C   UNL     1      35.610 -20.035 -20.635  0.00  0.00    +0.125 C 
ATOM     20  C   UNL     1      36.622 -19.218 -21.142  0.00  0.00    +0.020 C 
ATOM     21  C   UNL     1      34.281 -19.795 -20.985  0.00  0.00    +0.020 C 
ATOM     22  C   UNL     1      34.976 -17.925 -22.348  0.00  0.00    -0.022 C 
ATOM     23  C   UNL     1      36.304 -18.165 -21.999  0.00  0.00    -0.003 C 
ATOM     24  C   UNL     1      33.964 -18.742 -21.841  0.00  0.00    -0.003 C 
ATOM     25  C   UNL     1      34.636 -16.798 -23.263  0.00  0.00    +0.031 C 
ENDBRANCH  16  19
ENDBRANCH   3  16
TORSDOF 3
ENDMDL
