MODEL 1
REMARK VINA RESULT:      -7.6      0.000      0.000
REMARK  Name = 444721
REMARK  8 active torsions:
REMARK  status: ('A' for Active; 'I' for Inactive)
REMARK    1  A    between atoms: C_1  and  S_2
REMARK    2  A    between atoms: C_1  and  C_11
REMARK    3  A    between atoms: S_2  and  C_3
REMARK    4  A    between atoms: C_4  and  O_9
REMARK    5  A    between atoms: C_11  and  C_12
REMARK    6  A    between atoms: C_13  and  P_14
REMARK    7  A    between atoms: P_14  and  O_16
REMARK    8  A    between atoms: P_14  and  O_18
REMARK                            x       y       z     vdW  Elec       q    Type
REMARK                         _______ _______ _______ _____ _____    ______ ____
ROOT
ATOM      1  C   UNL     1      34.460 -19.455 -22.024  0.00  0.00    +0.067 C 
ENDROOT
BRANCH   1   2
ATOM      2  S   UNL     1      35.847 -18.371 -21.574  0.00  0.00    -0.110 S 
BRANCH   2   3
ATOM      3  C   UNL     1      35.143 -16.753 -21.875  0.00  0.00    +0.059 C 
ATOM      4  C   UNL     1      35.031 -16.242 -23.167  0.00  0.00    +0.139 C 
ATOM      5  C   UNL     1      34.703 -16.004 -20.786  0.00  0.00    +0.009 C 
ATOM      6  C   UNL     1      34.479 -14.977 -23.369  0.00  0.00    +0.037 C 
ATOM      7  C   UNL     1      34.150 -14.739 -20.987  0.00  0.00    +0.001 C 
ATOM      8  C   UNL     1      34.039 -14.225 -22.279  0.00  0.00    +0.003 C 
BRANCH   4   9
ATOM      9  O   UNL     1      35.450 -16.949 -24.256  0.00  0.00    -0.505 OA
ATOM     10  H   UNL     1      35.430 -16.554 -25.105  0.00  0.00    +0.292 HD
ENDBRANCH   4   9
ENDBRANCH   2   3
ENDBRANCH   1   2
BRANCH   1  11
ATOM     11  C   UNL     1      33.332 -19.337 -21.002  0.00  0.00    +0.038 C 
BRANCH  11  12
ATOM     12  C   UNL     1      33.152 -20.628 -20.255  0.00  0.00    -0.018 C 
ATOM     13  C   UNL     1      34.147 -21.289 -19.648  0.00  0.00    +0.083 C 
BRANCH  13  14
ATOM     14  P   UNL     1      33.873 -22.789 -18.799  0.00  0.00    +0.359 P 
ATOM     15  O   UNL     1      33.937 -24.119 -19.504  0.00  0.00    -0.253 OA
BRANCH  14  16
ATOM     16  O   UNL     1      32.446 -22.579 -18.049  0.00  0.00    -0.321 OA
ATOM     17  H   UNL     1      31.950 -23.412 -18.059  0.00  0.00    +0.220 HD
ENDBRANCH  14  16
BRANCH  14  18
ATOM     18  O   UNL     1      34.891 -22.724 -17.533  0.00  0.00    -0.321 OA
ATOM     19  H   UNL     1      35.788 -22.540 -17.850  0.00  0.00    +0.220 HD
ENDBRANCH  14  18
ENDBRANCH  13  14
ENDBRANCH  11  12
ENDBRANCH   1  11
TORSDOF 8
ENDMDL
MODEL 2
REMARK VINA RESULT:      -7.6      1.194      2.037
REMARK  Name = 444721
REMARK  8 active torsions:
REMARK  status: ('A' for Active; 'I' for Inactive)
REMARK    1  A    between atoms: C_1  and  S_2
REMARK    2  A    between atoms: C_1  and  C_11
REMARK    3  A    between atoms: S_2  and  C_3
REMARK    4  A    between atoms: C_4  and  O_9
REMARK    5  A    between atoms: C_11  and  C_12
REMARK    6  A    between atoms: C_13  and  P_14
REMARK    7  A    between atoms: P_14  and  O_16
REMARK    8  A    between atoms: P_14  and  O_18
REMARK                            x       y       z     vdW  Elec       q    Type
REMARK                         _______ _______ _______ _____ _____    ______ ____
ROOT
ATOM      1  C   UNL     1      34.621 -19.542 -21.856  0.00  0.00    +0.067 C 
ENDROOT
BRANCH   1   2
ATOM      2  S   UNL     1      35.780 -18.224 -21.389  0.00  0.00    -0.110 S 
BRANCH   2   3
ATOM      3  C   UNL     1      35.055 -16.808 -22.208  0.00  0.00    +0.059 C 
ATOM      4  C   UNL     1      34.713 -15.658 -21.499  0.00  0.00    +0.139 C 
ATOM      5  C   UNL     1      34.835 -16.874 -23.583  0.00  0.00    +0.009 C 
ATOM      6  C   UNL     1      34.149 -14.571 -22.166  0.00  0.00    +0.037 C 
ATOM      7  C   UNL     1      34.270 -15.787 -24.251  0.00  0.00    +0.001 C 
ATOM      8  C   UNL     1      33.927 -14.635 -23.542  0.00  0.00    +0.003 C 
BRANCH   4   9
ATOM      9  O   UNL     1      34.917 -15.559 -20.154  0.00  0.00    -0.505 OA
ATOM     10  H   UNL     1      35.790 -15.543 -19.814  0.00  0.00    +0.292 HD
ENDBRANCH   4   9
ENDBRANCH   2   3
ENDBRANCH   1   2
BRANCH   1  11
ATOM     11  C   UNL     1      33.324 -19.424 -21.061  0.00  0.00    +0.038 C 
BRANCH  11  12
ATOM     12  C   UNL     1      33.177 -20.576 -20.107  0.00  0.00    -0.018 C 
ATOM     13  C   UNL     1      34.198 -21.326 -19.673  0.00  0.00    +0.083 C 
BRANCH  13  14
ATOM     14  P   UNL     1      33.961 -22.656 -18.567  0.00  0.00    +0.359 P 
ATOM     15  O   UNL     1      34.855 -22.859 -17.372  0.00  0.00    -0.253 OA
BRANCH  14  16
ATOM     16  O   UNL     1      33.925 -23.975 -19.516  0.00  0.00    -0.321 OA
ATOM     17  H   UNL     1      33.974 -24.772 -18.965  0.00  0.00    +0.220 HD
ENDBRANCH  14  16
BRANCH  14  18
ATOM     18  O   UNL     1      32.396 -22.548 -18.142  0.00  0.00    -0.321 OA
ATOM     19  H   UNL     1      32.026 -21.718 -18.482  0.00  0.00    +0.220 HD
ENDBRANCH  14  18
ENDBRANCH  13  14
ENDBRANCH  11  12
ENDBRANCH   1  11
TORSDOF 8
ENDMDL
MODEL 3
REMARK VINA RESULT:      -7.3      6.012      8.546
REMARK  Name = 444721
REMARK  8 active torsions:
REMARK  status: ('A' for Active; 'I' for Inactive)
REMARK    1  A    between atoms: C_1  and  S_2
REMARK    2  A    between atoms: C_1  and  C_11
REMARK    3  A    between atoms: S_2  and  C_3
REMARK    4  A    between atoms: C_4  and  O_9
REMARK    5  A    between atoms: C_11  and  C_12
REMARK    6  A    between atoms: C_13  and  P_14
REMARK    7  A    between atoms: P_14  and  O_16
REMARK    8  A    between atoms: P_14  and  O_18
REMARK                            x       y       z     vdW  Elec       q    Type
REMARK                         _______ _______ _______ _____ _____    ______ ____
ROOT
ATOM      1  C   UNL     1      35.516 -25.009 -15.040  0.00  0.00    +0.067 C 
ENDROOT
BRANCH   1   2
ATOM      2  S   UNL     1      34.335 -23.643 -15.248  0.00  0.00    -0.110 S 
BRANCH   2   3
ATOM      3  C   UNL     1      34.972 -22.846 -16.718  0.00  0.00    +0.059 C 
ATOM      4  C   UNL     1      34.199 -22.732 -17.872  0.00  0.00    +0.139 C 
ATOM      5  C   UNL     1      36.269 -22.336 -16.692  0.00  0.00    +0.009 C 
ATOM      6  C   UNL     1      34.723 -22.107 -19.002  0.00  0.00    +0.037 C 
ATOM      7  C   UNL     1      36.794 -21.710 -17.822  0.00  0.00    +0.001 C 
ATOM      8  C   UNL     1      36.022 -21.595 -18.978  0.00  0.00    +0.003 C 
BRANCH   4   9
ATOM      9  O   UNL     1      32.925 -23.219 -17.931  0.00  0.00    -0.505 OA
ATOM     10  H   UNL     1      32.437 -23.348 -17.142  0.00  0.00    +0.292 HD
ENDBRANCH   4   9
ENDBRANCH   2   3
ENDBRANCH   1   2
BRANCH   1  11
ATOM     11  C   UNL     1      36.492 -24.707 -13.907  0.00  0.00    +0.038 C 
BRANCH  11  12
ATOM     12  C   UNL     1      37.913 -24.850 -14.375  0.00  0.00    -0.018 C 
ATOM     13  C   UNL     1      38.753 -25.799 -13.943  0.00  0.00    +0.083 C 
BRANCH  13  14
ATOM     14  P   UNL     1      40.397 -25.908 -14.523  0.00  0.00    +0.359 P 
ATOM     15  O   UNL     1      41.325 -27.002 -14.065  0.00  0.00    -0.253 OA
BRANCH  14  16
ATOM     16  O   UNL     1      41.026 -24.435 -14.244  0.00  0.00    -0.321 OA
ATOM     17  H   UNL     1      40.474 -23.762 -14.671  0.00  0.00    +0.220 HD
ENDBRANCH  14  16
BRANCH  14  18
ATOM     18  O   UNL     1      40.253 -25.873 -16.141  0.00  0.00    -0.321 OA
ATOM     19  H   UNL     1      41.094 -25.591 -16.534  0.00  0.00    +0.220 HD
ENDBRANCH  14  18
ENDBRANCH  13  14
ENDBRANCH  11  12
ENDBRANCH   1  11
TORSDOF 8
ENDMDL
MODEL 4
REMARK VINA RESULT:      -7.3      1.786      2.789
REMARK  Name = 444721
REMARK  8 active torsions:
REMARK  status: ('A' for Active; 'I' for Inactive)
REMARK    1  A    between atoms: C_1  and  S_2
REMARK    2  A    between atoms: C_1  and  C_11
REMARK    3  A    between atoms: S_2  and  C_3
REMARK    4  A    between atoms: C_4  and  O_9
REMARK    5  A    between atoms: C_11  and  C_12
REMARK    6  A    between atoms: C_13  and  P_14
REMARK    7  A    between atoms: P_14  and  O_16
REMARK    8  A    between atoms: P_14  and  O_18
REMARK                            x       y       z     vdW  Elec       q    Type
REMARK                         _______ _______ _______ _____ _____    ______ ____
ROOT
ATOM      1  C   UNL     1      36.514 -19.171 -20.837  0.00  0.00    +0.067 C 
ENDROOT
BRANCH   1   2
ATOM      2  S   UNL     1      34.731 -19.039 -21.161  0.00  0.00    -0.110 S 
BRANCH   2   3
ATOM      3  C   UNL     1      34.718 -18.134 -22.704  0.00  0.00    +0.059 C 
ATOM      4  C   UNL     1      34.828 -16.745 -22.729  0.00  0.00    +0.139 C 
ATOM      5  C   UNL     1      34.595 -18.848 -23.895  0.00  0.00    +0.009 C 
ATOM      6  C   UNL     1      34.814 -16.067 -23.948  0.00  0.00    +0.037 C 
ATOM      7  C   UNL     1      34.581 -18.171 -25.115  0.00  0.00    +0.001 C 
ATOM      8  C   UNL     1      34.690 -16.780 -25.142  0.00  0.00    +0.003 C 
BRANCH   4   9
ATOM      9  O   UNL     1      34.953 -16.016 -21.583  0.00  0.00    -0.505 OA
ATOM     10  H   UNL     1      35.185 -15.109 -21.629  0.00  0.00    +0.292 HD
ENDBRANCH   4   9
ENDBRANCH   2   3
ENDBRANCH   1   2
BRANCH   1  11
ATOM     11  C   UNL     1      36.832 -20.472 -20.105  0.00  0.00    +0.038 C 
BRANCH  11  12
ATOM     12  C   UNL     1      35.581 -21.268 -19.864  0.00  0.00    -0.018 C 
ATOM     13  C   UNL     1      35.314 -21.920 -18.724  0.00  0.00    +0.083 C 
BRANCH  13  14
ATOM     14  P   UNL     1      33.842 -22.833 -18.508  0.00  0.00    +0.359 P 
ATOM     15  O   UNL     1      32.489 -22.172 -18.544  0.00  0.00    -0.253 OA
BRANCH  14  16
ATOM     16  O   UNL     1      34.069 -23.651 -17.122  0.00  0.00    -0.321 OA
ATOM     17  H   UNL     1      33.821 -24.580 -17.250  0.00  0.00    +0.220 HD
ENDBRANCH  14  16
BRANCH  14  18
ATOM     18  O   UNL     1      33.956 -24.039 -19.592  0.00  0.00    -0.321 OA
ATOM     19  H   UNL     1      33.072 -24.393 -19.775  0.00  0.00    +0.220 HD
ENDBRANCH  14  18
ENDBRANCH  13  14
ENDBRANCH  11  12
ENDBRANCH   1  11
TORSDOF 8
ENDMDL
MODEL 5
REMARK VINA RESULT:      -7.3      4.218      6.233
REMARK  Name = 444721
REMARK  8 active torsions:
REMARK  status: ('A' for Active; 'I' for Inactive)
REMARK    1  A    between atoms: C_1  and  S_2
REMARK    2  A    between atoms: C_1  and  C_11
REMARK    3  A    between atoms: S_2  and  C_3
REMARK    4  A    between atoms: C_4  and  O_9
REMARK    5  A    between atoms: C_11  and  C_12
REMARK    6  A    between atoms: C_13  and  P_14
REMARK    7  A    between atoms: P_14  and  O_16
REMARK    8  A    between atoms: P_14  and  O_18
REMARK                            x       y       z     vdW  Elec       q    Type
REMARK                         _______ _______ _______ _____ _____    ______ ____
ROOT
ATOM      1  C   UNL     1      36.917 -21.880 -17.349  0.00  0.00    +0.067 C 
ENDROOT
BRANCH   1   2
ATOM      2  S   UNL     1      35.307 -22.570 -17.833  0.00  0.00    -0.110 S 
BRANCH   2   3
ATOM      3  C   UNL     1      34.835 -21.470 -19.163  0.00  0.00    +0.059 C 
ATOM      4  C   UNL     1      33.497 -21.274 -19.499  0.00  0.00    +0.139 C 
ATOM      5  C   UNL     1      35.838 -20.805 -19.866  0.00  0.00    +0.009 C 
ATOM      6  C   UNL     1      33.161 -20.411 -20.542  0.00  0.00    +0.037 C 
ATOM      7  C   UNL     1      35.503 -19.942 -20.909  0.00  0.00    +0.001 C 
ATOM      8  C   UNL     1      34.164 -19.744 -21.247  0.00  0.00    +0.003 C 
BRANCH   4   9
ATOM      9  O   UNL     1      32.490 -21.907 -18.831  0.00  0.00    -0.505 OA
ATOM     10  H   UNL     1      32.594 -22.799 -18.566  0.00  0.00    +0.292 HD
ENDBRANCH   4   9
ENDBRANCH   2   3
ENDBRANCH   1   2
BRANCH   1  11
ATOM     11  C   UNL     1      37.219 -22.196 -15.887  0.00  0.00    +0.038 C 
BRANCH  11  12
ATOM     12  C   UNL     1      36.860 -23.618 -15.564  0.00  0.00    -0.018 C 
ATOM     13  C   UNL     1      37.615 -24.431 -14.813  0.00  0.00    +0.083 C 
BRANCH  13  14
ATOM     14  P   UNL     1      37.144 -26.078 -14.478  0.00  0.00    +0.359 P 
ATOM     15  O   UNL     1      38.134 -27.211 -14.538  0.00  0.00    -0.253 OA
BRANCH  14  16
ATOM     16  O   UNL     1      35.872 -26.345 -15.455  0.00  0.00    -0.321 OA
ATOM     17  H   UNL     1      35.307 -27.034 -15.070  0.00  0.00    +0.220 HD
ENDBRANCH  14  16
BRANCH  14  18
ATOM     18  O   UNL     1      36.403 -25.996 -13.034  0.00  0.00    -0.321 OA
ATOM     19  H   UNL     1      36.553 -26.821 -12.547  0.00  0.00    +0.220 HD
ENDBRANCH  14  18
ENDBRANCH  13  14
ENDBRANCH  11  12
ENDBRANCH   1  11
TORSDOF 8
ENDMDL
MODEL 6
REMARK VINA RESULT:      -7.3      3.701      7.023
REMARK  Name = 444721
REMARK  8 active torsions:
REMARK  status: ('A' for Active; 'I' for Inactive)
REMARK    1  A    between atoms: C_1  and  S_2
REMARK    2  A    between atoms: C_1  and  C_11
REMARK    3  A    between atoms: S_2  and  C_3
REMARK    4  A    between atoms: C_4  and  O_9
REMARK    5  A    between atoms: C_11  and  C_12
REMARK    6  A    between atoms: C_13  and  P_14
REMARK    7  A    between atoms: P_14  and  O_16
REMARK    8  A    between atoms: P_14  and  O_18
REMARK                            x       y       z     vdW  Elec       q    Type
REMARK                         _______ _______ _______ _____ _____    ______ ____
ROOT
ATOM      1  C   UNL     1      35.113 -18.895 -23.893  0.00  0.00    +0.067 C 
ENDROOT
BRANCH   1   2
ATOM      2  S   UNL     1      35.700 -18.347 -22.263  0.00  0.00    -0.110 S 
BRANCH   2   3
ATOM      3  C   UNL     1      34.889 -19.520 -21.182  0.00  0.00    +0.059 C 
ATOM      4  C   UNL     1      35.623 -20.391 -20.379  0.00  0.00    +0.139 C 
ATOM      5  C   UNL     1      33.496 -19.550 -21.156  0.00  0.00    +0.009 C 
ATOM      6  C   UNL     1      34.962 -21.295 -19.548  0.00  0.00    +0.037 C 
ATOM      7  C   UNL     1      32.834 -20.454 -20.324  0.00  0.00    +0.001 C 
ATOM      8  C   UNL     1      33.567 -21.327 -19.520  0.00  0.00    +0.003 C 
BRANCH   4   9
ATOM      9  O   UNL     1      36.987 -20.386 -20.379  0.00  0.00    -0.505 OA
ATOM     10  H   UNL     1      37.457 -21.139 -20.679  0.00  0.00    +0.292 HD
ENDBRANCH   4   9
ENDBRANCH   2   3
ENDBRANCH   1   2
BRANCH   1  11
ATOM     11  C   UNL     1      34.706 -17.698 -24.748  0.00  0.00    +0.038 C 
BRANCH  11  12
ATOM     12  C   UNL     1      34.473 -16.486 -23.892  0.00  0.00    -0.018 C 
ATOM     13  C   UNL     1      33.881 -15.365 -24.324  0.00  0.00    +0.083 C 
BRANCH  13  14
ATOM     14  P   UNL     1      33.643 -13.986 -23.279  0.00  0.00    +0.359 P 
ATOM     15  O   UNL     1      32.309 -13.699 -22.642  0.00  0.00    -0.253 OA
BRANCH  14  16
ATOM     16  O   UNL     1      34.174 -12.719 -24.149  0.00  0.00    -0.321 OA
ATOM     17  H   UNL     1      35.096 -12.529 -23.915  0.00  0.00    +0.220 HD
ENDBRANCH  14  16
BRANCH  14  18
ATOM     18  O   UNL     1      34.829 -14.112 -22.175  0.00  0.00    -0.321 OA
ATOM     19  H   UNL     1      35.676 -13.875 -22.584  0.00  0.00    +0.220 HD
ENDBRANCH  14  18
ENDBRANCH  13  14
ENDBRANCH  11  12
ENDBRANCH   1  11
TORSDOF 8
ENDMDL
MODEL 7
REMARK VINA RESULT:      -7.3      4.133      5.863
REMARK  Name = 444721
REMARK  8 active torsions:
REMARK  status: ('A' for Active; 'I' for Inactive)
REMARK    1  A    between atoms: C_1  and  S_2
REMARK    2  A    between atoms: C_1  and  C_11
REMARK    3  A    between atoms: S_2  and  C_3
REMARK    4  A    between atoms: C_4  and  O_9
REMARK    5  A    between atoms: C_11  and  C_12
REMARK    6  A    between atoms: C_13  and  P_14
REMARK    7  A    between atoms: P_14  and  O_16
REMARK    8  A    between atoms: P_14  and  O_18
REMARK                            x       y       z     vdW  Elec       q    Type
REMARK                         _______ _______ _______ _____ _____    ______ ____
ROOT
ATOM      1  C   UNL     1      32.910 -23.091 -17.675  0.00  0.00    +0.067 C 
ENDROOT
BRANCH   1   2
ATOM      2  S   UNL     1      34.622 -22.623 -18.065  0.00  0.00    -0.110 S 
BRANCH   2   3
ATOM      3  C   UNL     1      34.372 -21.413 -19.358  0.00  0.00    +0.059 C 
ATOM      4  C   UNL     1      35.445 -20.889 -20.078  0.00  0.00    +0.139 C 
ATOM      5  C   UNL     1      33.072 -20.996 -19.640  0.00  0.00    +0.009 C 
ATOM      6  C   UNL     1      35.218 -19.947 -21.079  0.00  0.00    +0.037 C 
ATOM      7  C   UNL     1      32.843 -20.053 -20.642  0.00  0.00    +0.001 C 
ATOM      8  C   UNL     1      33.917 -19.528 -21.362  0.00  0.00    +0.003 C 
BRANCH   4   9
ATOM      9  O   UNL     1      36.729 -21.277 -19.830  0.00  0.00    -0.505 OA
ATOM     10  H   UNL     1      37.131 -21.066 -19.011  0.00  0.00    +0.292 HD
ENDBRANCH   4   9
ENDBRANCH   2   3
ENDBRANCH   1   2
BRANCH   1  11
ATOM     11  C   UNL     1      32.698 -23.142 -16.164  0.00  0.00    +0.038 C 
BRANCH  11  12
ATOM     12  C   UNL     1      31.240 -23.301 -15.836  0.00  0.00    -0.018 C 
ATOM     13  C   UNL     1      30.243 -22.891 -16.630  0.00  0.00    +0.083 C 
BRANCH  13  14
ATOM     14  P   UNL     1      28.567 -23.101 -16.188  0.00  0.00    +0.359 P 
ATOM     15  O   UNL     1      27.750 -21.967 -15.627  0.00  0.00    -0.253 OA
BRANCH  14  16
ATOM     16  O   UNL     1      28.566 -24.386 -15.192  0.00  0.00    -0.321 OA
ATOM     17  H   UNL     1      29.446 -24.794 -15.190  0.00  0.00    +0.220 HD
ENDBRANCH  14  16
BRANCH  14  18
ATOM     18  O   UNL     1      27.881 -23.746 -17.513  0.00  0.00    -0.321 OA
ATOM     19  H   UNL     1      26.918 -23.770 -17.399  0.00  0.00    +0.220 HD
ENDBRANCH  14  18
ENDBRANCH  13  14
ENDBRANCH  11  12
ENDBRANCH   1  11
TORSDOF 8
ENDMDL
MODEL 8
REMARK VINA RESULT:      -7.2      8.028      9.921
REMARK  Name = 444721
REMARK  8 active torsions:
REMARK  status: ('A' for Active; 'I' for Inactive)
REMARK    1  A    between atoms: C_1  and  S_2
REMARK    2  A    between atoms: C_1  and  C_11
REMARK    3  A    between atoms: S_2  and  C_3
REMARK    4  A    between atoms: C_4  and  O_9
REMARK    5  A    between atoms: C_11  and  C_12
REMARK    6  A    between atoms: C_13  and  P_14
REMARK    7  A    between atoms: P_14  and  O_16
REMARK    8  A    between atoms: P_14  and  O_18
REMARK                            x       y       z     vdW  Elec       q    Type
REMARK                         _______ _______ _______ _____ _____    ______ ____
ROOT
ATOM      1  C   UNL     1      35.930 -24.937 -13.732  0.00  0.00    +0.067 C 
ENDROOT
BRANCH   1   2
ATOM      2  S   UNL     1      35.848 -23.248 -14.398  0.00  0.00    -0.110 S 
BRANCH   2   3
ATOM      3  C   UNL     1      34.243 -23.257 -15.188  0.00  0.00    +0.059 C 
ATOM      4  C   UNL     1      33.068 -23.308 -14.439  0.00  0.00    +0.139 C 
ATOM      5  C   UNL     1      34.183 -23.211 -16.579  0.00  0.00    +0.009 C 
ATOM      6  C   UNL     1      31.832 -23.315 -15.083  0.00  0.00    +0.037 C 
ATOM      7  C   UNL     1      32.947 -23.218 -17.225  0.00  0.00    +0.001 C 
ATOM      8  C   UNL     1      31.770 -23.270 -16.477  0.00  0.00    +0.003 C 
BRANCH   4   9
ATOM      9  O   UNL     1      33.090 -23.351 -13.075  0.00  0.00    -0.505 OA
ATOM     10  H   UNL     1      32.298 -23.512 -12.600  0.00  0.00    +0.292 HD
ENDBRANCH   4   9
ENDBRANCH   2   3
ENDBRANCH   1   2
BRANCH   1  11
ATOM     11  C   UNL     1      36.906 -25.005 -12.560  0.00  0.00    +0.038 C 
BRANCH  11  12
ATOM     12  C   UNL     1      38.324 -25.077 -13.051  0.00  0.00    -0.018 C 
ATOM     13  C   UNL     1      38.747 -25.919 -14.004  0.00  0.00    +0.083 C 
BRANCH  13  14
ATOM     14  P   UNL     1      40.412 -25.957 -14.528  0.00  0.00    +0.359 P 
ATOM     15  O   UNL     1      41.363 -27.026 -14.058  0.00  0.00    -0.253 OA
BRANCH  14  16
ATOM     16  O   UNL     1      40.977 -24.469 -14.198  0.00  0.00    -0.321 OA
ATOM     17  H   UNL     1      41.766 -24.539 -13.639  0.00  0.00    +0.220 HD
ENDBRANCH  14  16
BRANCH  14  18
ATOM     18  O   UNL     1      40.323 -25.894 -16.149  0.00  0.00    -0.321 OA
ATOM     19  H   UNL     1      39.689 -25.209 -16.411  0.00  0.00    +0.220 HD
ENDBRANCH  14  18
ENDBRANCH  13  14
ENDBRANCH  11  12
ENDBRANCH   1  11
TORSDOF 8
ENDMDL
MODEL 9
REMARK VINA RESULT:      -7.2      5.553      7.436
REMARK  Name = 444721
REMARK  8 active torsions:
REMARK  status: ('A' for Active; 'I' for Inactive)
REMARK    1  A    between atoms: C_1  and  S_2
REMARK    2  A    between atoms: C_1  and  C_11
REMARK    3  A    between atoms: S_2  and  C_3
REMARK    4  A    between atoms: C_4  and  O_9
REMARK    5  A    between atoms: C_11  and  C_12
REMARK    6  A    between atoms: C_13  and  P_14
REMARK    7  A    between atoms: P_14  and  O_16
REMARK    8  A    between atoms: P_14  and  O_18
REMARK                            x       y       z     vdW  Elec       q    Type
REMARK                         _______ _______ _______ _____ _____    ______ ____
ROOT
ATOM      1  C   UNL     1      33.013 -23.181 -15.041  0.00  0.00    +0.067 C 
ENDROOT
BRANCH   1   2
ATOM      2  S   UNL     1      32.766 -23.482 -16.816  0.00  0.00    -0.110 S 
BRANCH   2   3
ATOM      3  C   UNL     1      34.237 -22.737 -17.510  0.00  0.00    +0.059 C 
ATOM      4  C   UNL     1      34.258 -22.260 -18.819  0.00  0.00    +0.139 C 
ATOM      5  C   UNL     1      35.375 -22.640 -16.711  0.00  0.00    +0.009 C 
ATOM      6  C   UNL     1      35.421 -21.686 -19.332  0.00  0.00    +0.037 C 
ATOM      7  C   UNL     1      36.539 -22.065 -17.223  0.00  0.00    +0.001 C 
ATOM      8  C   UNL     1      36.562 -21.588 -18.534  0.00  0.00    +0.003 C 
BRANCH   4   9
ATOM      9  O   UNL     1      33.162 -22.338 -19.627  0.00  0.00    -0.505 OA
ATOM     10  H   UNL     1      32.731 -21.554 -19.906  0.00  0.00    +0.292 HD
ENDBRANCH   4   9
ENDBRANCH   2   3
ENDBRANCH   1   2
BRANCH   1  11
ATOM     11  C   UNL     1      31.711 -23.394 -14.273  0.00  0.00    +0.038 C 
BRANCH  11  12
ATOM     12  C   UNL     1      30.532 -22.945 -15.089  0.00  0.00    -0.018 C 
ATOM     13  C   UNL     1      29.413 -23.663 -15.248  0.00  0.00    +0.083 C 
BRANCH  13  14
ATOM     14  P   UNL     1      28.077 -23.087 -16.214  0.00  0.00    +0.359 P 
ATOM     15  O   UNL     1      26.785 -22.636 -15.587  0.00  0.00    -0.253 OA
BRANCH  14  16
ATOM     16  O   UNL     1      27.830 -24.263 -17.310  0.00  0.00    -0.321 OA
ATOM     17  H   UNL     1      28.091 -23.947 -18.188  0.00  0.00    +0.220 HD
ENDBRANCH  14  16
BRANCH  14  18
ATOM     18  O   UNL     1      28.732 -21.934 -17.153  0.00  0.00    -0.321 OA
ATOM     19  H   UNL     1      29.420 -22.326 -17.714  0.00  0.00    +0.220 HD
ENDBRANCH  14  18
ENDBRANCH  13  14
ENDBRANCH  11  12
ENDBRANCH   1  11
TORSDOF 8
ENDMDL
