MODEL 1
REMARK VINA RESULT:      -9.7      0.000      0.000
REMARK  Name = 1628
REMARK  5 active torsions:
REMARK  status: ('A' for Active; 'I' for Inactive)
REMARK    1  A    between atoms: C_3  and  N_12
REMARK    2  A    between atoms: C_4  and  C_20
REMARK    3  A    between atoms: C_13  and  C_16
REMARK    4  A    between atoms: C_16  and  O_17
REMARK    5  A    between atoms: C_20  and  O_21
REMARK                            x       y       z     vdW  Elec       q    Type
REMARK                         _______ _______ _______ _____ _____    ______ ____
ROOT
ATOM      1  C   UNL     1      34.438 -23.758 -15.300  0.00  0.00    +0.001 C 
ATOM      2  C   UNL     1      33.853 -23.979 -14.032  0.00  0.00    +0.000 C 
ATOM      3  C   UNL     1      36.617 -24.327 -14.381  0.00  0.00    +0.057 C 
ATOM      4  C   UNL     1      36.042 -24.544 -13.133  0.00  0.00    +0.089 C 
ATOM      5  C   UNL     1      35.823 -23.937 -15.459  0.00  0.00    +0.015 C 
ATOM      6  C   UNL     1      34.668 -24.371 -12.958  0.00  0.00    +0.008 C 
ATOM      7  C   UNL     1      33.623 -23.366 -16.374  0.00  0.00    +0.000 C 
ATOM      8  C   UNL     1      32.469 -23.801 -13.873  0.00  0.00    +0.000 C 
ATOM      9  C   UNL     1      32.249 -23.193 -16.199  0.00  0.00    +0.000 C 
ATOM     10  C   UNL     1      31.673 -23.410 -14.951  0.00  0.00    +0.000 C 
ENDROOT
BRANCH   3  12
ATOM     11  O   UNL     1      38.283 -26.835 -14.684  0.00  0.00    -0.263 OA
ATOM     12  N   UNL     1      37.991 -24.495 -14.579  0.00  0.00    -0.275 N 
ATOM     13  C   UNL     1      38.695 -25.687 -14.710  0.00  0.00    +0.325 C 
ATOM     14  H   UNL     1      38.525 -23.668 -14.631  0.00  0.00    +0.155 HD
BRANCH  13  16
ATOM     15  O   UNL     1      40.874 -24.846 -14.126  0.00  0.00    -0.240 OA
ATOM     16  C   UNL     1      40.181 -25.460 -14.912  0.00  0.00    +0.393 C 
BRANCH  16  17
ATOM     17  O   UNL     1      40.585 -26.031 -16.057  0.00  0.00    -0.474 OA
ATOM     18  H   UNL     1      41.499 -26.173 -16.213  0.00  0.00    +0.296 HD
ENDBRANCH  16  17
ENDBRANCH  13  16
ENDBRANCH   3  12
BRANCH   4  20
ATOM     19  O   UNL     1      37.396 -24.187 -11.193  0.00  0.00    -0.245 OA
ATOM     20  C   UNL     1      36.846 -24.953 -11.987  0.00  0.00    +0.339 C 
BRANCH  20  21
ATOM     21  O   UNL     1      36.932 -26.306 -11.873  0.00  0.00    -0.477 OA
ATOM     22  H   UNL     1      37.172 -26.824 -12.616  0.00  0.00    +0.295 HD
ENDBRANCH  20  21
ENDBRANCH   4  20
TORSDOF 5
ENDMDL
MODEL 2
REMARK VINA RESULT:      -9.2      2.638      4.491
REMARK  Name = 1628
REMARK  5 active torsions:
REMARK  status: ('A' for Active; 'I' for Inactive)
REMARK    1  A    between atoms: C_3  and  N_12
REMARK    2  A    between atoms: C_4  and  C_20
REMARK    3  A    between atoms: C_13  and  C_16
REMARK    4  A    between atoms: C_16  and  O_17
REMARK    5  A    between atoms: C_20  and  O_21
REMARK                            x       y       z     vdW  Elec       q    Type
REMARK                         _______ _______ _______ _____ _____    ______ ____
ROOT
ATOM      1  C   UNL     1      35.444 -22.549 -16.680  0.00  0.00    +0.001 C 
ATOM      2  C   UNL     1      34.145 -22.850 -17.153  0.00  0.00    +0.000 C 
ATOM      3  C   UNL     1      34.810 -23.339 -14.468  0.00  0.00    +0.057 C 
ATOM      4  C   UNL     1      33.532 -23.635 -14.934  0.00  0.00    +0.089 C 
ATOM      5  C   UNL     1      35.761 -22.799 -15.334  0.00  0.00    +0.015 C 
ATOM      6  C   UNL     1      33.200 -23.393 -16.267  0.00  0.00    +0.008 C 
ATOM      7  C   UNL     1      36.389 -22.006 -17.566  0.00  0.00    +0.000 C 
ATOM      8  C   UNL     1      33.829 -22.600 -18.498  0.00  0.00    +0.000 C 
ATOM      9  C   UNL     1      36.057 -21.764 -18.899  0.00  0.00    +0.000 C 
ATOM     10  C   UNL     1      34.780 -22.060 -19.365  0.00  0.00    +0.000 C 
ENDROOT
BRANCH   3  12
ATOM     11  O   UNL     1      36.451 -25.551 -13.216  0.00  0.00    -0.263 OA
ATOM     12  N   UNL     1      35.163 -23.574 -13.136  0.00  0.00    -0.275 N 
ATOM     13  C   UNL     1      35.926 -24.620 -12.628  0.00  0.00    +0.325 C 
ATOM     14  H   UNL     1      34.831 -22.920 -12.479  0.00  0.00    +0.155 HD
BRANCH  13  16
ATOM     15  O   UNL     1      35.273 -24.961 -10.336  0.00  0.00    -0.240 OA
ATOM     16  C   UNL     1      36.093 -24.533 -11.124  0.00  0.00    +0.393 C 
BRANCH  16  17
ATOM     17  O   UNL     1      37.254 -23.932 -10.821  0.00  0.00    -0.474 OA
ATOM     18  H   UNL     1      37.352 -23.487 -10.001  0.00  0.00    +0.296 HD
ENDBRANCH  16  17
ENDBRANCH  13  16
ENDBRANCH   3  12
BRANCH   4  20
ATOM     19  O   UNL     1      32.021 -25.324 -14.165  0.00  0.00    -0.245 OA
ATOM     20  C   UNL     1      32.516 -24.200 -14.053  0.00  0.00    +0.339 C 
BRANCH  20  21
ATOM     21  O   UNL     1      32.155 -23.341 -13.063  0.00  0.00    -0.477 OA
ATOM     22  H   UNL     1      32.798 -23.030 -12.455  0.00  0.00    +0.295 HD
ENDBRANCH  20  21
ENDBRANCH   4  20
TORSDOF 5
ENDMDL
MODEL 3
REMARK VINA RESULT:      -9.0      2.415      3.670
REMARK  Name = 1628
REMARK  5 active torsions:
REMARK  status: ('A' for Active; 'I' for Inactive)
REMARK    1  A    between atoms: C_3  and  N_12
REMARK    2  A    between atoms: C_4  and  C_20
REMARK    3  A    between atoms: C_13  and  C_16
REMARK    4  A    between atoms: C_16  and  O_17
REMARK    5  A    between atoms: C_20  and  O_21
REMARK                            x       y       z     vdW  Elec       q    Type
REMARK                         _______ _______ _______ _____ _____    ______ ____
ROOT
ATOM      1  C   UNL     1      35.756 -22.374 -17.067  0.00  0.00    +0.001 C 
ATOM      2  C   UNL     1      34.425 -22.843 -17.164  0.00  0.00    +0.000 C 
ATOM      3  C   UNL     1      35.841 -23.131 -14.756  0.00  0.00    +0.057 C 
ATOM      4  C   UNL     1      34.532 -23.591 -14.852  0.00  0.00    +0.089 C 
ATOM      5  C   UNL     1      36.451 -22.525 -15.855  0.00  0.00    +0.015 C 
ATOM      6  C   UNL     1      33.827 -23.449 -16.048  0.00  0.00    +0.008 C 
ATOM      7  C   UNL     1      36.355 -21.768 -18.183  0.00  0.00    +0.000 C 
ATOM      8  C   UNL     1      33.731 -22.691 -18.375  0.00  0.00    +0.000 C 
ATOM      9  C   UNL     1      35.650 -21.625 -19.379  0.00  0.00    +0.000 C 
ATOM     10  C   UNL     1      34.340 -22.086 -19.475  0.00  0.00    +0.000 C 
ENDROOT
BRANCH   3  12
ATOM     11  O   UNL     1      38.448 -24.553 -14.174  0.00  0.00    -0.263 OA
ATOM     12  N   UNL     1      36.566 -23.263 -13.568  0.00  0.00    -0.275 N 
ATOM     13  C   UNL     1      37.766 -23.938 -13.371  0.00  0.00    +0.325 C 
ATOM     14  H   UNL     1      36.179 -22.826 -12.774  0.00  0.00    +0.155 HD
BRANCH  13  16
ATOM     15  O   UNL     1      39.162 -23.148 -11.577  0.00  0.00    -0.240 OA
ATOM     16  C   UNL     1      38.244 -23.857 -11.935  0.00  0.00    +0.393 C 
BRANCH  16  17
ATOM     17  O   UNL     1      37.508 -24.666 -11.156  0.00  0.00    -0.474 OA
ATOM     18  H   UNL     1      37.929 -25.304 -10.613  0.00  0.00    +0.296 HD
ENDBRANCH  16  17
ENDBRANCH  13  16
ENDBRANCH   3  12
BRANCH   4  20
ATOM     19  O   UNL     1      34.057 -23.952 -12.535  0.00  0.00    -0.245 OA
ATOM     20  C   UNL     1      33.866 -24.228 -13.721  0.00  0.00    +0.339 C 
BRANCH  20  21
ATOM     21  O   UNL     1      32.985 -25.187 -14.114  0.00  0.00    -0.477 OA
ATOM     22  H   UNL     1      32.137 -24.942 -14.431  0.00  0.00    +0.295 HD
ENDBRANCH  20  21
ENDBRANCH   4  20
TORSDOF 5
ENDMDL
MODEL 4
REMARK VINA RESULT:      -9.0      4.959      7.071
REMARK  Name = 1628
REMARK  5 active torsions:
REMARK  status: ('A' for Active; 'I' for Inactive)
REMARK    1  A    between atoms: C_3  and  N_12
REMARK    2  A    between atoms: C_4  and  C_20
REMARK    3  A    between atoms: C_13  and  C_16
REMARK    4  A    between atoms: C_16  and  O_17
REMARK    5  A    between atoms: C_20  and  O_21
REMARK                            x       y       z     vdW  Elec       q    Type
REMARK                         _______ _______ _______ _____ _____    ______ ____
ROOT
ATOM      1  C   UNL     1      34.128 -22.696 -17.534  0.00  0.00    +0.001 C 
ATOM      2  C   UNL     1      34.974 -22.715 -16.400  0.00  0.00    +0.000 C 
ATOM      3  C   UNL     1      32.306 -23.563 -16.174  0.00  0.00    +0.057 C 
ATOM      4  C   UNL     1      33.138 -23.581 -15.059  0.00  0.00    +0.089 C 
ATOM      5  C   UNL     1      32.796 -23.123 -17.404  0.00  0.00    +0.015 C 
ATOM      6  C   UNL     1      34.464 -23.161 -15.170  0.00  0.00    +0.008 C 
ATOM      7  C   UNL     1      34.638 -22.250 -18.764  0.00  0.00    +0.000 C 
ATOM      8  C   UNL     1      36.305 -22.288 -16.529  0.00  0.00    +0.000 C 
ATOM      9  C   UNL     1      35.964 -21.830 -18.874  0.00  0.00    +0.000 C 
ATOM     10  C   UNL     1      36.796 -21.849 -17.759  0.00  0.00    +0.000 C 
ENDROOT
BRANCH   3  12
ATOM     11  O   UNL     1      29.743 -22.196 -17.021  0.00  0.00    -0.263 OA
ATOM     12  N   UNL     1      30.975 -23.980 -16.085  0.00  0.00    -0.275 N 
ATOM     13  C   UNL     1      29.837 -23.294 -16.498  0.00  0.00    +0.325 C 
ATOM     14  H   UNL     1      30.825 -24.866 -15.682  0.00  0.00    +0.155 HD
BRANCH  13  16
ATOM     15  O   UNL     1      28.265 -24.509 -15.139  0.00  0.00    -0.240 OA
ATOM     16  C   UNL     1      28.565 -24.077 -16.234  0.00  0.00    +0.393 C 
BRANCH  16  17
ATOM     17  O   UNL     1      27.855 -24.203 -17.365  0.00  0.00    -0.474 OA
ATOM     18  H   UNL     1      27.830 -25.026 -17.814  0.00  0.00    +0.296 HD
ENDBRANCH  16  17
ENDBRANCH  13  16
ENDBRANCH   3  12
BRANCH   4  20
ATOM     19  O   UNL     1      32.156 -25.139 -13.531  0.00  0.00    -0.245 OA
ATOM     20  C   UNL     1      32.656 -24.035 -13.759  0.00  0.00    +0.339 C 
BRANCH  20  21
ATOM     21  O   UNL     1      32.817 -23.093 -12.791  0.00  0.00    -0.477 OA
ATOM     22  H   UNL     1      32.067 -22.713 -12.378  0.00  0.00    +0.295 HD
ENDBRANCH  20  21
ENDBRANCH   4  20
TORSDOF 5
ENDMDL
MODEL 5
REMARK VINA RESULT:      -8.8      2.406      4.171
REMARK  Name = 1628
REMARK  5 active torsions:
REMARK  status: ('A' for Active; 'I' for Inactive)
REMARK    1  A    between atoms: C_3  and  N_12
REMARK    2  A    between atoms: C_4  and  C_20
REMARK    3  A    between atoms: C_13  and  C_16
REMARK    4  A    between atoms: C_16  and  O_17
REMARK    5  A    between atoms: C_20  and  O_21
REMARK                            x       y       z     vdW  Elec       q    Type
REMARK                         _______ _______ _______ _____ _____    ______ ____
ROOT
ATOM      1  C   UNL     1      31.401 -24.411 -14.661  0.00  0.00    +0.001 C 
ATOM      2  C   UNL     1      31.508 -23.511 -15.747  0.00  0.00    +0.000 C 
ATOM      3  C   UNL     1      33.819 -24.363 -14.398  0.00  0.00    +0.057 C 
ATOM      4  C   UNL     1      33.924 -23.477 -15.466  0.00  0.00    +0.089 C 
ATOM      5  C   UNL     1      32.567 -24.828 -13.996  0.00  0.00    +0.015 C 
ATOM      6  C   UNL     1      32.777 -23.054 -16.138  0.00  0.00    +0.008 C 
ATOM      7  C   UNL     1      30.132 -24.868 -14.270  0.00  0.00    +0.000 C 
ATOM      8  C   UNL     1      30.343 -23.094 -16.411  0.00  0.00    +0.000 C 
ATOM      9  C   UNL     1      28.985 -24.444 -14.941  0.00  0.00    +0.000 C 
ATOM     10  C   UNL     1      29.090 -23.559 -16.010  0.00  0.00    +0.000 C 
ENDROOT
BRANCH   3  12
ATOM     11  O   UNL     1      34.779 -23.785 -11.587  0.00  0.00    -0.263 OA
ATOM     12  N   UNL     1      34.956 -24.800 -13.711  0.00  0.00    -0.275 N 
ATOM     13  C   UNL     1      35.338 -24.492 -12.410  0.00  0.00    +0.325 C 
ATOM     14  H   UNL     1      35.559 -25.399 -14.210  0.00  0.00    +0.155 HD
BRANCH  13  16
ATOM     15  O   UNL     1      37.465 -24.641 -11.294  0.00  0.00    -0.240 OA
ATOM     16  C   UNL     1      36.640 -25.161 -12.017  0.00  0.00    +0.393 C 
BRANCH  16  17
ATOM     17  O   UNL     1      36.723 -26.378 -12.579  0.00  0.00    -0.474 OA
ATOM     18  H   UNL     1      35.942 -26.855 -12.781  0.00  0.00    +0.296 HD
ENDBRANCH  16  17
ENDBRANCH  13  16
ENDBRANCH   3  12
BRANCH   4  20
ATOM     19  O   UNL     1      36.150 -22.651 -15.169  0.00  0.00    -0.245 OA
ATOM     20  C   UNL     1      35.219 -22.974 -15.910  0.00  0.00    +0.339 C 
BRANCH  20  21
ATOM     21  O   UNL     1      35.305 -22.893 -17.265  0.00  0.00    -0.477 OA
ATOM     22  H   UNL     1      36.145 -22.856 -17.680  0.00  0.00    +0.295 HD
ENDBRANCH  20  21
ENDBRANCH   4  20
TORSDOF 5
ENDMDL
MODEL 6
REMARK VINA RESULT:      -8.7     13.308     15.065
REMARK  Name = 1628
REMARK  5 active torsions:
REMARK  status: ('A' for Active; 'I' for Inactive)
REMARK    1  A    between atoms: C_3  and  N_12
REMARK    2  A    between atoms: C_4  and  C_20
REMARK    3  A    between atoms: C_13  and  C_16
REMARK    4  A    between atoms: C_16  and  O_17
REMARK    5  A    between atoms: C_20  and  O_21
REMARK                            x       y       z     vdW  Elec       q    Type
REMARK                         _______ _______ _______ _____ _____    ______ ____
ROOT
ATOM      1  C   UNL     1      34.831 -16.628 -22.930  0.00  0.00    +0.001 C 
ATOM      2  C   UNL     1      34.458 -17.358 -24.083  0.00  0.00    +0.000 C 
ATOM      3  C   UNL     1      34.167 -14.565 -24.035  0.00  0.00    +0.057 C 
ATOM      4  C   UNL     1      33.801 -15.283 -25.170  0.00  0.00    +0.089 C 
ATOM      5  C   UNL     1      34.679 -15.231 -22.922  0.00  0.00    +0.015 C 
ATOM      6  C   UNL     1      33.945 -16.670 -25.195  0.00  0.00    +0.008 C 
ATOM      7  C   UNL     1      35.344 -17.315 -21.818  0.00  0.00    +0.000 C 
ATOM      8  C   UNL     1      34.609 -18.754 -24.092  0.00  0.00    +0.000 C 
ATOM      9  C   UNL     1      35.488 -18.703 -21.844  0.00  0.00    +0.000 C 
ATOM     10  C   UNL     1      35.122 -19.421 -22.978  0.00  0.00    +0.000 C 
ENDROOT
BRANCH   3  12
ATOM     11  O   UNL     1      32.095 -12.822 -22.684  0.00  0.00    -0.263 OA
ATOM     12  N   UNL     1      34.032 -13.174 -23.989  0.00  0.00    -0.275 N 
ATOM     13  C   UNL     1      33.046 -12.434 -23.344  0.00  0.00    +0.325 C 
ATOM     14  H   UNL     1      34.717 -12.656 -24.471  0.00  0.00    +0.155 HD
BRANCH  13  16
ATOM     15  O   UNL     1      32.383 -10.123 -23.246  0.00  0.00    -0.240 OA
ATOM     16  C   UNL     1      33.237 -10.941 -23.522  0.00  0.00    +0.393 C 
BRANCH  16  17
ATOM     17  O   UNL     1      34.459 -10.686 -24.013  0.00  0.00    -0.474 OA
ATOM     18  H   UNL     1      35.008 -11.392 -24.297  0.00  0.00    +0.296 HD
ENDBRANCH  16  17
ENDBRANCH  13  16
ENDBRANCH   3  12
BRANCH   4  20
ATOM     19  O   UNL     1      33.876 -14.421 -27.401  0.00  0.00    -0.245 OA
ATOM     20  C   UNL     1      33.262 -14.615 -26.349  0.00  0.00    +0.339 C 
BRANCH  20  21
ATOM     21  O   UNL     1      31.975 -14.214 -26.173  0.00  0.00    -0.477 OA
ATOM     22  H   UNL     1      31.548 -13.703 -26.833  0.00  0.00    +0.295 HD
ENDBRANCH  20  21
ENDBRANCH   4  20
TORSDOF 5
ENDMDL
MODEL 7
REMARK VINA RESULT:      -8.6      9.870     11.599
REMARK  Name = 1628
REMARK  5 active torsions:
REMARK  status: ('A' for Active; 'I' for Inactive)
REMARK    1  A    between atoms: C_3  and  N_12
REMARK    2  A    between atoms: C_4  and  C_20
REMARK    3  A    between atoms: C_13  and  C_16
REMARK    4  A    between atoms: C_16  and  O_17
REMARK    5  A    between atoms: C_20  and  O_21
REMARK                            x       y       z     vdW  Elec       q    Type
REMARK                         _______ _______ _______ _____ _____    ______ ____
ROOT
ATOM      1  C   UNL     1      33.278 -15.022 -21.356  0.00  0.00    +0.001 C 
ATOM      2  C   UNL     1      33.377 -14.824 -22.753  0.00  0.00    +0.000 C 
ATOM      3  C   UNL     1      34.431 -17.152 -21.589  0.00  0.00    +0.057 C 
ATOM      4  C   UNL     1      34.528 -16.956 -22.963  0.00  0.00    +0.089 C 
ATOM      5  C   UNL     1      33.810 -16.192 -20.789  0.00  0.00    +0.015 C 
ATOM      6  C   UNL     1      34.004 -15.801 -23.543  0.00  0.00    +0.008 C 
ATOM      7  C   UNL     1      32.650 -14.046 -20.566  0.00  0.00    +0.000 C 
ATOM      8  C   UNL     1      32.844 -13.655 -23.320  0.00  0.00    +0.000 C 
ATOM      9  C   UNL     1      32.126 -12.890 -21.147  0.00  0.00    +0.000 C 
ATOM     10  C   UNL     1      32.223 -12.695 -22.521  0.00  0.00    +0.000 C 
ENDROOT
BRANCH   3  12
ATOM     11  O   UNL     1      33.186 -19.869 -21.116  0.00  0.00    -0.263 OA
ATOM     12  N   UNL     1      34.948 -18.303 -20.987  0.00  0.00    -0.275 N 
ATOM     13  C   UNL     1      34.314 -19.527 -20.801  0.00  0.00    +0.325 C 
ATOM     14  H   UNL     1      35.873 -18.239 -20.654  0.00  0.00    +0.155 HD
BRANCH  13  16
ATOM     15  O   UNL     1      34.832 -21.651 -19.794  0.00  0.00    -0.240 OA
ATOM     16  C   UNL     1      35.205 -20.537 -20.105  0.00  0.00    +0.393 C 
BRANCH  16  17
ATOM     17  O   UNL     1      36.425 -20.018 -19.903  0.00  0.00    -0.474 OA
ATOM     18  H   UNL     1      36.628 -19.159 -20.221  0.00  0.00    +0.296 HD
ENDBRANCH  16  17
ENDBRANCH  13  16
ENDBRANCH   3  12
BRANCH   4  20
ATOM     19  O   UNL     1      34.681 -18.418 -24.852  0.00  0.00    -0.245 OA
ATOM     20  C   UNL     1      35.171 -17.941 -23.826  0.00  0.00    +0.339 C 
BRANCH  20  21
ATOM     21  O   UNL     1      36.405 -18.294 -23.376  0.00  0.00    -0.477 OA
ATOM     22  H   UNL     1      36.497 -18.989 -22.754  0.00  0.00    +0.295 HD
ENDBRANCH  20  21
ENDBRANCH   4  20
TORSDOF 5
ENDMDL
MODEL 8
REMARK VINA RESULT:      -8.5      2.381      3.617
REMARK  Name = 1628
REMARK  5 active torsions:
REMARK  status: ('A' for Active; 'I' for Inactive)
REMARK    1  A    between atoms: C_3  and  N_12
REMARK    2  A    between atoms: C_4  and  C_20
REMARK    3  A    between atoms: C_13  and  C_16
REMARK    4  A    between atoms: C_16  and  O_17
REMARK    5  A    between atoms: C_20  and  O_21
REMARK                            x       y       z     vdW  Elec       q    Type
REMARK                         _______ _______ _______ _____ _____    ______ ____
ROOT
ATOM      1  C   UNL     1      32.343 -24.322 -14.632  0.00  0.00    +0.001 C 
ATOM      2  C   UNL     1      32.009 -23.485 -15.723  0.00  0.00    +0.000 C 
ATOM      3  C   UNL     1      34.700 -24.078 -15.181  0.00  0.00    +0.057 C 
ATOM      4  C   UNL     1      34.371 -23.255 -16.254  0.00  0.00    +0.089 C 
ATOM      5  C   UNL     1      33.694 -24.609 -14.375  0.00  0.00    +0.015 C 
ATOM      6  C   UNL     1      33.035 -22.960 -16.525  0.00  0.00    +0.008 C 
ATOM      7  C   UNL     1      31.317 -24.848 -13.830  0.00  0.00    +0.000 C 
ATOM      8  C   UNL     1      30.659 -23.198 -15.980  0.00  0.00    +0.000 C 
ATOM      9  C   UNL     1      29.980 -24.553 -14.101  0.00  0.00    +0.000 C 
ATOM     10  C   UNL     1      29.651 -23.729 -15.173  0.00  0.00    +0.000 C 
ENDROOT
BRANCH   3  12
ATOM     11  O   UNL     1      36.285 -26.616 -15.628  0.00  0.00    -0.263 OA
ATOM     12  N   UNL     1      36.033 -24.387 -14.893  0.00  0.00    -0.275 N 
ATOM     13  C   UNL     1      36.700 -25.585 -15.127  0.00  0.00    +0.325 C 
ATOM     14  H   UNL     1      36.562 -23.670 -14.473  0.00  0.00    +0.155 HD
BRANCH  13  16
ATOM     15  O   UNL     1      38.722 -24.504 -14.393  0.00  0.00    -0.240 OA
ATOM     16  C   UNL     1      38.147 -25.536 -14.675  0.00  0.00    +0.393 C 
BRANCH  16  17
ATOM     17  O   UNL     1      38.662 -26.774 -14.635  0.00  0.00    -0.474 OA
ATOM     18  H   UNL     1      38.974 -27.127 -13.824  0.00  0.00    +0.296 HD
ENDBRANCH  16  17
ENDBRANCH  13  16
ENDBRANCH   3  12
BRANCH   4  20
ATOM     19  O   UNL     1      36.509 -22.295 -16.741  0.00  0.00    -0.245 OA
ATOM     20  C   UNL     1      35.401 -22.684 -17.116  0.00  0.00    +0.339 C 
BRANCH  20  21
ATOM     21  O   UNL     1      35.008 -22.622 -18.417  0.00  0.00    -0.477 OA
ATOM     22  H   UNL     1      35.454 -22.054 -19.014  0.00  0.00    +0.295 HD
ENDBRANCH  20  21
ENDBRANCH   4  20
TORSDOF 5
ENDMDL
MODEL 9
REMARK VINA RESULT:      -8.5      5.187      7.508
REMARK  Name = 1628
REMARK  5 active torsions:
REMARK  status: ('A' for Active; 'I' for Inactive)
REMARK    1  A    between atoms: C_3  and  N_12
REMARK    2  A    between atoms: C_4  and  C_20
REMARK    3  A    between atoms: C_13  and  C_16
REMARK    4  A    between atoms: C_16  and  O_17
REMARK    5  A    between atoms: C_20  and  O_21
REMARK                            x       y       z     vdW  Elec       q    Type
REMARK                         _______ _______ _______ _____ _____    ______ ____
ROOT
ATOM      1  C   UNL     1      33.827 -23.825 -14.307  0.00  0.00    +0.001 C 
ATOM      2  C   UNL     1      34.925 -23.730 -15.194  0.00  0.00    +0.000 C 
ATOM      3  C   UNL     1      32.322 -23.228 -16.123  0.00  0.00    +0.057 C 
ATOM      4  C   UNL     1      33.402 -23.135 -16.995  0.00  0.00    +0.089 C 
ATOM      5  C   UNL     1      32.531 -23.571 -14.787  0.00  0.00    +0.015 C 
ATOM      6  C   UNL     1      34.696 -23.383 -16.535  0.00  0.00    +0.008 C 
ATOM      7  C   UNL     1      34.055 -24.172 -12.965  0.00  0.00    +0.000 C 
ATOM      8  C   UNL     1      36.220 -23.984 -14.714  0.00  0.00    +0.000 C 
ATOM      9  C   UNL     1      35.349 -24.421 -12.505  0.00  0.00    +0.000 C 
ATOM     10  C   UNL     1      36.429 -24.327 -13.377  0.00  0.00    +0.000 C 
ENDROOT
BRANCH   3  12
ATOM     11  O   UNL     1      29.721 -24.639 -15.491  0.00  0.00    -0.263 OA
ATOM     12  N   UNL     1      31.018 -22.983 -16.563  0.00  0.00    -0.275 N 
ATOM     13  C   UNL     1      29.860 -23.678 -16.229  0.00  0.00    +0.325 C 
ATOM     14  H   UNL     1      30.906 -22.227 -17.185  0.00  0.00    +0.155 HD
BRANCH  13  16
ATOM     15  O   UNL     1      28.416 -21.919 -17.013  0.00  0.00    -0.240 OA
ATOM     16  C   UNL     1      28.631 -23.110 -16.911  0.00  0.00    +0.393 C 
BRANCH  16  17
ATOM     17  O   UNL     1      27.854 -24.105 -17.369  0.00  0.00    -0.474 OA
ATOM     18  H   UNL     1      27.203 -24.485 -16.811  0.00  0.00    +0.296 HD
ENDBRANCH  16  17
ENDBRANCH  13  16
ENDBRANCH   3  12
BRANCH   4  20
ATOM     19  O   UNL     1      32.541 -21.833 -18.809  0.00  0.00    -0.245 OA
ATOM     20  C   UNL     1      33.217 -22.778 -18.398  0.00  0.00    +0.339 C 
BRANCH  20  21
ATOM     21  O   UNL     1      33.884 -23.616 -19.236  0.00  0.00    -0.477 OA
ATOM     22  H   UNL     1      34.816 -23.695 -19.175  0.00  0.00    +0.295 HD
ENDBRANCH  20  21
ENDBRANCH   4  20
TORSDOF 5
ENDMDL
