MODEL 1
REMARK VINA RESULT:     -10.4      0.000      0.000
REMARK  Name = 3033975
REMARK  5 active torsions:
REMARK  status: ('A' for Active; 'I' for Inactive)
REMARK    1  A    between atoms: C_1  and  C_2
REMARK    2  A    between atoms: C_1  and  N_9
REMARK    3  A    between atoms: C_1  and  C_18
REMARK    4  A    between atoms: C_10  and  C_13
REMARK    5  A    between atoms: C_18  and  C_19
REMARK                            x       y       z     vdW  Elec       q    Type
REMARK                         _______ _______ _______ _____ _____    ______ ____
ROOT
ATOM      1  C   UNL     1      33.653 -23.012 -16.686  0.00  0.00    +0.099 C 
ENDROOT
BRANCH   1   2
ATOM      2  C   UNL     1      32.315 -23.178 -15.986  0.00  0.00    -0.004 C 
ATOM      3  C   UNL     1      31.158 -22.855 -16.668  0.00  0.00    -0.003 C 
ATOM      4  C   UNL     1      32.293 -23.648 -14.688  0.00  0.00    -0.003 C 
ATOM      5  C   UNL     1      29.929 -23.007 -16.025  0.00  0.00    -0.000 C 
ATOM      6  C   UNL     1      31.064 -23.800 -14.045  0.00  0.00    -0.000 C 
ATOM      7  C   UNL     1      29.883 -23.480 -14.713  0.00  0.00    -0.000 C 
ENDBRANCH   1   2
BRANCH   1   9
ATOM      8  O   UNL     1      36.297 -22.210 -15.906  0.00  0.00    -0.270 OA
ATOM      9  N   UNL     1      34.677 -23.859 -16.061  0.00  0.00    -0.298 N 
ATOM     10  C   UNL     1      35.915 -23.364 -15.730  0.00  0.00    +0.248 C 
ATOM     11  H   UNL     1      34.473 -24.804 -15.877  0.00  0.00    +0.150 HD
BRANCH  10  13
ATOM     12  N   UNL     1      39.010 -24.819 -14.228  0.00  0.00    -0.242 NA
ATOM     13  C   UNL     1      36.847 -24.354 -15.130  0.00  0.00    +0.072 C 
ATOM     14  C   UNL     1      36.434 -25.649 -14.933  0.00  0.00    +0.008 C 
ATOM     15  C   UNL     1      38.112 -23.969 -14.777  0.00  0.00    +0.103 C 
ATOM     16  C   UNL     1      37.330 -26.552 -14.371  0.00  0.00    +0.021 C 
ATOM     17  C   UNL     1      38.594 -26.092 -14.039  0.00  0.00    +0.099 C 
ENDBRANCH  10  13
ENDBRANCH   1   9
BRANCH   1  18
ATOM     18  C   UNL     1      33.573 -23.289 -18.213  0.00  0.00    +0.050 C 
BRANCH  18  19
ATOM     19  C   UNL     1      34.015 -22.143 -19.059  0.00  0.00    -0.020 C 
ATOM     20  C   UNL     1      33.068 -21.295 -19.634  0.00  0.00    -0.004 C 
ATOM     21  C   UNL     1      35.375 -21.918 -19.273  0.00  0.00    -0.004 C 
ATOM     22  C   UNL     1      33.483 -20.223 -20.425  0.00  0.00    -0.000 C 
ATOM     23  C   UNL     1      35.788 -20.845 -20.064  0.00  0.00    -0.000 C 
ATOM     24  C   UNL     1      34.842 -19.998 -20.640  0.00  0.00    -0.000 C 
ENDBRANCH  18  19
ENDBRANCH   1  18
TORSDOF 5
ENDMDL
MODEL 2
REMARK VINA RESULT:      -9.9      1.740      6.010
REMARK  Name = 3033975
REMARK  5 active torsions:
REMARK  status: ('A' for Active; 'I' for Inactive)
REMARK    1  A    between atoms: C_1  and  C_2
REMARK    2  A    between atoms: C_1  and  N_9
REMARK    3  A    between atoms: C_1  and  C_18
REMARK    4  A    between atoms: C_10  and  C_13
REMARK    5  A    between atoms: C_18  and  C_19
REMARK                            x       y       z     vdW  Elec       q    Type
REMARK                         _______ _______ _______ _____ _____    ______ ____
ROOT
ATOM      1  C   UNL     1      34.162 -23.412 -16.218  0.00  0.00    +0.099 C 
ENDROOT
BRANCH   1   2
ATOM      2  C   UNL     1      32.756 -23.489 -15.648  0.00  0.00    -0.004 C 
ATOM      3  C   UNL     1      32.582 -23.940 -14.354  0.00  0.00    -0.003 C 
ATOM      4  C   UNL     1      31.691 -23.104 -16.438  0.00  0.00    -0.003 C 
ATOM      5  C   UNL     1      31.292 -24.011 -13.829  0.00  0.00    -0.000 C 
ATOM      6  C   UNL     1      30.401 -23.175 -15.913  0.00  0.00    -0.000 C 
ATOM      7  C   UNL     1      30.200 -23.628 -14.610  0.00  0.00    -0.000 C 
ENDBRANCH   1   2
BRANCH   1   9
ATOM      8  O   UNL     1      33.886 -23.816 -19.047  0.00  0.00    -0.270 OA
ATOM      9  N   UNL     1      34.245 -22.383 -17.263  0.00  0.00    -0.298 N 
ATOM     10  C   UNL     1      34.097 -22.695 -18.592  0.00  0.00    +0.248 C 
ATOM     11  H   UNL     1      34.413 -21.448 -17.005  0.00  0.00    +0.150 HD
BRANCH  10  13
ATOM     12  N   UNL     1      35.675 -20.103 -20.771  0.00  0.00    -0.242 NA
ATOM     13  C   UNL     1      34.235 -21.547 -19.526  0.00  0.00    +0.072 C 
ATOM     14  C   UNL     1      33.113 -20.900 -19.984  0.00  0.00    +0.008 C 
ATOM     15  C   UNL     1      35.479 -21.141 -19.925  0.00  0.00    +0.103 C 
ATOM     16  C   UNL     1      33.275 -19.828 -20.856  0.00  0.00    +0.021 C 
ATOM     17  C   UNL     1      34.565 -19.473 -21.215  0.00  0.00    +0.099 C 
ENDBRANCH  10  13
ENDBRANCH   1   9
BRANCH   1  18
ATOM     18  C   UNL     1      35.243 -23.172 -15.128  0.00  0.00    +0.050 C 
BRANCH  18  19
ATOM     19  C   UNL     1      36.246 -24.271 -15.020  0.00  0.00    -0.020 C 
ATOM     20  C   UNL     1      37.587 -23.970 -14.781  0.00  0.00    -0.004 C 
ATOM     21  C   UNL     1      35.842 -25.599 -15.155  0.00  0.00    -0.004 C 
ATOM     22  C   UNL     1      38.524 -24.998 -14.680  0.00  0.00    -0.000 C 
ATOM     23  C   UNL     1      36.780 -26.626 -15.054  0.00  0.00    -0.000 C 
ATOM     24  C   UNL     1      38.121 -26.326 -14.816  0.00  0.00    -0.000 C 
ENDBRANCH  18  19
ENDBRANCH   1  18
TORSDOF 5
ENDMDL
MODEL 3
REMARK VINA RESULT:      -9.8      1.746      5.916
REMARK  Name = 3033975
REMARK  5 active torsions:
REMARK  status: ('A' for Active; 'I' for Inactive)
REMARK    1  A    between atoms: C_1  and  C_2
REMARK    2  A    between atoms: C_1  and  N_9
REMARK    3  A    between atoms: C_1  and  C_18
REMARK    4  A    between atoms: C_10  and  C_13
REMARK    5  A    between atoms: C_18  and  C_19
REMARK                            x       y       z     vdW  Elec       q    Type
REMARK                         _______ _______ _______ _____ _____    ______ ____
ROOT
ATOM      1  C   UNL     1      34.101 -23.456 -16.212  0.00  0.00    +0.099 C 
ENDROOT
BRANCH   1   2
ATOM      2  C   UNL     1      32.692 -23.553 -15.653  0.00  0.00    -0.004 C 
ATOM      3  C   UNL     1      31.634 -23.107 -16.423  0.00  0.00    -0.003 C 
ATOM      4  C   UNL     1      32.508 -24.084 -14.392  0.00  0.00    -0.003 C 
ATOM      5  C   UNL     1      30.340 -23.196 -15.909  0.00  0.00    -0.000 C 
ATOM      6  C   UNL     1      31.213 -24.173 -13.880  0.00  0.00    -0.000 C 
ATOM      7  C   UNL     1      30.130 -23.729 -14.637  0.00  0.00    -0.000 C 
ENDBRANCH   1   2
BRANCH   1   9
ATOM      8  O   UNL     1      33.911 -23.852 -19.050  0.00  0.00    -0.270 OA
ATOM      9  N   UNL     1      34.181 -22.420 -17.250  0.00  0.00    -0.298 N 
ATOM     10  C   UNL     1      34.076 -22.728 -18.584  0.00  0.00    +0.248 C 
ATOM     11  H   UNL     1      34.314 -21.482 -16.983  0.00  0.00    +0.150 HD
BRANCH  10  13
ATOM     12  N   UNL     1      35.631 -20.118 -20.758  0.00  0.00    -0.242 NA
ATOM     13  C   UNL     1      34.205 -21.571 -19.508  0.00  0.00    +0.072 C 
ATOM     14  C   UNL     1      33.078 -20.916 -19.943  0.00  0.00    +0.008 C 
ATOM     15  C   UNL     1      35.444 -21.164 -19.920  0.00  0.00    +0.103 C 
ATOM     16  C   UNL     1      33.231 -19.836 -20.807  0.00  0.00    +0.021 C 
ATOM     17  C   UNL     1      34.516 -19.481 -21.180  0.00  0.00    +0.099 C 
ENDBRANCH  10  13
ENDBRANCH   1   9
BRANCH   1  18
ATOM     18  C   UNL     1      35.171 -23.212 -15.113  0.00  0.00    +0.050 C 
BRANCH  18  19
ATOM     19  C   UNL     1      36.194 -24.294 -15.015  0.00  0.00    -0.020 C 
ATOM     20  C   UNL     1      37.530 -23.970 -14.775  0.00  0.00    -0.004 C 
ATOM     21  C   UNL     1      35.814 -25.628 -15.160  0.00  0.00    -0.004 C 
ATOM     22  C   UNL     1      38.486 -24.982 -14.684  0.00  0.00    -0.000 C 
ATOM     23  C   UNL     1      36.771 -26.639 -15.069  0.00  0.00    -0.000 C 
ATOM     24  C   UNL     1      38.106 -26.316 -14.830  0.00  0.00    -0.000 C 
ENDBRANCH  18  19
ENDBRANCH   1  18
TORSDOF 5
ENDMDL
MODEL 4
REMARK VINA RESULT:      -9.7      1.753      5.120
REMARK  Name = 3033975
REMARK  5 active torsions:
REMARK  status: ('A' for Active; 'I' for Inactive)
REMARK    1  A    between atoms: C_1  and  C_2
REMARK    2  A    between atoms: C_1  and  N_9
REMARK    3  A    between atoms: C_1  and  C_18
REMARK    4  A    between atoms: C_10  and  C_13
REMARK    5  A    between atoms: C_18  and  C_19
REMARK                            x       y       z     vdW  Elec       q    Type
REMARK                         _______ _______ _______ _____ _____    ______ ____
ROOT
ATOM      1  C   UNL     1      33.640 -23.180 -17.246  0.00  0.00    +0.099 C 
ENDROOT
BRANCH   1   2
ATOM      2  C   UNL     1      34.249 -22.275 -18.303  0.00  0.00    -0.004 C 
ATOM      3  C   UNL     1      33.415 -21.647 -19.207  0.00  0.00    -0.003 C 
ATOM      4  C   UNL     1      35.619 -22.105 -18.330  0.00  0.00    -0.003 C 
ATOM      5  C   UNL     1      33.973 -20.815 -20.178  0.00  0.00    -0.000 C 
ATOM      6  C   UNL     1      36.177 -21.272 -19.301  0.00  0.00    -0.000 C 
ATOM      7  C   UNL     1      35.355 -20.628 -20.225  0.00  0.00    -0.000 C 
ENDBRANCH   1   2
BRANCH   1   9
ATOM      8  O   UNL     1      35.246 -25.182 -15.958  0.00  0.00    -0.270 OA
ATOM      9  N   UNL     1      34.354 -23.044 -15.970  0.00  0.00    -0.298 N 
ATOM     10  C   UNL     1      35.096 -24.076 -15.447  0.00  0.00    +0.248 C 
ATOM     11  H   UNL     1      34.298 -22.195 -15.475  0.00  0.00    +0.150 HD
BRANCH  10  13
ATOM     12  N   UNL     1      37.657 -23.036 -12.934  0.00  0.00    -0.242 NA
ATOM     13  C   UNL     1      35.734 -23.789 -14.136  0.00  0.00    +0.072 C 
ATOM     14  C   UNL     1      35.032 -24.001 -12.975  0.00  0.00    +0.008 C 
ATOM     15  C   UNL     1      37.017 -23.316 -14.093  0.00  0.00    +0.103 C 
ATOM     16  C   UNL     1      35.657 -23.725 -11.762  0.00  0.00    +0.021 C 
ATOM     17  C   UNL     1      36.957 -23.249 -11.797  0.00  0.00    +0.099 C 
ENDBRANCH  10  13
ENDBRANCH   1   9
BRANCH   1  18
ATOM     18  C   UNL     1      32.118 -22.939 -17.049  0.00  0.00    +0.050 C 
BRANCH  18  19
ATOM     19  C   UNL     1      31.583 -23.476 -15.764  0.00  0.00    -0.020 C 
ATOM     20  C   UNL     1      30.951 -24.719 -15.737  0.00  0.00    -0.004 C 
ATOM     21  C   UNL     1      31.716 -22.735 -14.590  0.00  0.00    -0.004 C 
ATOM     22  C   UNL     1      30.451 -25.221 -14.535  0.00  0.00    -0.000 C 
ATOM     23  C   UNL     1      31.215 -23.238 -13.388  0.00  0.00    -0.000 C 
ATOM     24  C   UNL     1      30.583 -24.480 -13.362  0.00  0.00    -0.000 C 
ENDBRANCH  18  19
ENDBRANCH   1  18
TORSDOF 5
ENDMDL
MODEL 5
REMARK VINA RESULT:      -9.5      1.548      4.813
REMARK  Name = 3033975
REMARK  5 active torsions:
REMARK  status: ('A' for Active; 'I' for Inactive)
REMARK    1  A    between atoms: C_1  and  C_2
REMARK    2  A    between atoms: C_1  and  N_9
REMARK    3  A    between atoms: C_1  and  C_18
REMARK    4  A    between atoms: C_10  and  C_13
REMARK    5  A    between atoms: C_18  and  C_19
REMARK                            x       y       z     vdW  Elec       q    Type
REMARK                         _______ _______ _______ _____ _____    ______ ____
ROOT
ATOM      1  C   UNL     1      33.951 -23.632 -15.961  0.00  0.00    +0.099 C 
ENDROOT
BRANCH   1   2
ATOM      2  C   UNL     1      34.422 -22.884 -17.196  0.00  0.00    -0.004 C 
ATOM      3  C   UNL     1      33.546 -22.716 -18.251  0.00  0.00    -0.003 C 
ATOM      4  C   UNL     1      35.711 -22.391 -17.228  0.00  0.00    -0.003 C 
ATOM      5  C   UNL     1      33.978 -22.028 -19.386  0.00  0.00    -0.000 C 
ATOM      6  C   UNL     1      36.143 -21.703 -18.363  0.00  0.00    -0.000 C 
ATOM      7  C   UNL     1      35.278 -21.521 -19.441  0.00  0.00    -0.000 C 
ENDBRANCH   1   2
BRANCH   1   9
ATOM      8  O   UNL     1      35.464 -26.071 -15.868  0.00  0.00    -0.270 OA
ATOM      9  N   UNL     1      35.079 -23.930 -15.070  0.00  0.00    -0.298 N 
ATOM     10  C   UNL     1      35.731 -25.138 -15.114  0.00  0.00    +0.248 C 
ATOM     11  H   UNL     1      35.375 -23.249 -14.424  0.00  0.00    +0.150 HD
BRANCH  10  13
ATOM     12  N   UNL     1      37.506 -25.470 -11.844  0.00  0.00    -0.242 NA
ATOM     13  C   UNL     1      36.834 -25.294 -14.130  0.00  0.00    +0.072 C 
ATOM     14  C   UNL     1      38.131 -25.400 -14.569  0.00  0.00    +0.008 C 
ATOM     15  C   UNL     1      36.550 -25.332 -12.792  0.00  0.00    +0.103 C 
ATOM     16  C   UNL     1      39.141 -25.543 -13.623  0.00  0.00    +0.021 C 
ATOM     17  C   UNL     1      38.779 -25.572 -12.287  0.00  0.00    +0.099 C 
ENDBRANCH  10  13
ENDBRANCH   1   9
BRANCH   1  18
ATOM     18  C   UNL     1      32.830 -22.880 -15.190  0.00  0.00    +0.050 C 
BRANCH  18  19
ATOM     19  C   UNL     1      31.491 -23.529 -15.287  0.00  0.00    -0.020 C 
ATOM     20  C   UNL     1      30.516 -22.992 -16.129  0.00  0.00    -0.004 C 
ATOM     21  C   UNL     1      31.213 -24.672 -14.538  0.00  0.00    -0.004 C 
ATOM     22  C   UNL     1      29.263 -23.599 -16.219  0.00  0.00    -0.000 C 
ATOM     23  C   UNL     1      29.960 -25.278 -14.629  0.00  0.00    -0.000 C 
ATOM     24  C   UNL     1      28.985 -24.741 -15.470  0.00  0.00    -0.000 C 
ENDBRANCH  18  19
ENDBRANCH   1  18
TORSDOF 5
ENDMDL
MODEL 6
REMARK VINA RESULT:      -8.8      0.891      4.881
REMARK  Name = 3033975
REMARK  5 active torsions:
REMARK  status: ('A' for Active; 'I' for Inactive)
REMARK    1  A    between atoms: C_1  and  C_2
REMARK    2  A    between atoms: C_1  and  N_9
REMARK    3  A    between atoms: C_1  and  C_18
REMARK    4  A    between atoms: C_10  and  C_13
REMARK    5  A    between atoms: C_18  and  C_19
REMARK                            x       y       z     vdW  Elec       q    Type
REMARK                         _______ _______ _______ _____ _____    ______ ____
ROOT
ATOM      1  C   UNL     1      33.379 -23.310 -17.320  0.00  0.00    +0.099 C 
ENDROOT
BRANCH   1   2
ATOM      2  C   UNL     1      33.811 -22.323 -18.390  0.00  0.00    -0.004 C 
ATOM      3  C   UNL     1      35.157 -22.176 -18.662  0.00  0.00    -0.003 C 
ATOM      4  C   UNL     1      32.845 -21.600 -19.062  0.00  0.00    -0.003 C 
ATOM      5  C   UNL     1      35.554 -21.269 -19.646  0.00  0.00    -0.000 C 
ATOM      6  C   UNL     1      33.242 -20.693 -20.046  0.00  0.00    -0.000 C 
ATOM      7  C   UNL     1      34.595 -20.528 -20.338  0.00  0.00    -0.000 C 
ENDBRANCH   1   2
BRANCH   1   9
ATOM      8  O   UNL     1      34.921 -22.544 -15.021  0.00  0.00    -0.270 OA
ATOM      9  N   UNL     1      34.540 -24.019 -16.766  0.00  0.00    -0.298 N 
ATOM     10  C   UNL     1      35.203 -23.557 -15.656  0.00  0.00    +0.248 C 
ATOM     11  H   UNL     1      34.851 -24.845 -17.202  0.00  0.00    +0.150 HD
BRANCH  10  13
ATOM     12  N   UNL     1      38.699 -24.463 -14.702  0.00  0.00    -0.242 NA
ATOM     13  C   UNL     1      36.373 -24.373 -15.237  0.00  0.00    +0.072 C 
ATOM     14  C   UNL     1      36.220 -25.719 -15.012  0.00  0.00    +0.008 C 
ATOM     15  C   UNL     1      37.595 -23.779 -15.079  0.00  0.00    +0.103 C 
ATOM     16  C   UNL     1      37.334 -26.457 -14.622  0.00  0.00    +0.021 C 
ATOM     17  C   UNL     1      38.539 -25.788 -14.483  0.00  0.00    +0.099 C 
ENDBRANCH  10  13
ENDBRANCH   1   9
BRANCH   1  18
ATOM     18  C   UNL     1      32.553 -22.646 -16.184  0.00  0.00    +0.050 C 
BRANCH  18  19
ATOM     19  C   UNL     1      31.341 -23.420 -15.787  0.00  0.00    -0.020 C 
ATOM     20  C   UNL     1      31.435 -24.412 -14.811  0.00  0.00    -0.004 C 
ATOM     21  C   UNL     1      30.113 -23.150 -16.392  0.00  0.00    -0.004 C 
ATOM     22  C   UNL     1      30.302 -25.135 -14.441  0.00  0.00    -0.000 C 
ATOM     23  C   UNL     1      28.980 -23.875 -16.021  0.00  0.00    -0.000 C 
ATOM     24  C   UNL     1      29.074 -24.867 -15.045  0.00  0.00    -0.000 C 
ENDBRANCH  18  19
ENDBRANCH   1  18
TORSDOF 5
ENDMDL
MODEL 7
REMARK VINA RESULT:      -8.6     13.019     15.765
REMARK  Name = 3033975
REMARK  5 active torsions:
REMARK  status: ('A' for Active; 'I' for Inactive)
REMARK    1  A    between atoms: C_1  and  C_2
REMARK    2  A    between atoms: C_1  and  N_9
REMARK    3  A    between atoms: C_1  and  C_18
REMARK    4  A    between atoms: C_10  and  C_13
REMARK    5  A    between atoms: C_18  and  C_19
REMARK                            x       y       z     vdW  Elec       q    Type
REMARK                         _______ _______ _______ _____ _____    ______ ____
ROOT
ATOM      1  C   UNL     1      32.093  -9.341 -23.021  0.00  0.00    +0.099 C 
ENDROOT
BRANCH   1   2
ATOM      2  C   UNL     1      31.933  -9.676 -21.549  0.00  0.00    -0.004 C 
ATOM      3  C   UNL     1      32.324  -8.747 -20.604  0.00  0.00    -0.003 C 
ATOM      4  C   UNL     1      31.401 -10.901 -21.195  0.00  0.00    -0.003 C 
ATOM      5  C   UNL     1      32.177  -9.055 -19.251  0.00  0.00    -0.000 C 
ATOM      6  C   UNL     1      31.253 -11.208 -19.842  0.00  0.00    -0.000 C 
ATOM      7  C   UNL     1      31.641 -10.287 -18.870  0.00  0.00    -0.000 C 
ENDBRANCH   1   2
BRANCH   1   9
ATOM      8  O   UNL     1      34.553 -10.409 -24.046  0.00  0.00    -0.270 OA
ATOM      9  N   UNL     1      32.253 -10.562 -23.820  0.00  0.00    -0.298 N 
ATOM     10  C   UNL     1      33.486 -10.979 -24.259  0.00  0.00    +0.248 C 
ATOM     11  H   UNL     1      31.457 -11.095 -24.049  0.00  0.00    +0.150 HD
BRANCH  10  13
ATOM     12  N   UNL     1      33.321 -14.601 -25.155  0.00  0.00    -0.242 NA
ATOM     13  C   UNL     1      33.476 -12.218 -25.078  0.00  0.00    +0.072 C 
ATOM     14  C   UNL     1      33.606 -12.136 -26.443  0.00  0.00    +0.008 C 
ATOM     15  C   UNL     1      33.337 -13.436 -24.469  0.00  0.00    +0.103 C 
ATOM     16  C   UNL     1      33.594 -13.314 -27.183  0.00  0.00    +0.021 C 
ATOM     17  C   UNL     1      33.450 -14.509 -26.498  0.00  0.00    +0.099 C 
ENDBRANCH  10  13
ENDBRANCH   1   9
BRANCH   1  18
ATOM     18  C   UNL     1      30.926  -8.476 -23.573  0.00  0.00    +0.050 C 
BRANCH  18  19
ATOM     19  C   UNL     1      31.208  -7.011 -23.575  0.00  0.00    -0.020 C 
ATOM     20  C   UNL     1      31.949  -6.445 -24.613  0.00  0.00    -0.004 C 
ATOM     21  C   UNL     1      30.730  -6.207 -22.541  0.00  0.00    -0.004 C 
ATOM     22  C   UNL     1      32.213  -5.076 -24.614  0.00  0.00    -0.000 C 
ATOM     23  C   UNL     1      30.994  -4.838 -22.543  0.00  0.00    -0.000 C 
ATOM     24  C   UNL     1      31.736  -4.272 -23.580  0.00  0.00    -0.000 C 
ENDBRANCH  18  19
ENDBRANCH   1  18
TORSDOF 5
ENDMDL
MODEL 8
REMARK VINA RESULT:      -8.6     13.451     16.964
REMARK  Name = 3033975
REMARK  5 active torsions:
REMARK  status: ('A' for Active; 'I' for Inactive)
REMARK    1  A    between atoms: C_1  and  C_2
REMARK    2  A    between atoms: C_1  and  N_9
REMARK    3  A    between atoms: C_1  and  C_18
REMARK    4  A    between atoms: C_10  and  C_13
REMARK    5  A    between atoms: C_18  and  C_19
REMARK                            x       y       z     vdW  Elec       q    Type
REMARK                         _______ _______ _______ _____ _____    ______ ____
ROOT
ATOM      1  C   UNL     1      32.405  -9.563 -23.339  0.00  0.00    +0.099 C 
ENDROOT
BRANCH   1   2
ATOM      2  C   UNL     1      32.001  -9.834 -21.900  0.00  0.00    -0.004 C 
ATOM      3  C   UNL     1      32.405  -8.956 -20.914  0.00  0.00    -0.003 C 
ATOM      4  C   UNL     1      31.240 -10.951 -21.619  0.00  0.00    -0.003 C 
ATOM      5  C   UNL     1      32.034  -9.204 -19.593  0.00  0.00    -0.000 C 
ATOM      6  C   UNL     1      30.868 -11.199 -20.297  0.00  0.00    -0.000 C 
ATOM      7  C   UNL     1      31.264 -10.327 -19.284  0.00  0.00    -0.000 C 
ENDBRANCH   1   2
BRANCH   1   9
ATOM      8  O   UNL     1      30.165  -7.895 -24.006  0.00  0.00    -0.270 OA
ATOM      9  N   UNL     1      32.436  -8.120 -23.609  0.00  0.00    -0.298 N 
ATOM     10  C   UNL     1      31.295  -7.421 -23.920  0.00  0.00    +0.248 C 
ATOM     11  H   UNL     1      33.295  -7.641 -23.568  0.00  0.00    +0.150 HD
BRANCH  10  13
ATOM     12  N   UNL     1      31.097  -3.710 -23.544  0.00  0.00    -0.242 NA
ATOM     13  C   UNL     1      31.498  -5.975 -24.192  0.00  0.00    +0.072 C 
ATOM     14  C   UNL     1      32.233  -5.582 -25.283  0.00  0.00    +0.008 C 
ATOM     15  C   UNL     1      30.951  -5.042 -23.353  0.00  0.00    +0.103 C 
ATOM     16  C   UNL     1      32.404  -4.220 -25.512  0.00  0.00    +0.021 C 
ATOM     17  C   UNL     1      31.821  -3.334 -24.621  0.00  0.00    +0.099 C 
ENDBRANCH  10  13
ENDBRANCH   1   9
BRANCH   1  18
ATOM     18  C   UNL     1      33.762 -10.218 -23.718  0.00  0.00    +0.050 C 
BRANCH  18  19
ATOM     19  C   UNL     1      33.625 -11.524 -24.427  0.00  0.00    -0.020 C 
ATOM     20  C   UNL     1      33.417 -12.694 -23.697  0.00  0.00    -0.004 C 
ATOM     21  C   UNL     1      33.704 -11.574 -25.818  0.00  0.00    -0.004 C 
ATOM     22  C   UNL     1      33.289 -13.915 -24.360  0.00  0.00    -0.000 C 
ATOM     23  C   UNL     1      33.575 -12.795 -26.480  0.00  0.00    -0.000 C 
ATOM     24  C   UNL     1      33.368 -13.965 -25.751  0.00  0.00    -0.000 C 
ENDBRANCH  18  19
ENDBRANCH   1  18
TORSDOF 5
ENDMDL
MODEL 9
REMARK VINA RESULT:      -8.6     13.063     15.763
REMARK  Name = 3033975
REMARK  5 active torsions:
REMARK  status: ('A' for Active; 'I' for Inactive)
REMARK    1  A    between atoms: C_1  and  C_2
REMARK    2  A    between atoms: C_1  and  N_9
REMARK    3  A    between atoms: C_1  and  C_18
REMARK    4  A    between atoms: C_10  and  C_13
REMARK    5  A    between atoms: C_18  and  C_19
REMARK                            x       y       z     vdW  Elec       q    Type
REMARK                         _______ _______ _______ _____ _____    ______ ____
ROOT
ATOM      1  C   UNL     1      32.089  -9.318 -23.021  0.00  0.00    +0.099 C 
ENDROOT
BRANCH   1   2
ATOM      2  C   UNL     1      31.930  -9.648 -21.547  0.00  0.00    -0.004 C 
ATOM      3  C   UNL     1      31.370 -10.859 -21.189  0.00  0.00    -0.003 C 
ATOM      4  C   UNL     1      32.349  -8.728 -20.607  0.00  0.00    -0.003 C 
ATOM      5  C   UNL     1      31.224 -11.163 -19.835  0.00  0.00    -0.000 C 
ATOM      6  C   UNL     1      32.203  -9.033 -19.253  0.00  0.00    -0.000 C 
ATOM      7  C   UNL     1      31.641 -10.248 -18.867  0.00  0.00    -0.000 C 
ENDBRANCH   1   2
BRANCH   1   9
ATOM      8  O   UNL     1      34.551 -10.406 -24.021  0.00  0.00    -0.270 OA
ATOM      9  N   UNL     1      32.248 -10.543 -23.816  0.00  0.00    -0.298 N 
ATOM     10  C   UNL     1      33.482 -10.969 -24.242  0.00  0.00    +0.248 C 
ATOM     11  H   UNL     1      31.451 -11.071 -24.050  0.00  0.00    +0.150 HD
BRANCH  10  13
ATOM     12  N   UNL     1      33.634 -13.225 -27.215  0.00  0.00    -0.242 NA
ATOM     13  C   UNL     1      33.471 -12.211 -25.058  0.00  0.00    +0.072 C 
ATOM     14  C   UNL     1      33.296 -13.429 -24.447  0.00  0.00    +0.008 C 
ATOM     15  C   UNL     1      33.635 -12.135 -26.415  0.00  0.00    +0.103 C 
ATOM     16  C   UNL     1      33.289 -14.573 -25.238  0.00  0.00    +0.021 C 
ATOM     17  C   UNL     1      33.460 -14.419 -26.604  0.00  0.00    +0.099 C 
ENDBRANCH  10  13
ENDBRANCH   1   9
BRANCH   1  18
ATOM     18  C   UNL     1      30.922  -8.455 -23.576  0.00  0.00    +0.050 C 
BRANCH  18  19
ATOM     19  C   UNL     1      31.201  -6.990 -23.576  0.00  0.00    -0.020 C 
ATOM     20  C   UNL     1      30.744  -6.194 -22.525  0.00  0.00    -0.004 C 
ATOM     21  C   UNL     1      31.920  -6.417 -24.624  0.00  0.00    -0.004 C 
ATOM     22  C   UNL     1      31.005  -4.823 -22.525  0.00  0.00    -0.000 C 
ATOM     23  C   UNL     1      32.181  -5.046 -24.623  0.00  0.00    -0.000 C 
ATOM     24  C   UNL     1      31.723  -4.250 -23.574  0.00  0.00    -0.000 C 
ENDBRANCH  18  19
ENDBRANCH   1  18
TORSDOF 5
ENDMDL
