MODEL 1
REMARK VINA RESULT:      -9.2      0.000      0.000
REMARK  Name = 439155
REMARK  11 active torsions:
REMARK  status: ('A' for Active; 'I' for Inactive)
REMARK    1  A    between atoms: C_2  and  O_18
REMARK    2  A    between atoms: C_3  and  O_20
REMARK    3  A    between atoms: C_4  and  C_22
REMARK    4  A    between atoms: C_5  and  N_6
REMARK    5  A    between atoms: C_22  and  S_23
REMARK    6  A    between atoms: S_23  and  C_24
REMARK    7  A    between atoms: C_24  and  C_25
REMARK    8  A    between atoms: C_25  and  C_26
REMARK    9  A    between atoms: C_26  and  N_27
REMARK   10  A    between atoms: C_26  and  C_32
REMARK   11  A    between atoms: C_32  and  O_33
REMARK                            x       y       z     vdW  Elec       q    Type
REMARK                         _______ _______ _______ _____ _____    ______ ____
ROOT
ATOM      1  O   UNK     1      34.504 -16.934 -20.920  0.00  0.00    -0.335 OA
ATOM      2  C   UNK     1      34.527 -16.437 -23.249  0.00  0.00    +0.169 C 
ATOM      3  C   UNK     1      34.286 -17.922 -23.062  0.00  0.00    +0.187 C 
ATOM      4  C   UNK     1      34.208 -15.879 -21.865  0.00  0.00    +0.157 C 
ATOM      5  C   UNK     1      34.809 -18.138 -21.650  0.00  0.00    +0.225 C 
ENDROOT
BRANCH   5   6
ATOM      6  N   UNK     1      34.223 -19.289 -20.968  0.00  0.00    -0.247 N 
ATOM      7  N   UNK     1      32.670 -20.729 -20.263  0.00  0.00    -0.242 NA
ATOM      8  N   UNK     1      36.193 -20.270 -19.940  0.00  0.00    -0.228 NA
ATOM      9  N   UNK     1      35.627 -22.276 -18.671  0.00  0.00    -0.229 NA
ATOM     10  C   UNK     1      34.881 -20.220 -20.212  0.00  0.00    +0.152 C 
ATOM     11  C   UNK     1      32.897 -19.639 -20.967  0.00  0.00    +0.223 C 
ATOM     12  C   UNK     1      33.901 -21.103 -19.787  0.00  0.00    +0.140 C 
ATOM     13  C   UNK     1      34.315 -22.162 -18.987  0.00  0.00    +0.143 C 
ATOM     14  C   UNK     1      36.472 -21.337 -19.160  0.00  0.00    +0.253 C 
ATOM     15  N   UNK     1      33.389 -23.107 -18.510  0.00  0.00    -0.342 N 
ATOM     16  H   UNK     1      33.693 -23.853 -17.945  0.00  0.00    +0.144 HD
ATOM     17  H   UNK     1      32.435 -23.022 -18.742  0.00  0.00    +0.144 HD
ENDBRANCH   5   6
BRANCH   2  18
ATOM     18  O   UNK     1      35.908 -16.211 -23.529  0.00  0.00    -0.379 OA
ATOM     19  H   UNK     1      36.254 -16.943 -24.062  0.00  0.00    +0.211 HD
ENDBRANCH   2  18
BRANCH   3  20
ATOM     20  O   UNK     1      34.974 -18.717 -24.006  0.00  0.00    -0.378 OA
ATOM     21  H   UNK     1      34.784 -19.654 -23.840  0.00  0.00    +0.211 HD
ENDBRANCH   3  20
BRANCH   4  22
ATOM     22  C   UNK     1      32.746 -15.489 -21.705  0.00  0.00    +0.090 C 
BRANCH  22  23
ATOM     23  S   UNK     1      32.575 -13.686 -21.652  0.00  0.00    -0.138 S 
BRANCH  23  24
ATOM     24  C   UNK     1      32.688 -13.355 -23.426  0.00  0.00    +0.056 C 
BRANCH  24  25
ATOM     25  C   UNK     1      33.902 -12.502 -23.804  0.00  0.00    +0.001 C 
BRANCH  25  26
ATOM     26  C   UNK     1      33.710 -11.579 -25.017  0.00  0.00    +0.037 C 
BRANCH  26  27
ATOM     27  N   UNK     1      33.576 -12.395 -26.227  0.00  0.00    +0.389 N 
ATOM     28  H   UNK     1      34.088 -11.957 -26.992  0.00  0.00    -0.088 HD
ATOM     29  H   UNK     1      32.590 -12.472 -26.477  0.00  0.00    -0.088 HD
ATOM     30  H   UNK     1      33.955 -13.327 -26.054  0.00  0.00    -0.088 HD
ENDBRANCH  26  27
BRANCH  26  32
ATOM     31  O   UNK     1      35.499 -10.528 -26.296  0.00  0.00    -0.253 OA
ATOM     32  C   UNK     1      34.923 -10.691 -25.227  0.00  0.00    +0.293 C 
BRANCH  32  33
ATOM     33  O   UNK     1      35.303 -10.056 -24.087  0.00  0.00    -0.482 OA
ATOM     34  H   UNK     1      34.755 -10.090 -23.328  0.00  0.00    +0.295 HD
ENDBRANCH  32  33
ENDBRANCH  26  32
ENDBRANCH  25  26
ENDBRANCH  24  25
ENDBRANCH  23  24
ENDBRANCH  22  23
ENDBRANCH   4  22
TORSDOF 11
ENDMDL
MODEL 2
REMARK VINA RESULT:      -9.2      1.339      1.489
REMARK  Name = 439155
REMARK  11 active torsions:
REMARK  status: ('A' for Active; 'I' for Inactive)
REMARK    1  A    between atoms: C_2  and  O_18
REMARK    2  A    between atoms: C_3  and  O_20
REMARK    3  A    between atoms: C_4  and  C_22
REMARK    4  A    between atoms: C_5  and  N_6
REMARK    5  A    between atoms: C_22  and  S_23
REMARK    6  A    between atoms: S_23  and  C_24
REMARK    7  A    between atoms: C_24  and  C_25
REMARK    8  A    between atoms: C_25  and  C_26
REMARK    9  A    between atoms: C_26  and  N_27
REMARK   10  A    between atoms: C_26  and  C_32
REMARK   11  A    between atoms: C_32  and  O_33
REMARK                            x       y       z     vdW  Elec       q    Type
REMARK                         _______ _______ _______ _____ _____    ______ ____
ROOT
ATOM      1  O   UNK     1      34.818 -17.367 -20.693  0.00  0.00    -0.335 OA
ATOM      2  C   UNK     1      34.671 -16.794 -22.999  0.00  0.00    +0.169 C 
ATOM      3  C   UNK     1      34.301 -18.254 -22.827  0.00  0.00    +0.187 C 
ATOM      4  C   UNK     1      34.541 -16.256 -21.578  0.00  0.00    +0.157 C 
ATOM      5  C   UNK     1      34.930 -18.569 -21.479  0.00  0.00    +0.225 C 
ENDROOT
BRANCH   5   6
ATOM      6  N   UNK     1      34.298 -19.680 -20.772  0.00  0.00    -0.247 N 
ATOM      7  N   UNK     1      32.701 -21.083 -20.094  0.00  0.00    -0.242 NA
ATOM      8  N   UNK     1      36.191 -20.587 -19.549  0.00  0.00    -0.228 NA
ATOM      9  N   UNK     1      35.539 -22.516 -18.204  0.00  0.00    -0.229 NA
ATOM     10  C   UNK     1      34.902 -20.560 -19.916  0.00  0.00    +0.152 C 
ATOM     11  C   UNK     1      32.976 -20.037 -20.844  0.00  0.00    +0.223 C 
ATOM     12  C   UNK     1      33.895 -21.421 -19.509  0.00  0.00    +0.140 C 
ATOM     13  C   UNK     1      34.252 -22.428 -18.619  0.00  0.00    +0.143 C 
ATOM     14  C   UNK     1      36.415 -21.603 -18.688  0.00  0.00    +0.253 C 
ATOM     15  N   UNK     1      33.295 -23.348 -18.154  0.00  0.00    -0.342 N 
ATOM     16  H   UNK     1      33.560 -24.056 -17.523  0.00  0.00    +0.144 HD
ATOM     17  H   UNK     1      32.361 -23.282 -18.457  0.00  0.00    +0.144 HD
ENDBRANCH   5   6
BRANCH   2  18
ATOM     18  O   UNK     1      36.035 -16.694 -23.407  0.00  0.00    -0.379 OA
ATOM     19  H   UNK     1      36.214 -17.347 -24.102  0.00  0.00    +0.211 HD
ENDBRANCH   2  18
BRANCH   3  20
ATOM     20  O   UNK     1      34.813 -19.080 -23.853  0.00  0.00    -0.378 OA
ATOM     21  H   UNK     1      34.183 -19.794 -24.038  0.00  0.00    +0.211 HD
ENDBRANCH   3  20
BRANCH   4  22
ATOM     22  C   UNK     1      33.147 -15.731 -21.267  0.00  0.00    +0.090 C 
BRANCH  22  23
ATOM     23  S   UNK     1      33.107 -13.925 -21.406  0.00  0.00    -0.138 S 
BRANCH  23  24
ATOM     24  C   UNK     1      32.382 -13.801 -23.058  0.00  0.00    +0.056 C 
BRANCH  24  25
ATOM     25  C   UNK     1      33.429 -13.685 -24.169  0.00  0.00    +0.001 C 
BRANCH  25  26
ATOM     26  C   UNK     1      32.955 -14.093 -25.571  0.00  0.00    +0.037 C 
BRANCH  26  27
ATOM     27  N   UNK     1      33.470 -15.429 -25.885  0.00  0.00    +0.389 N 
ATOM     28  H   UNK     1      32.702 -16.100 -25.877  0.00  0.00    -0.088 HD
ATOM     29  H   UNK     1      34.164 -15.698 -25.188  0.00  0.00    -0.088 HD
ATOM     30  H   UNK     1      33.903 -15.418 -26.809  0.00  0.00    -0.088 HD
ENDBRANCH  26  27
BRANCH  26  32
ATOM     31  O   UNK     1      33.712 -13.462 -27.800  0.00  0.00    -0.253 OA
ATOM     32  C   UNK     1      33.507 -13.156 -26.631  0.00  0.00    +0.293 C 
BRANCH  32  33
ATOM     33  O   UNK     1      33.731 -11.906 -26.150  0.00  0.00    -0.482 OA
ATOM     34  H   UNK     1      33.125 -11.520 -25.550  0.00  0.00    +0.295 HD
ENDBRANCH  32  33
ENDBRANCH  26  32
ENDBRANCH  25  26
ENDBRANCH  24  25
ENDBRANCH  23  24
ENDBRANCH  22  23
ENDBRANCH   4  22
TORSDOF 11
ENDMDL
MODEL 3
REMARK VINA RESULT:      -9.1      7.499     10.557
REMARK  Name = 439155
REMARK  11 active torsions:
REMARK  status: ('A' for Active; 'I' for Inactive)
REMARK    1  A    between atoms: C_2  and  O_18
REMARK    2  A    between atoms: C_3  and  O_20
REMARK    3  A    between atoms: C_4  and  C_22
REMARK    4  A    between atoms: C_5  and  N_6
REMARK    5  A    between atoms: C_22  and  S_23
REMARK    6  A    between atoms: S_23  and  C_24
REMARK    7  A    between atoms: C_24  and  C_25
REMARK    8  A    between atoms: C_25  and  C_26
REMARK    9  A    between atoms: C_26  and  N_27
REMARK   10  A    between atoms: C_26  and  C_32
REMARK   11  A    between atoms: C_32  and  O_33
REMARK                            x       y       z     vdW  Elec       q    Type
REMARK                         _______ _______ _______ _____ _____    ______ ____
ROOT
ATOM      1  O   UNK     1      34.630 -24.487 -15.760  0.00  0.00    -0.335 OA
ATOM      2  C   UNK     1      36.237 -23.491 -14.313  0.00  0.00    +0.169 C 
ATOM      3  C   UNK     1      35.952 -22.544 -15.462  0.00  0.00    +0.187 C 
ATOM      4  C   UNK     1      35.049 -24.446 -14.376  0.00  0.00    +0.157 C 
ATOM      5  C   UNK     1      35.367 -23.493 -16.497  0.00  0.00    +0.225 C 
ENDROOT
BRANCH   5   6
ATOM      6  N   UNK     1      34.487 -22.845 -17.467  0.00  0.00    -0.247 N 
ATOM      7  N   UNK     1      32.602 -22.262 -18.510  0.00  0.00    -0.242 NA
ATOM      8  N   UNK     1      36.098 -21.617 -18.806  0.00  0.00    -0.228 NA
ATOM      9  N   UNK     1      35.000 -20.364 -20.590  0.00  0.00    -0.229 NA
ATOM     10  C   UNK     1      34.857 -22.012 -18.486  0.00  0.00    +0.152 C 
ATOM     11  C   UNK     1      33.122 -22.964 -17.525  0.00  0.00    +0.223 C 
ATOM     12  C   UNK     1      33.676 -21.661 -19.118  0.00  0.00    +0.140 C 
ATOM     13  C   UNK     1      33.777 -20.804 -20.209  0.00  0.00    +0.143 C 
ATOM     14  C   UNK     1      36.069 -20.791 -19.875  0.00  0.00    +0.253 C 
ATOM     15  N   UNK     1      32.628 -20.395 -20.910  0.00  0.00    -0.342 N 
ATOM     16  H   UNK     1      32.713 -19.788 -21.681  0.00  0.00    +0.144 HD
ATOM     17  H   UNK     1      31.741 -20.716 -20.630  0.00  0.00    +0.144 HD
ENDBRANCH   5   6
BRANCH   2  18
ATOM     18  O   UNK     1      37.431 -24.224 -14.586  0.00  0.00    -0.379 OA
ATOM     19  H   UNK     1      38.098 -24.018 -13.912  0.00  0.00    +0.211 HD
ENDBRANCH   2  18
BRANCH   3  20
ATOM     20  O   UNK     1      37.110 -21.891 -15.941  0.00  0.00    -0.378 OA
ATOM     21  H   UNK     1      37.435 -22.348 -16.733  0.00  0.00    +0.211 HD
ENDBRANCH   3  20
BRANCH   4  22
ATOM     22  C   UNK     1      33.871 -23.984 -13.531  0.00  0.00    +0.090 C 
BRANCH  22  23
ATOM     23  S   UNK     1      32.342 -24.777 -14.091  0.00  0.00    -0.138 S 
BRANCH  23  24
ATOM     24  C   UNK     1      31.280 -23.314 -14.128  0.00  0.00    +0.056 C 
BRANCH  24  25
ATOM     25  C   UNK     1      30.512 -23.160 -15.443  0.00  0.00    +0.001 C 
BRANCH  25  26
ATOM     26  C   UNK     1      29.012 -23.482 -15.375  0.00  0.00    +0.037 C 
BRANCH  26  27
ATOM     27  N   UNK     1      28.838 -24.905 -15.064  0.00  0.00    +0.389 N 
ATOM     28  H   UNK     1      28.249 -25.339 -15.775  0.00  0.00    -0.088 HD
ATOM     29  H   UNK     1      28.396 -25.001 -14.150  0.00  0.00    -0.088 HD
ATOM     30  H   UNK     1      29.749 -25.364 -15.051  0.00  0.00    -0.088 HD
ENDBRANCH  26  27
BRANCH  26  32
ATOM     31  O   UNK     1      27.792 -24.113 -17.389  0.00  0.00    -0.253 OA
ATOM     32  C   UNK     1      28.339 -23.247 -16.716  0.00  0.00    +0.293 C 
BRANCH  32  33
ATOM     33  O   UNK     1      28.381 -21.944 -17.094  0.00  0.00    -0.482 OA
ATOM     34  H   UNK     1      29.173 -21.581 -17.437  0.00  0.00    +0.295 HD
ENDBRANCH  32  33
ENDBRANCH  26  32
ENDBRANCH  25  26
ENDBRANCH  24  25
ENDBRANCH  23  24
ENDBRANCH  22  23
ENDBRANCH   4  22
TORSDOF 11
ENDMDL
MODEL 4
REMARK VINA RESULT:      -9.0      2.548      2.809
REMARK  Name = 439155
REMARK  11 active torsions:
REMARK  status: ('A' for Active; 'I' for Inactive)
REMARK    1  A    between atoms: C_2  and  O_18
REMARK    2  A    between atoms: C_3  and  O_20
REMARK    3  A    between atoms: C_4  and  C_22
REMARK    4  A    between atoms: C_5  and  N_6
REMARK    5  A    between atoms: C_22  and  S_23
REMARK    6  A    between atoms: S_23  and  C_24
REMARK    7  A    between atoms: C_24  and  C_25
REMARK    8  A    between atoms: C_25  and  C_26
REMARK    9  A    between atoms: C_26  and  N_27
REMARK   10  A    between atoms: C_26  and  C_32
REMARK   11  A    between atoms: C_32  and  O_33
REMARK                            x       y       z     vdW  Elec       q    Type
REMARK                         _______ _______ _______ _____ _____    ______ ____
ROOT
ATOM      1  O   UNK     1      34.534 -16.841 -20.953  0.00  0.00    -0.335 OA
ATOM      2  C   UNK     1      34.477 -16.322 -23.276  0.00  0.00    +0.169 C 
ATOM      3  C   UNK     1      34.215 -17.804 -23.094  0.00  0.00    +0.187 C 
ATOM      4  C   UNK     1      34.222 -15.772 -21.876  0.00  0.00    +0.157 C 
ATOM      5  C   UNK     1      34.787 -18.043 -21.705  0.00  0.00    +0.225 C 
ENDROOT
BRANCH   5   6
ATOM      6  N   UNK     1      34.205 -19.190 -21.011  0.00  0.00    -0.247 N 
ATOM      7  N   UNK     1      32.653 -20.606 -20.260  0.00  0.00    -0.242 NA
ATOM      8  N   UNK     1      36.194 -20.221 -20.072  0.00  0.00    -0.228 NA
ATOM      9  N   UNK     1      35.639 -22.228 -18.801  0.00  0.00    -0.229 NA
ATOM     10  C   UNK     1      34.874 -20.141 -20.292  0.00  0.00    +0.152 C 
ATOM     11  C   UNK     1      32.874 -19.514 -20.961  0.00  0.00    +0.223 C 
ATOM     12  C   UNK     1      33.894 -21.009 -19.836  0.00  0.00    +0.140 C 
ATOM     13  C   UNK     1      34.317 -22.085 -19.063  0.00  0.00    +0.143 C 
ATOM     14  C   UNK     1      36.482 -21.301 -19.314  0.00  0.00    +0.253 C 
ATOM     15  N   UNK     1      33.392 -23.016 -18.559  0.00  0.00    -0.342 N 
ATOM     16  H   UNK     1      33.703 -23.773 -18.013  0.00  0.00    +0.144 HD
ATOM     17  H   UNK     1      32.432 -22.910 -18.753  0.00  0.00    +0.144 HD
ENDBRANCH   5   6
BRANCH   2  18
ATOM     18  O   UNK     1      35.851 -16.119 -23.607  0.00  0.00    -0.379 OA
ATOM     19  H   UNK     1      36.320 -16.968 -23.573  0.00  0.00    +0.211 HD
ENDBRANCH   2  18
BRANCH   3  20
ATOM     20  O   UNK     1      34.850 -18.602 -24.071  0.00  0.00    -0.378 OA
ATOM     21  H   UNK     1      34.182 -18.973 -24.670  0.00  0.00    +0.211 HD
ENDBRANCH   3  20
BRANCH   4  22
ATOM     22  C   UNK     1      32.775 -15.355 -21.656  0.00  0.00    +0.090 C 
BRANCH  22  23
ATOM     23  S   UNK     1      32.698 -13.827 -20.686  0.00  0.00    -0.138 S 
BRANCH  23  24
ATOM     24  C   UNK     1      31.968 -12.750 -21.942  0.00  0.00    +0.056 C 
BRANCH  24  25
ATOM     25  C   UNK     1      31.158 -11.595 -21.347  0.00  0.00    +0.001 C 
BRANCH  25  26
ATOM     26  C   UNK     1      31.842 -10.823 -20.210  0.00  0.00    +0.037 C 
BRANCH  26  27
ATOM     27  N   UNK     1      30.956 -10.799 -19.042  0.00  0.00    +0.389 N 
ATOM     28  H   UNK     1      31.298 -11.456 -18.341  0.00  0.00    -0.088 HD
ATOM     29  H   UNK     1      30.013 -11.065 -19.326  0.00  0.00    -0.088 HD
ATOM     30  H   UNK     1      30.939  -9.858 -18.647  0.00  0.00    -0.088 HD
ENDBRANCH  26  27
BRANCH  26  32
ATOM     31  O   UNK     1      31.739  -8.864 -21.656  0.00  0.00    -0.253 OA
ATOM     32  C   UNK     1      32.085  -9.376 -20.598  0.00  0.00    +0.293 C 
BRANCH  32  33
ATOM     33  O   UNK     1      32.717  -8.677 -19.619  0.00  0.00    -0.482 OA
ATOM     34  H   UNK     1      33.137  -7.865 -19.820  0.00  0.00    +0.295 HD
ENDBRANCH  32  33
ENDBRANCH  26  32
ENDBRANCH  25  26
ENDBRANCH  24  25
ENDBRANCH  23  24
ENDBRANCH  22  23
ENDBRANCH   4  22
TORSDOF 11
ENDMDL
MODEL 5
REMARK VINA RESULT:      -8.6      9.684     11.012
REMARK  Name = 439155
REMARK  11 active torsions:
REMARK  status: ('A' for Active; 'I' for Inactive)
REMARK    1  A    between atoms: C_2  and  O_18
REMARK    2  A    between atoms: C_3  and  O_20
REMARK    3  A    between atoms: C_4  and  C_22
REMARK    4  A    between atoms: C_5  and  N_6
REMARK    5  A    between atoms: C_22  and  S_23
REMARK    6  A    between atoms: S_23  and  C_24
REMARK    7  A    between atoms: C_24  and  C_25
REMARK    8  A    between atoms: C_25  and  C_26
REMARK    9  A    between atoms: C_26  and  N_27
REMARK   10  A    between atoms: C_26  and  C_32
REMARK   11  A    between atoms: C_32  and  O_33
REMARK                            x       y       z     vdW  Elec       q    Type
REMARK                         _______ _______ _______ _____ _____    ______ ____
ROOT
ATOM      1  O   UNK     1      33.943 -22.859 -14.814  0.00  0.00    -0.335 OA
ATOM      2  C   UNK     1      32.533 -23.581 -16.591  0.00  0.00    +0.169 C 
ATOM      3  C   UNK     1      33.979 -23.817 -16.980  0.00  0.00    +0.187 C 
ATOM      4  C   UNK     1      32.628 -23.401 -15.079  0.00  0.00    +0.157 C 
ATOM      5  C   UNK     1      34.703 -22.869 -16.037  0.00  0.00    +0.225 C 
ENDROOT
BRANCH   5   6
ATOM      6  N   UNK     1      36.085 -23.250 -15.755  0.00  0.00    -0.247 N 
ATOM      7  N   UNK     1      38.292 -23.049 -15.490  0.00  0.00    -0.242 NA
ATOM      8  N   UNK     1      35.822 -25.612 -15.257  0.00  0.00    -0.228 NA
ATOM      9  N   UNK     1      37.964 -26.651 -14.719  0.00  0.00    -0.229 NA
ATOM     10  C   UNK     1      36.542 -24.491 -15.409  0.00  0.00    +0.152 C 
ATOM     11  C   UNK     1      37.176 -22.419 -15.791  0.00  0.00    +0.223 C 
ATOM     12  C   UNK     1      37.910 -24.345 -15.248  0.00  0.00    +0.140 C 
ATOM     13  C   UNK     1      38.626 -25.482 -14.890  0.00  0.00    +0.143 C 
ATOM     14  C   UNK     1      36.623 -26.644 -14.910  0.00  0.00    +0.253 C 
ATOM     15  N   UNK     1      40.019 -25.425 -14.704  0.00  0.00    -0.342 N 
ATOM     16  H   UNK     1      40.515 -26.237 -14.450  0.00  0.00    +0.144 HD
ATOM     17  H   UNK     1      40.498 -24.574 -14.828  0.00  0.00    +0.144 HD
ENDBRANCH   5   6
BRANCH   2  18
ATOM     18  O   UNK     1      32.076 -22.361 -17.172  0.00  0.00    -0.379 OA
ATOM     19  H   UNK     1      31.421 -22.556 -17.861  0.00  0.00    +0.211 HD
ENDBRANCH   2  18
BRANCH   3  20
ATOM     20  O   UNK     1      34.243 -23.516 -18.335  0.00  0.00    -0.378 OA
ATOM     21  H   UNK     1      33.793 -22.690 -18.577  0.00  0.00    +0.211 HD
ENDBRANCH   3  20
BRANCH   4  22
ATOM     22  C   UNK     1      32.484 -24.709 -14.315  0.00  0.00    +0.090 C 
BRANCH  22  23
ATOM     23  S   UNK     1      30.852 -24.810 -13.536  0.00  0.00    -0.138 S 
BRANCH  23  24
ATOM     24  C   UNK     1      29.917 -25.427 -14.955  0.00  0.00    +0.056 C 
BRANCH  24  25
ATOM     25  C   UNK     1      28.699 -24.564 -15.296  0.00  0.00    +0.001 C 
BRANCH  25  26
ATOM     26  C   UNK     1      29.003 -23.256 -16.041  0.00  0.00    +0.037 C 
BRANCH  26  27
ATOM     27  N   UNK     1      29.003 -22.145 -15.084  0.00  0.00    +0.389 N 
ATOM     28  H   UNK     1      28.050 -21.964 -14.772  0.00  0.00    -0.088 HD
ATOM     29  H   UNK     1      29.379 -21.310 -15.534  0.00  0.00    -0.088 HD
ATOM     30  H   UNK     1      29.584 -22.388 -14.281  0.00  0.00    -0.088 HD
ENDBRANCH  26  27
BRANCH  26  32
ATOM     31  O   UNK     1      27.400 -23.769 -17.804  0.00  0.00    -0.253 OA
ATOM     32  C   UNK     1      27.925 -22.945 -17.064  0.00  0.00    +0.293 C 
BRANCH  32  33
ATOM     33  O   UNK     1      27.573 -21.634 -17.062  0.00  0.00    -0.482 OA
ATOM     34  H   UNK     1      28.064 -21.016 -17.566  0.00  0.00    +0.295 HD
ENDBRANCH  32  33
ENDBRANCH  26  32
ENDBRANCH  25  26
ENDBRANCH  24  25
ENDBRANCH  23  24
ENDBRANCH  22  23
ENDBRANCH   4  22
TORSDOF 11
ENDMDL
MODEL 6
REMARK VINA RESULT:      -8.5      8.717     11.996
REMARK  Name = 439155
REMARK  11 active torsions:
REMARK  status: ('A' for Active; 'I' for Inactive)
REMARK    1  A    between atoms: C_2  and  O_18
REMARK    2  A    between atoms: C_3  and  O_20
REMARK    3  A    between atoms: C_4  and  C_22
REMARK    4  A    between atoms: C_5  and  N_6
REMARK    5  A    between atoms: C_22  and  S_23
REMARK    6  A    between atoms: S_23  and  C_24
REMARK    7  A    between atoms: C_24  and  C_25
REMARK    8  A    between atoms: C_25  and  C_26
REMARK    9  A    between atoms: C_26  and  N_27
REMARK   10  A    between atoms: C_26  and  C_32
REMARK   11  A    between atoms: C_32  and  O_33
REMARK                            x       y       z     vdW  Elec       q    Type
REMARK                         _______ _______ _______ _____ _____    ______ ____
ROOT
ATOM      1  O   UNK     1      35.563 -24.226 -15.294  0.00  0.00    -0.335 OA
ATOM      2  C   UNK     1      37.347 -22.652 -15.216  0.00  0.00    +0.169 C 
ATOM      3  C   UNK     1      36.245 -22.108 -16.104  0.00  0.00    +0.187 C 
ATOM      4  C   UNK     1      36.626 -23.747 -14.437  0.00  0.00    +0.157 C 
ATOM      5  C   UNK     1      35.486 -23.378 -16.455  0.00  0.00    +0.225 C 
ENDROOT
BRANCH   5   6
ATOM      6  N   UNK     1      34.086 -23.156 -16.811  0.00  0.00    -0.247 N 
ATOM      7  N   UNK     1      32.302 -22.686 -18.066  0.00  0.00    -0.242 NA
ATOM      8  N   UNK     1      32.998 -23.541 -14.674  0.00  0.00    -0.228 NA
ATOM      9  N   UNK     1      30.580 -23.261 -14.845  0.00  0.00    -0.229 NA
ATOM     10  C   UNK     1      33.003 -23.240 -15.981  0.00  0.00    +0.152 C 
ATOM     11  C   UNK     1      33.612 -22.820 -18.053  0.00  0.00    +0.223 C 
ATOM     12  C   UNK     1      31.909 -22.947 -16.778  0.00  0.00    +0.140 C 
ATOM     13  C   UNK     1      30.661 -22.964 -16.164  0.00  0.00    +0.143 C 
ATOM     14  C   UNK     1      31.736 -23.527 -14.192  0.00  0.00    +0.253 C 
ATOM     15  N   UNK     1      29.495 -22.680 -16.898  0.00  0.00    -0.342 N 
ATOM     16  H   UNK     1      28.617 -22.695 -16.452  0.00  0.00    +0.144 HD
ATOM     17  H   UNK     1      29.557 -22.465 -17.857  0.00  0.00    +0.144 HD
ENDBRANCH   5   6
BRANCH   2  18
ATOM     18  O   UNK     1      38.358 -23.252 -16.025  0.00  0.00    -0.379 OA
ATOM     19  H   UNK     1      38.901 -23.842 -15.479  0.00  0.00    +0.211 HD
ENDBRANCH   2  18
BRANCH   3  20
ATOM     20  O   UNK     1      36.736 -21.452 -17.255  0.00  0.00    -0.378 OA
ATOM     21  H   UNK     1      36.990 -22.112 -17.920  0.00  0.00    +0.211 HD
ENDBRANCH   3  20
BRANCH   4  22
ATOM     22  C   UNK     1      36.007 -23.245 -13.140  0.00  0.00    +0.090 C 
BRANCH  22  23
ATOM     23  S   UNK     1      36.637 -24.193 -11.731  0.00  0.00    -0.138 S 
BRANCH  23  24
ATOM     24  C   UNK     1      38.375 -24.278 -12.221  0.00  0.00    +0.056 C 
BRANCH  24  25
ATOM     25  C   UNK     1      38.804 -25.674 -12.682  0.00  0.00    +0.001 C 
BRANCH  25  26
ATOM     26  C   UNK     1      38.805 -25.898 -14.201  0.00  0.00    +0.037 C 
BRANCH  26  27
ATOM     27  N   UNK     1      38.071 -27.130 -14.507  0.00  0.00    +0.389 N 
ATOM     28  H   UNK     1      37.680 -27.516 -13.648  0.00  0.00    -0.088 HD
ATOM     29  H   UNK     1      38.707 -27.808 -14.927  0.00  0.00    -0.088 HD
ATOM     30  H   UNK     1      37.316 -26.923 -15.161  0.00  0.00    -0.088 HD
ENDBRANCH  26  27
BRANCH  26  32
ATOM     31  O   UNK     1      41.153 -26.538 -14.073  0.00  0.00    -0.253 OA
ATOM     32  C   UNK     1      40.216 -26.093 -14.725  0.00  0.00    +0.293 C 
BRANCH  32  33
ATOM     33  O   UNK     1      40.335 -25.741 -16.031  0.00  0.00    -0.482 OA
ATOM     34  H   UNK     1      40.517 -24.852 -16.262  0.00  0.00    +0.295 HD
ENDBRANCH  32  33
ENDBRANCH  26  32
ENDBRANCH  25  26
ENDBRANCH  24  25
ENDBRANCH  23  24
ENDBRANCH  22  23
ENDBRANCH   4  22
TORSDOF 11
ENDMDL
MODEL 7
REMARK VINA RESULT:      -8.5      3.433      4.732
REMARK  Name = 439155
REMARK  11 active torsions:
REMARK  status: ('A' for Active; 'I' for Inactive)
REMARK    1  A    between atoms: C_2  and  O_18
REMARK    2  A    between atoms: C_3  and  O_20
REMARK    3  A    between atoms: C_4  and  C_22
REMARK    4  A    between atoms: C_5  and  N_6
REMARK    5  A    between atoms: C_22  and  S_23
REMARK    6  A    between atoms: S_23  and  C_24
REMARK    7  A    between atoms: C_24  and  C_25
REMARK    8  A    between atoms: C_25  and  C_26
REMARK    9  A    between atoms: C_26  and  N_27
REMARK   10  A    between atoms: C_26  and  C_32
REMARK   11  A    between atoms: C_32  and  O_33
REMARK                            x       y       z     vdW  Elec       q    Type
REMARK                         _______ _______ _______ _____ _____    ______ ____
ROOT
ATOM      1  O   UNK     1      34.170 -13.340 -22.636  0.00  0.00    -0.335 OA
ATOM      2  C   UNK     1      32.781 -13.345 -24.570  0.00  0.00    +0.169 C 
ATOM      3  C   UNK     1      33.156 -14.773 -24.226  0.00  0.00    +0.187 C 
ATOM      4  C   UNK     1      33.100 -12.604 -23.276  0.00  0.00    +0.157 C 
ATOM      5  C   UNK     1      34.392 -14.562 -23.365  0.00  0.00    +0.225 C 
ENDROOT
BRANCH   5   6
ATOM      6  N   UNK     1      34.659 -15.652 -22.430  0.00  0.00    -0.247 N 
ATOM      7  N   UNK     1      35.013 -16.696 -20.490  0.00  0.00    -0.242 NA
ATOM      8  N   UNK     1      34.829 -17.537 -23.951  0.00  0.00    -0.228 NA
ATOM      9  N   UNK     1      35.284 -19.612 -22.749  0.00  0.00    -0.229 NA
ATOM     10  C   UNK     1      34.848 -16.971 -22.736  0.00  0.00    +0.152 C 
ATOM     11  C   UNK     1      34.768 -15.539 -21.068  0.00  0.00    +0.223 C 
ATOM     12  C   UNK     1      35.065 -17.600 -21.521  0.00  0.00    +0.140 C 
ATOM     13  C   UNK     1      35.289 -18.972 -21.555  0.00  0.00    +0.143 C 
ATOM     14  C   UNK     1      35.057 -18.865 -23.857  0.00  0.00    +0.253 C 
ATOM     15  N   UNK     1      35.516 -19.693 -20.369  0.00  0.00    -0.342 N 
ATOM     16  H   UNK     1      35.674 -20.664 -20.405  0.00  0.00    +0.144 HD
ATOM     17  H   UNK     1      35.519 -19.225 -19.502  0.00  0.00    +0.144 HD
ENDBRANCH   5   6
BRANCH   2  18
ATOM     18  O   UNK     1      33.641 -12.863 -25.601  0.00  0.00    -0.379 OA
ATOM     19  H   UNK     1      33.932 -13.605 -26.154  0.00  0.00    +0.211 HD
ENDBRANCH   2  18
BRANCH   3  20
ATOM     20  O   UNK     1      33.435 -15.562 -25.365  0.00  0.00    -0.378 OA
ATOM     21  H   UNK     1      34.050 -15.085 -25.945  0.00  0.00    +0.211 HD
ENDBRANCH   3  20
BRANCH   4  22
ATOM     22  C   UNK     1      31.919 -12.545 -22.318  0.00  0.00    +0.090 C 
BRANCH  22  23
ATOM     23  S   UNK     1      31.260 -10.860 -22.230  0.00  0.00    -0.138 S 
BRANCH  23  24
ATOM     24  C   UNK     1      32.606 -10.003 -23.080  0.00  0.00    +0.056 C 
BRANCH  24  25
ATOM     25  C   UNK     1      32.982  -8.672 -22.422  0.00  0.00    +0.001 C 
BRANCH  25  26
ATOM     26  C   UNK     1      31.975  -8.132 -21.397  0.00  0.00    +0.037 C 
BRANCH  26  27
ATOM     27  N   UNK     1      31.782  -6.696 -21.621  0.00  0.00    +0.389 N 
ATOM     28  H   UNK     1      30.789  -6.500 -21.739  0.00  0.00    -0.088 HD
ATOM     29  H   UNK     1      32.287  -6.412 -22.460  0.00  0.00    -0.088 HD
ATOM     30  H   UNK     1      32.138  -6.176 -20.818  0.00  0.00    -0.088 HD
ENDBRANCH  26  27
BRANCH  26  32
ATOM     31  O   UNK     1      32.392  -9.292 -19.295  0.00  0.00    -0.253 OA
ATOM     32  C   UNK     1      32.500  -8.283 -19.981  0.00  0.00    +0.293 C 
BRANCH  32  33
ATOM     33  O   UNK     1      33.142  -7.168 -19.546  0.00  0.00    -0.482 OA
ATOM     34  H   UNK     1      33.995  -6.961 -19.873  0.00  0.00    +0.295 HD
ENDBRANCH  32  33
ENDBRANCH  26  32
ENDBRANCH  25  26
ENDBRANCH  24  25
ENDBRANCH  23  24
ENDBRANCH  22  23
ENDBRANCH   4  22
TORSDOF 11
ENDMDL
MODEL 8
REMARK VINA RESULT:      -8.4      8.600     11.179
REMARK  Name = 439155
REMARK  11 active torsions:
REMARK  status: ('A' for Active; 'I' for Inactive)
REMARK    1  A    between atoms: C_2  and  O_18
REMARK    2  A    between atoms: C_3  and  O_20
REMARK    3  A    between atoms: C_4  and  C_22
REMARK    4  A    between atoms: C_5  and  N_6
REMARK    5  A    between atoms: C_22  and  S_23
REMARK    6  A    between atoms: S_23  and  C_24
REMARK    7  A    between atoms: C_24  and  C_25
REMARK    8  A    between atoms: C_25  and  C_26
REMARK    9  A    between atoms: C_26  and  N_27
REMARK   10  A    between atoms: C_26  and  C_32
REMARK   11  A    between atoms: C_32  and  O_33
REMARK                            x       y       z     vdW  Elec       q    Type
REMARK                         _______ _______ _______ _____ _____    ______ ____
ROOT
ATOM      1  O   UNK     1      34.805 -24.648 -15.037  0.00  0.00    -0.335 OA
ATOM      2  C   UNK     1      35.235 -24.276 -12.725  0.00  0.00    +0.169 C 
ATOM      3  C   UNK     1      36.056 -23.300 -13.545  0.00  0.00    +0.187 C 
ATOM      4  C   UNK     1      34.190 -24.746 -13.731  0.00  0.00    +0.157 C 
ATOM      5  C   UNK     1      36.077 -23.988 -14.901  0.00  0.00    +0.225 C 
ENDROOT
BRANCH   5   6
ATOM      6  N   UNK     1      36.284 -23.080 -16.027  0.00  0.00    -0.247 N 
ATOM      7  N   UNK     1      37.298 -21.600 -17.354  0.00  0.00    -0.242 NA
ATOM      8  N   UNK     1      34.188 -23.342 -17.225  0.00  0.00    -0.228 NA
ATOM      9  N   UNK     1      34.130 -21.951 -19.229  0.00  0.00    -0.229 NA
ATOM     10  C   UNK     1      35.411 -22.821 -17.046  0.00  0.00    +0.152 C 
ATOM     11  C   UNK     1      37.403 -22.322 -16.257  0.00  0.00    +0.223 C 
ATOM     12  C   UNK     1      36.058 -21.903 -17.857  0.00  0.00    +0.140 C 
ATOM     13  C   UNK     1      35.372 -21.466 -18.985  0.00  0.00    +0.143 C 
ATOM     14  C   UNK     1      33.623 -22.845 -18.347  0.00  0.00    +0.253 C 
ATOM     15  N   UNK     1      35.953 -20.536 -19.865  0.00  0.00    -0.342 N 
ATOM     16  H   UNK     1      35.457 -20.235 -20.660  0.00  0.00    +0.144 HD
ATOM     17  H   UNK     1      36.856 -20.187 -19.685  0.00  0.00    +0.144 HD
ENDBRANCH   5   6
BRANCH   2  18
ATOM     18  O   UNK     1      36.049 -25.387 -12.353  0.00  0.00    -0.379 OA
ATOM     19  H   UNK     1      35.656 -26.205 -12.697  0.00  0.00    +0.211 HD
ENDBRANCH   2  18
BRANCH   3  20
ATOM     20  O   UNK     1      37.359 -23.106 -13.032  0.00  0.00    -0.378 OA
ATOM     21  H   UNK     1      37.318 -23.038 -12.065  0.00  0.00    +0.211 HD
ENDBRANCH   3  20
BRANCH   4  22
ATOM     22  C   UNK     1      32.933 -23.887 -13.727  0.00  0.00    +0.090 C 
BRANCH  22  23
ATOM     23  S   UNK     1      31.454 -24.931 -13.784  0.00  0.00    -0.138 S 
BRANCH  23  24
ATOM     24  C   UNK     1      30.263 -23.678 -14.315  0.00  0.00    +0.056 C 
BRANCH  24  25
ATOM     25  C   UNK     1      29.094 -24.259 -15.116  0.00  0.00    +0.001 C 
BRANCH  25  26
ATOM     26  C   UNK     1      28.937 -23.717 -16.544  0.00  0.00    +0.037 C 
BRANCH  26  27
ATOM     27  N   UNK     1      29.981 -22.718 -16.798  0.00  0.00    +0.389 N 
ATOM     28  H   UNK     1      29.953 -22.003 -16.072  0.00  0.00    -0.088 HD
ATOM     29  H   UNK     1      29.823 -22.286 -17.708  0.00  0.00    -0.088 HD
ATOM     30  H   UNK     1      30.895 -23.173 -16.792  0.00  0.00    -0.088 HD
ENDBRANCH  26  27
BRANCH  26  32
ATOM     31  O   UNK     1      26.931 -22.547 -15.804  0.00  0.00    -0.253 OA
ATOM     32  C   UNK     1      27.607 -23.005 -16.718  0.00  0.00    +0.293 C 
BRANCH  32  33
ATOM     33  O   UNK     1      27.243 -22.901 -18.022  0.00  0.00    -0.482 OA
ATOM     34  H   UNK     1      26.855 -22.109 -18.338  0.00  0.00    +0.295 HD
ENDBRANCH  32  33
ENDBRANCH  26  32
ENDBRANCH  25  26
ENDBRANCH  24  25
ENDBRANCH  23  24
ENDBRANCH  22  23
ENDBRANCH   4  22
TORSDOF 11
ENDMDL
MODEL 9
REMARK VINA RESULT:      -8.3      6.915     11.462
REMARK  Name = 439155
REMARK  11 active torsions:
REMARK  status: ('A' for Active; 'I' for Inactive)
REMARK    1  A    between atoms: C_2  and  O_18
REMARK    2  A    between atoms: C_3  and  O_20
REMARK    3  A    between atoms: C_4  and  C_22
REMARK    4  A    between atoms: C_5  and  N_6
REMARK    5  A    between atoms: C_22  and  S_23
REMARK    6  A    between atoms: S_23  and  C_24
REMARK    7  A    between atoms: C_24  and  C_25
REMARK    8  A    between atoms: C_25  and  C_26
REMARK    9  A    between atoms: C_26  and  N_27
REMARK   10  A    between atoms: C_26  and  C_32
REMARK   11  A    between atoms: C_32  and  O_33
REMARK                            x       y       z     vdW  Elec       q    Type
REMARK                         _______ _______ _______ _____ _____    ______ ____
ROOT
ATOM      1  O   UNK     1      35.383 -23.825 -16.428  0.00  0.00    -0.335 OA
ATOM      2  C   UNK     1      37.069 -22.617 -15.259  0.00  0.00    +0.169 C 
ATOM      3  C   UNK     1      36.521 -21.749 -16.374  0.00  0.00    +0.187 C 
ATOM      4  C   UNK     1      35.992 -23.689 -15.123  0.00  0.00    +0.157 C 
ATOM      5  C   UNK     1      35.895 -22.791 -17.288  0.00  0.00    +0.225 C 
ENDROOT
BRANCH   5   6
ATOM      6  N   UNK     1      34.820 -22.274 -18.132  0.00  0.00    -0.247 N 
ATOM      7  N   UNK     1      32.762 -21.982 -18.942  0.00  0.00    -0.242 NA
ATOM      8  N   UNK     1      36.054 -20.770 -19.586  0.00  0.00    -0.228 NA
ATOM      9  N   UNK     1      34.578 -19.673 -21.189  0.00  0.00    -0.229 NA
ATOM     10  C   UNK     1      34.936 -21.369 -19.150  0.00  0.00    +0.152 C 
ATOM     11  C   UNK     1      33.494 -22.612 -18.048  0.00  0.00    +0.223 C 
ATOM     12  C   UNK     1      33.651 -21.201 -19.637  0.00  0.00    +0.140 C 
ATOM     13  C   UNK     1      33.491 -20.315 -20.697  0.00  0.00    +0.143 C 
ATOM     14  C   UNK     1      35.774 -19.937 -20.612  0.00  0.00    +0.253 C 
ATOM     15  N   UNK     1      32.220 -20.082 -21.254  0.00  0.00    -0.342 N 
ATOM     16  H   UNK     1      32.120 -19.453 -22.004  0.00  0.00    +0.144 HD
ATOM     17  H   UNK     1      31.432 -20.550 -20.894  0.00  0.00    +0.144 HD
ENDBRANCH   5   6
BRANCH   2  18
ATOM     18  O   UNK     1      38.282 -23.235 -15.689  0.00  0.00    -0.379 OA
ATOM     19  H   UNK     1      39.034 -22.816 -15.242  0.00  0.00    +0.211 HD
ENDBRANCH   2  18
BRANCH   3  20
ATOM     20  O   UNK     1      37.522 -21.001 -17.034  0.00  0.00    -0.378 OA
ATOM     21  H   UNK     1      37.898 -21.530 -17.756  0.00  0.00    +0.211 HD
ENDBRANCH   3  20
BRANCH   4  22
ATOM     22  C   UNK     1      34.907 -23.317 -14.122  0.00  0.00    +0.090 C 
BRANCH  22  23
ATOM     23  S   UNK     1      34.657 -24.659 -12.932  0.00  0.00    -0.138 S 
BRANCH  23  24
ATOM     24  C   UNK     1      36.357 -24.807 -12.334  0.00  0.00    +0.056 C 
BRANCH  24  25
ATOM     25  C   UNK     1      37.103 -26.005 -12.928  0.00  0.00    +0.001 C 
BRANCH  25  26
ATOM     26  C   UNK     1      38.625 -25.842 -13.049  0.00  0.00    +0.037 C 
BRANCH  26  27
ATOM     27  N   UNK     1      38.975 -24.430 -12.869  0.00  0.00    +0.389 N 
ATOM     28  H   UNK     1      39.854 -24.359 -12.359  0.00  0.00    -0.088 HD
ATOM     29  H   UNK     1      38.237 -23.961 -12.343  0.00  0.00    -0.088 HD
ATOM     30  H   UNK     1      39.075 -23.985 -13.782  0.00  0.00    -0.088 HD
ENDBRANCH  26  27
BRANCH  26  32
ATOM     31  O   UNK     1      40.261 -26.545 -14.713  0.00  0.00    -0.253 OA
ATOM     32  C   UNK     1      39.109 -26.235 -14.434  0.00  0.00    +0.293 C 
BRANCH  32  33
ATOM     33  O   UNK     1      38.108 -26.234 -15.351  0.00  0.00    -0.482 OA
ATOM     34  H   UNK     1      37.227 -26.398 -15.083  0.00  0.00    +0.295 HD
ENDBRANCH  32  33
ENDBRANCH  26  32
ENDBRANCH  25  26
ENDBRANCH  24  25
ENDBRANCH  23  24
ENDBRANCH  22  23
ENDBRANCH   4  22
TORSDOF 11
ENDMDL
