MODEL 1
REMARK VINA RESULT:      -9.9      0.000      0.000
REMARK  Name = 1788
REMARK  8 active torsions:
REMARK  status: ('A' for Active; 'I' for Inactive)
REMARK    1  A    between atoms: O_1  and  C_3
REMARK    2  A    between atoms: O_1  and  C_14
REMARK    3  A    between atoms: C_4  and  C_11
REMARK    4  A    between atoms: C_14  and  C_15
REMARK    5  A    between atoms: C_15  and  C_16
REMARK    6  A    between atoms: C_16  and  C_17
REMARK    7  A    between atoms: C_17  and  C_18
REMARK    8  A    between atoms: C_18  and  C_21
REMARK                            x       y       z     vdW  Elec       q    Type
REMARK                         _______ _______ _______ _____ _____    ______ ____
ROOT
ATOM      1  O   UNL     1      34.134 -23.091 -17.809  0.00  0.00    -0.475 OA
ENDROOT
BRANCH   1   3
ATOM      2 CL   UNL     1      36.956 -22.081 -18.031  0.00  0.00    -0.079 Cl
ATOM      3  C   UNL     1      34.332 -22.109 -18.744  0.00  0.00    +0.149 C 
ATOM      4  C   UNL     1      34.676 -20.118 -20.658  0.00  0.00    +0.054 C 
ATOM      5  C   UNL     1      35.593 -21.557 -18.947  0.00  0.00    +0.092 C 
ATOM      6  C   UNL     1      33.242 -21.674 -19.492  0.00  0.00    +0.038 C 
ATOM      7  C   UNL     1      35.764 -20.558 -19.906  0.00  0.00    +0.019 C 
ATOM      8  C   UNL     1      33.413 -20.676 -20.450  0.00  0.00    +0.008 C 
BRANCH   4  11
ATOM      9  O   UNL     1      35.171 -17.848 -21.167  0.00  0.00    -0.458 OA
ATOM     10  N   UNL     1      34.736 -19.211 -22.951  0.00  0.00    -0.234 NA
ATOM     11  C   UNL     1      34.856 -19.066 -21.669  0.00  0.00    +0.220 C 
ATOM     12  C   UNL     1      35.082 -16.972 -22.279  0.00  0.00    +0.233 C 
ATOM     13  C   UNL     1      35.090 -17.889 -23.479  0.00  0.00    +0.176 C 
ENDBRANCH   4  11
ENDBRANCH   1   3
BRANCH   1  14
ATOM     14  C   UNL     1      32.852 -23.146 -17.199  0.00  0.00    +0.205 C 
BRANCH  14  15
ATOM     15  C   UNL     1      33.024 -23.128 -15.687  0.00  0.00    +0.047 C 
BRANCH  15  16
ATOM     16  C   UNL     1      31.689 -23.285 -14.965  0.00  0.00    +0.004 C 
BRANCH  16  17
ATOM     17  C   UNL     1      30.761 -24.246 -15.710  0.00  0.00    +0.008 C 
BRANCH  17  18
ATOM     18  C   UNL     1      29.337 -24.191 -15.151  0.00  0.00    +0.067 C 
BRANCH  18  21
ATOM     19  O   UNL     1      28.307 -23.948 -17.309  0.00  0.00    -0.358 OA
ATOM     20  N   UNL     1      27.425 -23.148 -18.024  0.00  0.00    -0.082 NA
ATOM     21  C   UNL     1      28.410 -23.441 -16.073  0.00  0.00    +0.154 C 
ATOM     22  C   UNL     1      27.650 -22.347 -15.905  0.00  0.00    +0.054 C 
ATOM     23  C   UNL     1      27.046 -22.198 -17.164  0.00  0.00    +0.101 C 
ATOM     24  C   UNL     1      26.095 -21.159 -17.593  0.00  0.00    +0.056 C 
ENDBRANCH  18  21
ENDBRANCH  17  18
ENDBRANCH  16  17
ENDBRANCH  15  16
ENDBRANCH  14  15
ENDBRANCH   1  14
TORSDOF 8
ENDMDL
MODEL 2
REMARK VINA RESULT:      -9.7      5.939     10.540
REMARK  Name = 1788
REMARK  8 active torsions:
REMARK  status: ('A' for Active; 'I' for Inactive)
REMARK    1  A    between atoms: O_1  and  C_3
REMARK    2  A    between atoms: O_1  and  C_14
REMARK    3  A    between atoms: C_4  and  C_11
REMARK    4  A    between atoms: C_14  and  C_15
REMARK    5  A    between atoms: C_15  and  C_16
REMARK    6  A    between atoms: C_16  and  C_17
REMARK    7  A    between atoms: C_17  and  C_18
REMARK    8  A    between atoms: C_18  and  C_21
REMARK                            x       y       z     vdW  Elec       q    Type
REMARK                         _______ _______ _______ _____ _____    ______ ____
ROOT
ATOM      1  O   UNL     1      34.275 -15.077 -23.858  0.00  0.00    -0.475 OA
ENDROOT
BRANCH   1   3
ATOM      2 CL   UNL     1      34.574 -17.623 -25.426  0.00  0.00    -0.079 Cl
ATOM      3  C   UNL     1      34.577 -16.188 -23.116  0.00  0.00    +0.149 C 
ATOM      4  C   UNL     1      35.192 -18.411 -21.559  0.00  0.00    +0.054 C 
ATOM      5  C   UNL     1      34.744 -17.430 -23.721  0.00  0.00    +0.092 C 
ATOM      6  C   UNL     1      34.716 -16.049 -21.738  0.00  0.00    +0.038 C 
ATOM      7  C   UNL     1      35.051 -18.544 -22.940  0.00  0.00    +0.019 C 
ATOM      8  C   UNL     1      35.024 -17.163 -20.958  0.00  0.00    +0.008 C 
BRANCH   4  11
ATOM      9  O   UNL     1      34.486 -20.442 -20.543  0.00  0.00    -0.458 OA
ATOM     10  N   UNL     1      36.666 -19.847 -20.199  0.00  0.00    -0.234 NA
ATOM     11  C   UNL     1      35.516 -19.585 -20.736  0.00  0.00    +0.220 C 
ATOM     12  C   UNL     1      34.961 -21.356 -19.568  0.00  0.00    +0.233 C 
ATOM     13  C   UNL     1      36.457 -21.151 -19.562  0.00  0.00    +0.176 C 
ENDBRANCH   4  11
ENDBRANCH   1   3
BRANCH   1  14
ATOM     14  C   UNL     1      34.155 -13.848 -23.153  0.00  0.00    +0.205 C 
BRANCH  14  15
ATOM     15  C   UNL     1      32.682 -13.484 -23.042  0.00  0.00    +0.047 C 
BRANCH  15  16
ATOM     16  C   UNL     1      32.259 -13.278 -21.591  0.00  0.00    +0.004 C 
BRANCH  16  17
ATOM     17  C   UNL     1      31.338 -12.065 -21.445  0.00  0.00    +0.008 C 
BRANCH  17  18
ATOM     18  C   UNL     1      31.585 -11.334 -20.122  0.00  0.00    +0.067 C 
BRANCH  18  21
ATOM     19  O   UNL     1      32.054  -9.154 -19.226  0.00  0.00    -0.358 OA
ATOM     20  N   UNL     1      32.275  -7.834 -19.600  0.00  0.00    -0.082 NA
ATOM     21  C   UNL     1      31.845  -9.866 -20.342  0.00  0.00    +0.154 C 
ATOM     22  C   UNL     1      31.910  -9.110 -21.451  0.00  0.00    +0.054 C 
ATOM     23  C   UNL     1      32.183  -7.833 -20.934  0.00  0.00    +0.101 C 
ATOM     24  C   UNL     1      32.367  -6.577 -21.679  0.00  0.00    +0.056 C 
ENDBRANCH  18  21
ENDBRANCH  17  18
ENDBRANCH  16  17
ENDBRANCH  15  16
ENDBRANCH  14  15
ENDBRANCH   1  14
TORSDOF 8
ENDMDL
MODEL 3
REMARK VINA RESULT:      -9.6      5.215     11.146
REMARK  Name = 1788
REMARK  8 active torsions:
REMARK  status: ('A' for Active; 'I' for Inactive)
REMARK    1  A    between atoms: O_1  and  C_3
REMARK    2  A    between atoms: O_1  and  C_14
REMARK    3  A    between atoms: C_4  and  C_11
REMARK    4  A    between atoms: C_14  and  C_15
REMARK    5  A    between atoms: C_15  and  C_16
REMARK    6  A    between atoms: C_16  and  C_17
REMARK    7  A    between atoms: C_17  and  C_18
REMARK    8  A    between atoms: C_18  and  C_21
REMARK                            x       y       z     vdW  Elec       q    Type
REMARK                         _______ _______ _______ _____ _____    ______ ____
ROOT
ATOM      1  O   UNL     1      34.989 -15.959 -24.182  0.00  0.00    -0.475 OA
ENDROOT
BRANCH   1   3
ATOM      2 CL   UNL     1      34.444 -15.074 -21.362  0.00  0.00    -0.079 Cl
ATOM      3  C   UNL     1      34.803 -16.971 -23.277  0.00  0.00    +0.149 C 
ATOM      4  C   UNL     1      34.432 -19.066 -21.484  0.00  0.00    +0.054 C 
ATOM      5  C   UNL     1      34.542 -16.696 -21.939  0.00  0.00    +0.092 C 
ATOM      6  C   UNL     1      34.880 -18.286 -23.726  0.00  0.00    +0.038 C 
ATOM      7  C   UNL     1      34.357 -17.747 -21.040  0.00  0.00    +0.019 C 
ATOM      8  C   UNL     1      34.694 -19.336 -22.828  0.00  0.00    +0.008 C 
BRANCH   4  11
ATOM      9  O   UNL     1      35.359 -20.569 -19.891  0.00  0.00    -0.458 OA
ATOM     10  N   UNL     1      33.118 -20.778 -20.290  0.00  0.00    -0.234 NA
ATOM     11  C   UNL     1      34.237 -20.174 -20.537  0.00  0.00    +0.220 C 
ATOM     12  C   UNL     1      34.981 -21.757 -19.215  0.00  0.00    +0.233 C 
ATOM     13  C   UNL     1      33.471 -21.732 -19.233  0.00  0.00    +0.176 C 
ENDBRANCH   4  11
ENDBRANCH   1   3
BRANCH   1  14
ATOM     14  C   UNL     1      34.124 -15.939 -25.309  0.00  0.00    +0.205 C 
BRANCH  14  15
ATOM     15  C   UNL     1      33.115 -14.813 -25.136  0.00  0.00    +0.047 C 
BRANCH  15  16
ATOM     16  C   UNL     1      33.093 -13.883 -26.346  0.00  0.00    +0.004 C 
BRANCH  16  17
ATOM     17  C   UNL     1      33.679 -12.511 -26.006  0.00  0.00    +0.008 C 
BRANCH  17  18
ATOM     18  C   UNL     1      33.835 -12.332 -24.493  0.00  0.00    +0.067 C 
BRANCH  18  21
ATOM     19  O   UNL     1      32.896 -10.464 -23.307  0.00  0.00    -0.358 OA
ATOM     20  N   UNL     1      33.087  -9.112 -23.054  0.00  0.00    -0.082 NA
ATOM     21  C   UNL     1      33.886 -10.875 -24.111  0.00  0.00    +0.154 C 
ATOM     22  C   UNL     1      34.739  -9.884 -24.419  0.00  0.00    +0.054 C 
ATOM     23  C   UNL     1      34.194  -8.788 -23.729  0.00  0.00    +0.101 C 
ATOM     24  C   UNL     1      34.701  -7.406 -23.686  0.00  0.00    +0.056 C 
ENDBRANCH  18  21
ENDBRANCH  17  18
ENDBRANCH  16  17
ENDBRANCH  15  16
ENDBRANCH  14  15
ENDBRANCH   1  14
TORSDOF 8
ENDMDL
MODEL 4
REMARK VINA RESULT:      -9.5      3.893      6.176
REMARK  Name = 1788
REMARK  8 active torsions:
REMARK  status: ('A' for Active; 'I' for Inactive)
REMARK    1  A    between atoms: O_1  and  C_3
REMARK    2  A    between atoms: O_1  and  C_14
REMARK    3  A    between atoms: C_4  and  C_11
REMARK    4  A    between atoms: C_14  and  C_15
REMARK    5  A    between atoms: C_15  and  C_16
REMARK    6  A    between atoms: C_16  and  C_17
REMARK    7  A    between atoms: C_17  and  C_18
REMARK    8  A    between atoms: C_18  and  C_21
REMARK                            x       y       z     vdW  Elec       q    Type
REMARK                         _______ _______ _______ _____ _____    ______ ____
ROOT
ATOM      1  O   UNL     1      33.945 -22.642 -19.020  0.00  0.00    -0.475 OA
ENDROOT
BRANCH   1   3
ATOM      2 CL   UNL     1      36.792 -21.710 -19.257  0.00  0.00    -0.079 Cl
ATOM      3  C   UNL     1      34.120 -21.465 -19.700  0.00  0.00    +0.149 C 
ATOM      4  C   UNL     1      34.417 -19.073 -21.090  0.00  0.00    +0.054 C 
ATOM      5  C   UNL     1      35.390 -20.925 -19.881  0.00  0.00    +0.092 C 
ATOM      6  C   UNL     1      32.998 -20.818 -20.209  0.00  0.00    +0.038 C 
ATOM      7  C   UNL     1      35.538 -19.725 -20.578  0.00  0.00    +0.019 C 
ATOM      8  C   UNL     1      33.146 -19.620 -20.906  0.00  0.00    +0.008 C 
BRANCH   4  11
ATOM      9  O   UNL     1      34.523 -17.927 -23.172  0.00  0.00    -0.458 OA
ATOM     10  N   UNL     1      34.750 -16.637 -21.298  0.00  0.00    -0.234 NA
ATOM     11  C   UNL     1      34.572 -17.808 -21.824  0.00  0.00    +0.220 C 
ATOM     12  C   UNL     1      34.903 -16.650 -23.656  0.00  0.00    +0.233 C 
ATOM     13  C   UNL     1      34.765 -15.740 -22.458  0.00  0.00    +0.176 C 
ENDBRANCH   4  11
ENDBRANCH   1   3
BRANCH   1  14
ATOM     14  C   UNL     1      33.034 -22.623 -17.929  0.00  0.00    +0.205 C 
BRANCH  14  15
ATOM     15  C   UNL     1      33.623 -23.429 -16.781  0.00  0.00    +0.047 C 
BRANCH  15  16
ATOM     16  C   UNL     1      34.979 -22.883 -16.344  0.00  0.00    +0.004 C 
BRANCH  16  17
ATOM     17  C   UNL     1      35.305 -23.285 -14.905  0.00  0.00    +0.008 C 
BRANCH  17  18
ATOM     18  C   UNL     1      35.335 -24.808 -14.746  0.00  0.00    +0.067 C 
BRANCH  18  21
ATOM     19  O   UNL     1      36.856 -26.669 -14.775  0.00  0.00    -0.358 OA
ATOM     20  N   UNL     1      38.207 -26.986 -14.748  0.00  0.00    -0.082 NA
ATOM     21  C   UNL     1      36.747 -25.334 -14.727  0.00  0.00    +0.154 C 
ATOM     22  C   UNL     1      37.943 -24.726 -14.670  0.00  0.00    +0.054 C 
ATOM     23  C   UNL     1      38.838 -25.809 -14.685  0.00  0.00    +0.101 C 
ATOM     24  C   UNL     1      40.308 -25.766 -14.642  0.00  0.00    +0.056 C 
ENDBRANCH  18  21
ENDBRANCH  17  18
ENDBRANCH  16  17
ENDBRANCH  15  16
ENDBRANCH  14  15
ENDBRANCH   1  14
TORSDOF 8
ENDMDL
MODEL 5
REMARK VINA RESULT:      -9.4      4.371      6.947
REMARK  Name = 1788
REMARK  8 active torsions:
REMARK  status: ('A' for Active; 'I' for Inactive)
REMARK    1  A    between atoms: O_1  and  C_3
REMARK    2  A    between atoms: O_1  and  C_14
REMARK    3  A    between atoms: C_4  and  C_11
REMARK    4  A    between atoms: C_14  and  C_15
REMARK    5  A    between atoms: C_15  and  C_16
REMARK    6  A    between atoms: C_16  and  C_17
REMARK    7  A    between atoms: C_17  and  C_18
REMARK    8  A    between atoms: C_18  and  C_21
REMARK                            x       y       z     vdW  Elec       q    Type
REMARK                         _______ _______ _______ _____ _____    ______ ____
ROOT
ATOM      1  O   UNL     1      35.612 -17.828 -22.334  0.00  0.00    -0.475 OA
ENDROOT
BRANCH   1   3
ATOM      2 CL   UNL     1      34.656 -16.672 -24.938  0.00  0.00    -0.079 Cl
ATOM      3  C   UNL     1      34.866 -16.684 -22.227  0.00  0.00    +0.149 C 
ATOM      4  C   UNL     1      33.354 -14.364 -21.949  0.00  0.00    +0.054 C 
ATOM      5  C   UNL     1      34.361 -16.049 -23.357  0.00  0.00    +0.092 C 
ATOM      6  C   UNL     1      34.619 -16.168 -20.958  0.00  0.00    +0.038 C 
ATOM      7  C   UNL     1      33.604 -14.886 -23.217  0.00  0.00    +0.019 C 
ATOM      8  C   UNL     1      33.862 -15.006 -20.818  0.00  0.00    +0.008 C 
BRANCH   4  11
ATOM      9  O   UNL     1      32.490 -12.369 -22.913  0.00  0.00    -0.458 OA
ATOM     10  N   UNL     1      31.942 -12.754 -20.726  0.00  0.00    -0.234 NA
ATOM     11  C   UNL     1      32.557 -13.138 -21.800  0.00  0.00    +0.220 C 
ATOM     12  C   UNL     1      31.870 -11.170 -22.479  0.00  0.00    +0.233 C 
ATOM     13  C   UNL     1      31.254 -11.528 -21.147  0.00  0.00    +0.176 C 
ENDBRANCH   4  11
ENDBRANCH   1   3
BRANCH   1  14
ATOM     14  C   UNL     1      35.772 -18.604 -21.154  0.00  0.00    +0.205 C 
BRANCH  14  15
ATOM     15  C   UNL     1      34.983 -19.896 -21.303  0.00  0.00    +0.047 C 
BRANCH  15  16
ATOM     16  C   UNL     1      33.505 -19.696 -20.982  0.00  0.00    +0.004 C 
BRANCH  16  17
ATOM     17  C   UNL     1      33.065 -20.576 -19.810  0.00  0.00    +0.008 C 
BRANCH  17  18
ATOM     18  C   UNL     1      33.736 -21.951 -19.864  0.00  0.00    +0.067 C 
BRANCH  18  21
ATOM     19  O   UNL     1      35.312 -22.410 -18.108  0.00  0.00    -0.358 OA
ATOM     20  N   UNL     1      35.409 -22.931 -16.825  0.00  0.00    -0.082 NA
ATOM     21  C   UNL     1      34.027 -22.479 -18.482  0.00  0.00    +0.154 C 
ATOM     22  C   UNL     1      33.245 -23.013 -17.530  0.00  0.00    +0.054 C 
ATOM     23  C   UNL     1      34.162 -23.285 -16.500  0.00  0.00    +0.101 C 
ATOM     24  C   UNL     1      33.889 -23.885 -15.184  0.00  0.00    +0.056 C 
ENDBRANCH  18  21
ENDBRANCH  17  18
ENDBRANCH  16  17
ENDBRANCH  15  16
ENDBRANCH  14  15
ENDBRANCH   1  14
TORSDOF 8
ENDMDL
MODEL 6
REMARK VINA RESULT:      -9.4      4.887      9.078
REMARK  Name = 1788
REMARK  8 active torsions:
REMARK  status: ('A' for Active; 'I' for Inactive)
REMARK    1  A    between atoms: O_1  and  C_3
REMARK    2  A    between atoms: O_1  and  C_14
REMARK    3  A    between atoms: C_4  and  C_11
REMARK    4  A    between atoms: C_14  and  C_15
REMARK    5  A    between atoms: C_15  and  C_16
REMARK    6  A    between atoms: C_16  and  C_17
REMARK    7  A    between atoms: C_17  and  C_18
REMARK    8  A    between atoms: C_18  and  C_21
REMARK                            x       y       z     vdW  Elec       q    Type
REMARK                         _______ _______ _______ _____ _____    ______ ____
ROOT
ATOM      1  O   UNL     1      35.242 -21.588 -19.161  0.00  0.00    -0.475 OA
ENDROOT
BRANCH   1   3
ATOM      2 CL   UNL     1      33.174 -23.139 -17.627  0.00  0.00    -0.079 Cl
ATOM      3  C   UNL     1      35.640 -22.033 -17.927  0.00  0.00    +0.149 C 
ATOM      4  C   UNL     1      36.503 -22.911 -15.432  0.00  0.00    +0.054 C 
ATOM      5  C   UNL     1      34.778 -22.764 -17.117  0.00  0.00    +0.092 C 
ATOM      6  C   UNL     1      36.931 -21.738 -17.500  0.00  0.00    +0.038 C 
ATOM      7  C   UNL     1      35.211 -23.203 -15.865  0.00  0.00    +0.019 C 
ATOM      8  C   UNL     1      37.364 -22.177 -16.250  0.00  0.00    +0.008 C 
BRANCH   4  11
ATOM      9  O   UNL     1      36.056 -23.222 -13.116  0.00  0.00    -0.458 OA
ATOM     10  N   UNL     1      38.118 -23.891 -13.845  0.00  0.00    -0.234 NA
ATOM     11  C   UNL     1      36.960 -23.374 -14.113  0.00  0.00    +0.220 C 
ATOM     12  C   UNL     1      36.777 -23.525 -11.933  0.00  0.00    +0.233 C 
ATOM     13  C   UNL     1      38.016 -24.237 -12.424  0.00  0.00    +0.176 C 
ENDBRANCH   4  11
ENDBRANCH   1   3
BRANCH   1  14
ATOM     14  C   UNL     1      36.267 -21.323 -20.109  0.00  0.00    +0.205 C 
BRANCH  14  15
ATOM     15  C   UNL     1      36.120 -19.893 -20.607  0.00  0.00    +0.047 C 
BRANCH  15  16
ATOM     16  C   UNL     1      34.662 -19.541 -20.888  0.00  0.00    +0.004 C 
BRANCH  16  17
ATOM     17  C   UNL     1      34.416 -19.330 -22.383  0.00  0.00    +0.008 C 
BRANCH  17  18
ATOM     18  C   UNL     1      35.469 -18.402 -22.995  0.00  0.00    +0.067 C 
BRANCH  18  21
ATOM     19  O   UNL     1      34.888 -17.633 -25.197  0.00  0.00    -0.358 OA
ATOM     20  N   UNL     1      34.271 -16.587 -25.870  0.00  0.00    -0.082 NA
ATOM     21  C   UNL     1      34.839 -17.362 -23.885  0.00  0.00    +0.154 C 
ATOM     22  C   UNL     1      34.226 -16.195 -23.627  0.00  0.00    +0.054 C 
ATOM     23  C   UNL     1      33.884 -15.739 -24.912  0.00  0.00    +0.101 C 
ATOM     24  C   UNL     1      33.184 -14.496 -25.272  0.00  0.00    +0.056 C 
ENDBRANCH  18  21
ENDBRANCH  17  18
ENDBRANCH  16  17
ENDBRANCH  15  16
ENDBRANCH  14  15
ENDBRANCH   1  14
TORSDOF 8
ENDMDL
MODEL 7
REMARK VINA RESULT:      -9.3      4.817      6.455
REMARK  Name = 1788
REMARK  8 active torsions:
REMARK  status: ('A' for Active; 'I' for Inactive)
REMARK    1  A    between atoms: O_1  and  C_3
REMARK    2  A    between atoms: O_1  and  C_14
REMARK    3  A    between atoms: C_4  and  C_11
REMARK    4  A    between atoms: C_14  and  C_15
REMARK    5  A    between atoms: C_15  and  C_16
REMARK    6  A    between atoms: C_16  and  C_17
REMARK    7  A    between atoms: C_17  and  C_18
REMARK    8  A    between atoms: C_18  and  C_21
REMARK                            x       y       z     vdW  Elec       q    Type
REMARK                         _______ _______ _______ _____ _____    ______ ____
ROOT
ATOM      1  O   UNL     1      35.867 -21.571 -18.798  0.00  0.00    -0.475 OA
ENDROOT
BRANCH   1   3
ATOM      2 CL   UNL     1      32.984 -21.345 -19.616  0.00  0.00    -0.079 Cl
ATOM      3  C   UNL     1      35.612 -20.671 -19.800  0.00  0.00    +0.149 C 
ATOM      4  C   UNL     1      35.154 -18.830 -21.835  0.00  0.00    +0.054 C 
ATOM      5  C   UNL     1      34.318 -20.470 -20.270  0.00  0.00    +0.092 C 
ATOM      6  C   UNL     1      36.678 -19.958 -20.339  0.00  0.00    +0.038 C 
ATOM      7  C   UNL     1      34.089 -19.547 -21.291  0.00  0.00    +0.019 C 
ATOM      8  C   UNL     1      36.449 -19.035 -21.359  0.00  0.00    +0.008 C 
BRANCH   4  11
ATOM      9  O   UNL     1      34.767 -16.578 -22.494  0.00  0.00    -0.458 OA
ATOM     10  N   UNL     1      34.830 -18.125 -24.176  0.00  0.00    -0.234 NA
ATOM     11  C   UNL     1      34.913 -17.857 -22.911  0.00  0.00    +0.220 C 
ATOM     12  C   UNL     1      34.339 -15.874 -23.649  0.00  0.00    +0.233 C 
ATOM     13  C   UNL     1      34.661 -16.805 -24.794  0.00  0.00    +0.176 C 
ENDBRANCH   4  11
ENDBRANCH   1   3
BRANCH   1  14
ATOM     14  C   UNL     1      36.968 -21.287 -17.946  0.00  0.00    +0.205 C 
BRANCH  14  15
ATOM     15  C   UNL     1      36.866 -22.158 -16.702  0.00  0.00    +0.047 C 
BRANCH  15  16
ATOM     16  C   UNL     1      35.476 -22.772 -16.556  0.00  0.00    +0.004 C 
BRANCH  16  17
ATOM     17  C   UNL     1      35.244 -23.295 -15.137  0.00  0.00    +0.008 C 
BRANCH  17  18
ATOM     18  C   UNL     1      35.300 -24.825 -15.091  0.00  0.00    +0.067 C 
BRANCH  18  21
ATOM     19  O   UNL     1      36.901 -26.616 -15.157  0.00  0.00    -0.358 OA
ATOM     20  N   UNL     1      38.235 -26.910 -14.905  0.00  0.00    -0.082 NA
ATOM     21  C   UNL     1      36.707 -25.321 -14.874  0.00  0.00    +0.154 C 
ATOM     22  C   UNL     1      37.827 -24.717 -14.446  0.00  0.00    +0.054 C 
ATOM     23  C   UNL     1      38.768 -25.760 -14.481  0.00  0.00    +0.101 C 
ATOM     24  C   UNL     1      40.194 -25.703 -14.117  0.00  0.00    +0.056 C 
ENDBRANCH  18  21
ENDBRANCH  17  18
ENDBRANCH  16  17
ENDBRANCH  15  16
ENDBRANCH  14  15
ENDBRANCH   1  14
TORSDOF 8
ENDMDL
MODEL 8
REMARK VINA RESULT:      -9.2      3.528      9.115
REMARK  Name = 1788
REMARK  8 active torsions:
REMARK  status: ('A' for Active; 'I' for Inactive)
REMARK    1  A    between atoms: O_1  and  C_3
REMARK    2  A    between atoms: O_1  and  C_14
REMARK    3  A    between atoms: C_4  and  C_11
REMARK    4  A    between atoms: C_14  and  C_15
REMARK    5  A    between atoms: C_15  and  C_16
REMARK    6  A    between atoms: C_16  and  C_17
REMARK    7  A    between atoms: C_17  and  C_18
REMARK    8  A    between atoms: C_18  and  C_21
REMARK                            x       y       z     vdW  Elec       q    Type
REMARK                         _______ _______ _______ _____ _____    ______ ____
ROOT
ATOM      1  O   UNL     1      34.790 -18.506 -22.581  0.00  0.00    -0.475 OA
ENDROOT
BRANCH   1   3
ATOM      2 CL   UNL     1      37.207 -19.475 -21.081  0.00  0.00    -0.079 Cl
ATOM      3  C   UNL     1      34.534 -19.396 -21.571  0.00  0.00    +0.149 C 
ATOM      4  C   UNL     1      33.954 -21.198 -19.531  0.00  0.00    +0.054 C 
ATOM      5  C   UNL     1      35.566 -19.920 -20.799  0.00  0.00    +0.092 C 
ATOM      6  C   UNL     1      33.214 -19.766 -21.330  0.00  0.00    +0.038 C 
ATOM      7  C   UNL     1      35.274 -20.824 -19.777  0.00  0.00    +0.019 C 
ATOM      8  C   UNL     1      32.923 -20.669 -20.309  0.00  0.00    +0.008 C 
BRANCH   4  11
ATOM      9  O   UNL     1      34.727 -22.616 -17.786  0.00  0.00    -0.458 OA
ATOM     10  N   UNL     1      32.465 -22.565 -18.116  0.00  0.00    -0.234 NA
ATOM     11  C   UNL     1      33.646 -22.151 -18.455  0.00  0.00    +0.220 C 
ATOM     12  C   UNL     1      34.218 -23.655 -16.965  0.00  0.00    +0.233 C 
ATOM     13  C   UNL     1      32.725 -23.427 -16.959  0.00  0.00    +0.176 C 
ENDBRANCH   4  11
ENDBRANCH   1   3
BRANCH   1  14
ATOM     14  C   UNL     1      35.040 -19.052 -23.869  0.00  0.00    +0.205 C 
BRANCH  14  15
ATOM     15  C   UNL     1      34.333 -18.199 -24.911  0.00  0.00    +0.047 C 
BRANCH  15  16
ATOM     16  C   UNL     1      34.903 -16.784 -24.964  0.00  0.00    +0.004 C 
BRANCH  16  17
ATOM     17  C   UNL     1      33.884 -15.754 -24.472  0.00  0.00    +0.008 C 
BRANCH  17  18
ATOM     18  C   UNL     1      34.458 -14.901 -23.337  0.00  0.00    +0.067 C 
BRANCH  18  21
ATOM     19  O   UNL     1      33.817 -12.615 -23.706  0.00  0.00    -0.358 OA
ATOM     20  N   UNL     1      32.911 -11.645 -23.294  0.00  0.00    -0.082 NA
ATOM     21  C   UNL     1      33.560 -13.734 -23.015  0.00  0.00    +0.154 C 
ATOM     22  C   UNL     1      32.535 -13.584 -22.160  0.00  0.00    +0.054 C 
ATOM     23  C   UNL     1      32.156 -12.247 -22.370  0.00  0.00    +0.101 C 
ATOM     24  C   UNL     1      31.074 -11.501 -21.708  0.00  0.00    +0.056 C 
ENDBRANCH  18  21
ENDBRANCH  17  18
ENDBRANCH  16  17
ENDBRANCH  15  16
ENDBRANCH  14  15
ENDBRANCH   1  14
TORSDOF 8
ENDMDL
MODEL 9
REMARK VINA RESULT:      -9.2      2.115      7.661
REMARK  Name = 1788
REMARK  8 active torsions:
REMARK  status: ('A' for Active; 'I' for Inactive)
REMARK    1  A    between atoms: O_1  and  C_3
REMARK    2  A    between atoms: O_1  and  C_14
REMARK    3  A    between atoms: C_4  and  C_11
REMARK    4  A    between atoms: C_14  and  C_15
REMARK    5  A    between atoms: C_15  and  C_16
REMARK    6  A    between atoms: C_16  and  C_17
REMARK    7  A    between atoms: C_17  and  C_18
REMARK    8  A    between atoms: C_18  and  C_21
REMARK                            x       y       z     vdW  Elec       q    Type
REMARK                         _______ _______ _______ _____ _____    ______ ____
ROOT
ATOM      1  O   UNL     1      35.666 -23.861 -15.782  0.00  0.00    -0.475 OA
ENDROOT
BRANCH   1   3
ATOM      2 CL   UNL     1      34.176 -24.217 -13.196  0.00  0.00    -0.079 Cl
ATOM      3  C   UNL     1      34.311 -23.668 -15.856  0.00  0.00    +0.149 C 
ATOM      4  C   UNL     1      31.566 -23.264 -16.066  0.00  0.00    +0.054 C 
ATOM      5  C   UNL     1      33.506 -23.802 -14.730  0.00  0.00    +0.092 C 
ATOM      6  C   UNL     1      33.754 -23.333 -17.087  0.00  0.00    +0.038 C 
ATOM      7  C   UNL     1      32.129 -23.600 -14.836  0.00  0.00    +0.019 C 
ATOM      8  C   UNL     1      32.379 -23.130 -17.192  0.00  0.00    +0.008 C 
BRANCH   4  11
ATOM      9  O   UNL     1      29.383 -23.617 -15.191  0.00  0.00    -0.458 OA
ATOM     10  N   UNL     1      29.512 -22.391 -17.116  0.00  0.00    -0.234 NA
ATOM     11  C   UNL     1      30.116 -23.050 -16.178  0.00  0.00    +0.220 C 
ATOM     12  C   UNL     1      28.038 -23.469 -15.616  0.00  0.00    +0.233 C 
ATOM     13  C   UNL     1      28.104 -22.426 -16.707  0.00  0.00    +0.176 C 
ENDBRANCH   4  11
ENDBRANCH   1   3
BRANCH   1  14
ATOM     14  C   UNL     1      36.455 -22.735 -15.423  0.00  0.00    +0.205 C 
BRANCH  14  15
ATOM     15  C   UNL     1      37.451 -22.455 -16.539  0.00  0.00    +0.047 C 
BRANCH  15  16
ATOM     16  C   UNL     1      37.029 -21.257 -17.385  0.00  0.00    +0.004 C 
BRANCH  16  17
ATOM     17  C   UNL     1      36.091 -21.677 -18.518  0.00  0.00    +0.008 C 
BRANCH  17  18
ATOM     18  C   UNL     1      36.621 -21.217 -19.879  0.00  0.00    +0.067 C 
BRANCH  18  21
ATOM     19  O   UNL     1      34.447 -20.340 -20.407  0.00  0.00    -0.358 OA
ATOM     20  N   UNL     1      33.810 -19.247 -20.981  0.00  0.00    -0.082 NA
ATOM     21  C   UNL     1      35.768 -20.121 -20.463  0.00  0.00    +0.154 C 
ATOM     22  C   UNL     1      36.067 -18.946 -21.039  0.00  0.00    +0.054 C 
ATOM     23  C   UNL     1      34.799 -18.427 -21.352  0.00  0.00    +0.101 C 
ATOM     24  C   UNL     1      34.483 -17.147 -22.006  0.00  0.00    +0.056 C 
ENDBRANCH  18  21
ENDBRANCH  17  18
ENDBRANCH  16  17
ENDBRANCH  15  16
ENDBRANCH  14  15
ENDBRANCH   1  14
TORSDOF 8
ENDMDL
