MODEL 1
REMARK VINA RESULT:     -12.5      0.000      0.000
REMARK  Name = 46926973
REMARK  4 active torsions:
REMARK  status: ('A' for Active; 'I' for Inactive)
REMARK    1  A    between atoms: C_4  and  C_17
REMARK    2  A    between atoms: C_6  and  C_13
REMARK    3  A    between atoms: C_17  and  C_19
REMARK    4  A    between atoms: C_21  and  C_26
REMARK                            x       y       z     vdW  Elec       q    Type
REMARK                         _______ _______ _______ _____ _____    ______ ____
ROOT
ATOM      1  O   UNL     1      33.633 -19.530 -22.483  0.00  0.00    -0.274 OA
ATOM      2  N   UNL     1      35.790 -19.521 -21.546  0.00  0.00    -0.269 N 
ATOM      3  N   UNL     1      36.738 -20.535 -19.630  0.00  0.00    -0.229 NA
ATOM      4  C   UNL     1      34.808 -19.178 -22.486  0.00  0.00    +0.232 C 
ATOM      5  C   UNL     1      35.653 -20.330 -20.411  0.00  0.00    +0.134 C 
ATOM      6  C   UNL     1      35.350 -21.914 -18.210  0.00  0.00    +0.038 C 
ATOM      7  C   UNL     1      34.403 -20.874 -20.161  0.00  0.00    +0.035 C 
ATOM      8  C   UNL     1      34.257 -21.679 -19.037  0.00  0.00    +0.006 C 
ATOM      9  C   UNL     1      36.557 -21.323 -18.547  0.00  0.00    +0.102 C 
ATOM     10  H   UNL     1      36.687 -19.147 -21.703  0.00  0.00    +0.156 HD
ENDROOT
BRANCH   6  13
ATOM     11  N   UNL     1      36.377 -23.009 -16.380  0.00  0.00    -0.241 NA
ATOM     12  N   UNL     1      33.908 -24.016 -15.514  0.00  0.00    -0.239 NA
ATOM     13  C   UNL     1      35.229 -22.745 -17.036  0.00  0.00    +0.102 C 
ATOM     14  C   UNL     1      34.016 -23.240 -16.610  0.00  0.00    +0.118 C 
ATOM     15  C   UNL     1      36.268 -23.785 -15.283  0.00  0.00    +0.119 C 
ATOM     16  C   UNL     1      35.056 -24.280 -14.858  0.00  0.00    +0.120 C 
ENDBRANCH   6  13
BRANCH   4  17
ATOM     17  C   UNL     1      35.384 -18.277 -23.567  0.00  0.00    +0.113 C 
BRANCH  17  19
ATOM     18  N   UNL     1      34.478 -14.809 -22.348  0.00  0.00    -0.244 NA
ATOM     19  C   UNL     1      34.820 -16.880 -23.547  0.00  0.00    +0.006 C 
ATOM     20  C   UNL     1      33.631 -15.072 -24.598  0.00  0.00    -0.004 C 
ATOM     21  C   UNL     1      33.825 -14.343 -23.436  0.00  0.00    +0.077 C 
ATOM     22  C   UNL     1      34.142 -16.365 -24.646  0.00  0.00    -0.005 C 
ATOM     23  C   UNL     1      34.960 -16.069 -22.432  0.00  0.00    +0.095 C 
ATOM     24  C   UNL     1      32.903 -14.523 -25.776  0.00  0.00    +0.033 C 
BRANCH  21  26
ATOM     25  N   UNL     1      32.373 -10.379 -23.014  0.00  0.00    -0.248 NA
ATOM     26  C   UNL     1      33.330 -12.992 -23.292  0.00  0.00    +0.020 C 
ATOM     27  C   UNL     1      32.294 -12.718 -22.405  0.00  0.00    +0.016 C 
ATOM     28  C   UNL     1      33.888 -11.960 -24.039  0.00  0.00    +0.022 C 
ATOM     29  C   UNL     1      31.856 -11.407 -22.304  0.00  0.00    +0.059 C 
ATOM     30  C   UNL     1      33.379 -10.684 -23.865  0.00  0.00    +0.098 C 
ATOM     31  C   UNL     1      30.746 -11.077 -21.363  0.00  0.00    +0.052 C 
ENDBRANCH  21  26
ENDBRANCH  17  19
ENDBRANCH   4  17
TORSDOF 4
ENDMDL
MODEL 2
REMARK VINA RESULT:     -12.5      1.102      1.566
REMARK  Name = 46926973
REMARK  4 active torsions:
REMARK  status: ('A' for Active; 'I' for Inactive)
REMARK    1  A    between atoms: C_4  and  C_17
REMARK    2  A    between atoms: C_6  and  C_13
REMARK    3  A    between atoms: C_17  and  C_19
REMARK    4  A    between atoms: C_21  and  C_26
REMARK                            x       y       z     vdW  Elec       q    Type
REMARK                         _______ _______ _______ _____ _____    ______ ____
ROOT
ATOM      1  O   UNL     1      36.987 -18.465 -22.479  0.00  0.00    -0.274 OA
ATOM      2  N   UNL     1      35.010 -19.658 -22.033  0.00  0.00    -0.269 N 
ATOM      3  N   UNL     1      34.337 -21.102 -20.284  0.00  0.00    -0.229 NA
ATOM      4  C   UNL     1      35.843 -18.802 -22.766  0.00  0.00    +0.232 C 
ATOM      5  C   UNL     1      35.292 -20.313 -20.828  0.00  0.00    +0.134 C 
ATOM      6  C   UNL     1      35.873 -21.568 -18.476  0.00  0.00    +0.038 C 
ATOM      7  C   UNL     1      36.541 -20.105 -20.265  0.00  0.00    +0.035 C 
ATOM      8  C   UNL     1      36.830 -20.750 -19.067  0.00  0.00    +0.006 C 
ATOM      9  C   UNL     1      34.654 -21.711 -19.120  0.00  0.00    +0.102 C 
ATOM     10  H   UNL     1      34.116 -19.820 -22.413  0.00  0.00    +0.156 HD
ENDROOT
BRANCH   6  13
ATOM     11  N   UNL     1      35.166 -23.062 -16.782  0.00  0.00    -0.241 NA
ATOM     12  N   UNL     1      37.576 -22.724 -15.389  0.00  0.00    -0.239 NA
ATOM     13  C   UNL     1      36.143 -22.251 -17.233  0.00  0.00    +0.102 C 
ATOM     14  C   UNL     1      37.327 -22.085 -16.549  0.00  0.00    +0.118 C 
ATOM     15  C   UNL     1      35.415 -23.702 -15.622  0.00  0.00    +0.119 C 
ATOM     16  C   UNL     1      36.598 -23.535 -14.937  0.00  0.00    +0.120 C 
ENDBRANCH   6  13
BRANCH   4  17
ATOM     17  C   UNL     1      35.141 -18.305 -24.021  0.00  0.00    +0.113 C 
BRANCH  17  19
ATOM     18  N   UNL     1      34.329 -14.914 -22.545  0.00  0.00    -0.244 NA
ATOM     19  C   UNL     1      34.622 -16.895 -23.898  0.00  0.00    +0.006 C 
ATOM     20  C   UNL     1      33.509 -14.972 -24.819  0.00  0.00    -0.004 C 
ATOM     21  C   UNL     1      33.708 -14.342 -23.601  0.00  0.00    +0.077 C 
ATOM     22  C   UNL     1      33.979 -16.274 -24.961  0.00  0.00    -0.005 C 
ATOM     23  C   UNL     1      34.771 -16.178 -22.721  0.00  0.00    +0.095 C 
ATOM     24  C   UNL     1      32.818 -14.308 -25.960  0.00  0.00    +0.033 C 
BRANCH  21  26
ATOM     25  N   UNL     1      32.380 -10.377 -22.887  0.00  0.00    -0.248 NA
ATOM     26  C   UNL     1      33.255 -12.991 -23.358  0.00  0.00    +0.020 C 
ATOM     27  C   UNL     1      32.246 -12.748 -22.432  0.00  0.00    +0.016 C 
ATOM     28  C   UNL     1      33.827 -11.928 -24.048  0.00  0.00    +0.022 C 
ATOM     29  C   UNL     1      31.848 -11.435 -22.235  0.00  0.00    +0.059 C 
ATOM     30  C   UNL     1      33.358 -10.652 -23.780  0.00  0.00    +0.098 C 
ATOM     31  C   UNL     1      30.767 -11.138 -21.250  0.00  0.00    +0.052 C 
ENDBRANCH  21  26
ENDBRANCH  17  19
ENDBRANCH   4  17
TORSDOF 4
ENDMDL
MODEL 3
REMARK VINA RESULT:     -12.0      2.764     11.526
REMARK  Name = 46926973
REMARK  4 active torsions:
REMARK  status: ('A' for Active; 'I' for Inactive)
REMARK    1  A    between atoms: C_4  and  C_17
REMARK    2  A    between atoms: C_6  and  C_13
REMARK    3  A    between atoms: C_17  and  C_19
REMARK    4  A    between atoms: C_21  and  C_26
REMARK                            x       y       z     vdW  Elec       q    Type
REMARK                         _______ _______ _______ _____ _____    ______ ____
ROOT
ATOM      1  O   UNL     1      32.554 -13.898 -23.197  0.00  0.00    -0.274 OA
ATOM      2  N   UNL     1      34.120 -12.332 -23.989  0.00  0.00    -0.269 N 
ATOM      3  N   UNL     1      34.194  -9.968 -24.005  0.00  0.00    -0.229 NA
ATOM      4  C   UNL     1      33.617 -13.617 -23.742  0.00  0.00    +0.232 C 
ATOM      5  C   UNL     1      33.533 -11.100 -23.675  0.00  0.00    +0.134 C 
ATOM      6  C   UNL     1      32.361  -8.718 -23.044  0.00  0.00    +0.038 C 
ATOM      7  C   UNL     1      32.302 -11.122 -23.039  0.00  0.00    +0.035 C 
ATOM      8  C   UNL     1      31.711  -9.905 -22.721  0.00  0.00    +0.006 C 
ATOM      9  C   UNL     1      33.589  -8.803 -23.680  0.00  0.00    +0.102 C 
ATOM     10  H   UNL     1      34.994 -12.290 -24.440  0.00  0.00    +0.156 HD
ENDROOT
BRANCH   6  13
ATOM     11  N   UNL     1      31.841  -7.061 -21.435  0.00  0.00    -0.241 NA
ATOM     12  N   UNL     1      30.632  -5.453 -23.389  0.00  0.00    -0.239 NA
ATOM     13  C   UNL     1      31.774  -7.438 -22.728  0.00  0.00    +0.102 C 
ATOM     14  C   UNL     1      31.180  -6.648 -23.687  0.00  0.00    +0.118 C 
ATOM     15  C   UNL     1      31.293  -5.866 -21.137  0.00  0.00    +0.119 C 
ATOM     16  C   UNL     1      30.699  -5.076 -22.096  0.00  0.00    +0.120 C 
ENDBRANCH   6  13
BRANCH   4  17
ATOM     17  C   UNL     1      34.579 -14.682 -24.245  0.00  0.00    +0.113 C 
BRANCH  17  19
ATOM     18  N   UNL     1      34.223 -17.039 -21.303  0.00  0.00    -0.244 NA
ATOM     19  C   UNL     1      34.534 -15.956 -23.442  0.00  0.00    +0.006 C 
ATOM     20  C   UNL     1      34.706 -18.350 -23.277  0.00  0.00    -0.004 C 
ATOM     21  C   UNL     1      34.440 -18.220 -21.924  0.00  0.00    +0.077 C 
ATOM     22  C   UNL     1      34.752 -17.190 -24.044  0.00  0.00    -0.005 C 
ATOM     23  C   UNL     1      34.276 -15.935 -22.081  0.00  0.00    +0.095 C 
ATOM     24  C   UNL     1      34.941 -19.671 -23.924  0.00  0.00    +0.033 C 
BRANCH  21  26
ATOM     25  N   UNL     1      34.242 -21.586 -19.349  0.00  0.00    -0.248 NA
ATOM     26  C   UNL     1      34.372 -19.368 -21.046  0.00  0.00    +0.020 C 
ATOM     27  C   UNL     1      35.539 -19.916 -20.523  0.00  0.00    +0.016 C 
ATOM     28  C   UNL     1      33.141 -19.927 -20.722  0.00  0.00    +0.022 C 
ATOM     29  C   UNL     1      35.420 -21.015 -19.686  0.00  0.00    +0.059 C 
ATOM     30  C   UNL     1      33.130 -21.025 -19.877  0.00  0.00    +0.098 C 
ATOM     31  C   UNL     1      36.650 -21.630 -19.107  0.00  0.00    +0.052 C 
ENDBRANCH  21  26
ENDBRANCH  17  19
ENDBRANCH   4  17
TORSDOF 4
ENDMDL
MODEL 4
REMARK VINA RESULT:     -11.9      1.298      2.213
REMARK  Name = 46926973
REMARK  4 active torsions:
REMARK  status: ('A' for Active; 'I' for Inactive)
REMARK    1  A    between atoms: C_4  and  C_17
REMARK    2  A    between atoms: C_6  and  C_13
REMARK    3  A    between atoms: C_17  and  C_19
REMARK    4  A    between atoms: C_21  and  C_26
REMARK                            x       y       z     vdW  Elec       q    Type
REMARK                         _______ _______ _______ _____ _____    ______ ____
ROOT
ATOM      1  O   UNL     1      36.502 -18.720 -22.839  0.00  0.00    -0.274 OA
ATOM      2  N   UNL     1      34.291 -19.342 -22.335  0.00  0.00    -0.269 N 
ATOM      3  N   UNL     1      33.316 -20.639 -20.614  0.00  0.00    -0.229 NA
ATOM      4  C   UNL     1      35.298 -18.709 -23.076  0.00  0.00    +0.232 C 
ATOM      5  C   UNL     1      34.429 -20.116 -21.176  0.00  0.00    +0.134 C 
ATOM      6  C   UNL     1      34.735 -21.616 -18.917  0.00  0.00    +0.038 C 
ATOM      7  C   UNL     1      35.708 -20.295 -20.676  0.00  0.00    +0.035 C 
ATOM      8  C   UNL     1      35.856 -21.062 -19.526  0.00  0.00    +0.006 C 
ATOM      9  C   UNL     1      33.498 -21.378 -19.497  0.00  0.00    +0.102 C 
ATOM     10  H   UNL     1      33.372 -19.227 -22.670  0.00  0.00    +0.156 HD
ENDROOT
BRANCH   6  13
ATOM     11  N   UNL     1      36.071 -22.428 -17.140  0.00  0.00    -0.241 NA
ATOM     12  N   UNL     1      33.909 -23.872 -16.090  0.00  0.00    -0.239 NA
ATOM     13  C   UNL     1      34.855 -22.416 -17.722  0.00  0.00    +0.102 C 
ATOM     14  C   UNL     1      33.793 -23.126 -17.206  0.00  0.00    +0.118 C 
ATOM     15  C   UNL     1      36.186 -23.174 -16.024  0.00  0.00    +0.119 C 
ATOM     16  C   UNL     1      35.125 -23.884 -15.508  0.00  0.00    +0.120 C 
ENDBRANCH   6  13
BRANCH   4  17
ATOM     17  C   UNL     1      34.711 -17.967 -24.267  0.00  0.00    +0.113 C 
BRANCH  17  19
ATOM     18  N   UNL     1      33.458 -14.423 -24.726  0.00  0.00    -0.244 NA
ATOM     19  C   UNL     1      34.338 -16.540 -23.957  0.00  0.00    +0.006 C 
ATOM     20  C   UNL     1      34.158 -14.693 -22.427  0.00  0.00    -0.004 C 
ATOM     21  C   UNL     1      33.640 -13.947 -23.474  0.00  0.00    +0.077 C 
ATOM     22  C   UNL     1      34.511 -16.014 -22.683  0.00  0.00    -0.005 C 
ATOM     23  C   UNL     1      33.812 -15.710 -24.936  0.00  0.00    +0.095 C 
ATOM     24  C   UNL     1      34.345 -14.131 -21.060  0.00  0.00    +0.033 C 
BRANCH  21  26
ATOM     25  N   UNL     1      32.484  -9.896 -22.979  0.00  0.00    -0.248 NA
ATOM     26  C   UNL     1      33.246 -12.566 -23.305  0.00  0.00    +0.020 C 
ATOM     27  C   UNL     1      34.019 -11.547 -23.852  0.00  0.00    +0.016 C 
ATOM     28  C   UNL     1      32.092 -12.252 -22.596  0.00  0.00    +0.022 C 
ATOM     29  C   UNL     1      33.598 -10.241 -23.662  0.00  0.00    +0.059 C 
ATOM     30  C   UNL     1      31.758 -10.914 -22.462  0.00  0.00    +0.098 C 
ATOM     31  C   UNL     1      34.403  -9.122 -24.234  0.00  0.00    +0.052 C 
ENDBRANCH  21  26
ENDBRANCH  17  19
ENDBRANCH   4  17
TORSDOF 4
ENDMDL
MODEL 5
REMARK VINA RESULT:     -11.7      3.182      5.829
REMARK  Name = 46926973
REMARK  4 active torsions:
REMARK  status: ('A' for Active; 'I' for Inactive)
REMARK    1  A    between atoms: C_4  and  C_17
REMARK    2  A    between atoms: C_6  and  C_13
REMARK    3  A    between atoms: C_17  and  C_19
REMARK    4  A    between atoms: C_21  and  C_26
REMARK                            x       y       z     vdW  Elec       q    Type
REMARK                         _______ _______ _______ _____ _____    ______ ____
ROOT
ATOM      1  O   UNL     1      33.246 -13.225 -22.272  0.00  0.00    -0.274 OA
ATOM      2  N   UNL     1      34.388 -14.730 -23.672  0.00  0.00    -0.269 N 
ATOM      3  N   UNL     1      34.954 -17.020 -23.487  0.00  0.00    -0.229 NA
ATOM      4  C   UNL     1      33.847 -13.490 -23.309  0.00  0.00    +0.232 C 
ATOM      5  C   UNL     1      34.366 -15.928 -22.947  0.00  0.00    +0.134 C 
ATOM      6  C   UNL     1      34.300 -18.245 -21.507  0.00  0.00    +0.038 C 
ATOM      7  C   UNL     1      33.736 -15.916 -21.713  0.00  0.00    +0.035 C 
ATOM      8  C   UNL     1      33.707 -17.100 -20.985  0.00  0.00    +0.006 C 
ATOM      9  C   UNL     1      34.905 -18.153 -22.750  0.00  0.00    +0.102 C 
ATOM     10  H   UNL     1      34.840 -14.764 -24.547  0.00  0.00    +0.156 HD
ENDROOT
BRANCH   6  13
ATOM     11  N   UNL     1      35.493 -19.983 -20.429  0.00  0.00    -0.241 NA
ATOM     12  N   UNL     1      33.106 -21.297 -19.768  0.00  0.00    -0.239 NA
ATOM     13  C   UNL     1      34.287 -19.489 -20.776  0.00  0.00    +0.102 C 
ATOM     14  C   UNL     1      33.115 -20.136 -20.450  0.00  0.00    +0.118 C 
ATOM     15  C   UNL     1      35.484 -21.144 -19.746  0.00  0.00    +0.119 C 
ATOM     16  C   UNL     1      34.312 -21.791 -19.422  0.00  0.00    +0.120 C 
ENDBRANCH   6  13
BRANCH   4  17
ATOM     17  C   UNL     1      34.094 -12.452 -24.392  0.00  0.00    +0.113 C 
BRANCH  17  19
ATOM     18  N   UNL     1      31.821  -9.635 -23.281  0.00  0.00    -0.244 NA
ATOM     19  C   UNL     1      33.620 -11.071 -24.018  0.00  0.00    +0.006 C 
ATOM     20  C   UNL     1      34.019  -8.720 -23.704  0.00  0.00    -0.004 C 
ATOM     21  C   UNL     1      32.690  -8.601 -23.328  0.00  0.00    +0.077 C 
ATOM     22  C   UNL     1      34.484  -9.983 -24.054  0.00  0.00    -0.005 C 
ATOM     23  C   UNL     1      32.309 -10.846 -23.628  0.00  0.00    +0.095 C 
ATOM     24  C   UNL     1      34.947  -7.554 -23.744  0.00  0.00    +0.033 C 
BRANCH  21  26
ATOM     25  N   UNL     1      31.004  -4.872 -22.213  0.00  0.00    -0.248 NA
ATOM     26  C   UNL     1      32.116  -7.330 -22.948  0.00  0.00    +0.020 C 
ATOM     27  C   UNL     1      31.775  -6.398 -23.923  0.00  0.00    +0.016 C 
ATOM     28  C   UNL     1      31.901  -7.034 -21.606  0.00  0.00    +0.022 C 
ATOM     29  C   UNL     1      31.227  -5.195 -23.506  0.00  0.00    +0.059 C 
ATOM     30  C   UNL     1      31.348  -5.802 -21.294  0.00  0.00    +0.098 C 
ATOM     31  C   UNL     1      30.849  -4.171 -24.525  0.00  0.00    +0.052 C 
ENDBRANCH  21  26
ENDBRANCH  17  19
ENDBRANCH   4  17
TORSDOF 4
ENDMDL
MODEL 6
REMARK VINA RESULT:     -11.5      2.816     10.654
REMARK  Name = 46926973
REMARK  4 active torsions:
REMARK  status: ('A' for Active; 'I' for Inactive)
REMARK    1  A    between atoms: C_4  and  C_17
REMARK    2  A    between atoms: C_6  and  C_13
REMARK    3  A    between atoms: C_17  and  C_19
REMARK    4  A    between atoms: C_21  and  C_26
REMARK                            x       y       z     vdW  Elec       q    Type
REMARK                         _______ _______ _______ _____ _____    ______ ____
ROOT
ATOM      1  O   UNL     1      34.032 -12.987 -26.333  0.00  0.00    -0.274 OA
ATOM      2  N   UNL     1      32.894 -13.558 -24.355  0.00  0.00    -0.269 N 
ATOM      3  N   UNL     1      32.093 -12.303 -22.516  0.00  0.00    -0.229 NA
ATOM      4  C   UNL     1      33.515 -13.812 -25.586  0.00  0.00    +0.232 C 
ATOM      5  C   UNL     1      32.728 -12.326 -23.710  0.00  0.00    +0.134 C 
ATOM      6  C   UNL     1      32.417  -9.907 -22.485  0.00  0.00    +0.038 C 
ATOM      7  C   UNL     1      33.227 -11.200 -24.345  0.00  0.00    +0.035 C 
ATOM      8  C   UNL     1      33.066  -9.972 -23.714  0.00  0.00    +0.006 C 
ATOM      9  C   UNL     1      31.955 -11.091 -21.933  0.00  0.00    +0.102 C 
ATOM     10  H   UNL     1      32.530 -14.343 -23.885  0.00  0.00    +0.156 HD
ENDROOT
BRANCH   6  13
ATOM     11  N   UNL     1      31.711  -7.648 -22.544  0.00  0.00    -0.241 NA
ATOM     12  N   UNL     1      32.403  -7.297 -19.849  0.00  0.00    -0.239 NA
ATOM     13  C   UNL     1      32.235  -8.647 -21.805  0.00  0.00    +0.102 C 
ATOM     14  C   UNL     1      32.574  -8.474 -20.481  0.00  0.00    +0.118 C 
ATOM     15  C   UNL     1      31.539  -6.471 -21.911  0.00  0.00    +0.119 C 
ATOM     16  C   UNL     1      31.879  -6.298 -20.588  0.00  0.00    +0.120 C 
ENDBRANCH   6  13
BRANCH   4  17
ATOM     17  C   UNL     1      33.475 -15.296 -25.917  0.00  0.00    +0.113 C 
BRANCH  17  19
ATOM     18  N   UNL     1      34.634 -18.355 -24.012  0.00  0.00    -0.244 NA
ATOM     19  C   UNL     1      33.923 -16.176 -24.779  0.00  0.00    +0.006 C 
ATOM     20  C   UNL     1      34.456 -16.511 -22.458  0.00  0.00    -0.004 C 
ATOM     21  C   UNL     1      34.738 -17.831 -22.770  0.00  0.00    +0.077 C 
ATOM     22  C   UNL     1      34.041 -15.674 -23.489  0.00  0.00    -0.005 C 
ATOM     23  C   UNL     1      34.229 -17.512 -24.987  0.00  0.00    +0.095 C 
ATOM     24  C   UNL     1      34.581 -15.970 -21.075  0.00  0.00    +0.033 C 
BRANCH  21  26
ATOM     25  N   UNL     1      36.019 -20.602 -19.825  0.00  0.00    -0.248 NA
ATOM     26  C   UNL     1      35.175 -18.775 -21.766  0.00  0.00    +0.020 C 
ATOM     27  C   UNL     1      34.259 -19.640 -21.175  0.00  0.00    +0.016 C 
ATOM     28  C   UNL     1      36.512 -18.824 -21.387  0.00  0.00    +0.022 C 
ATOM     29  C   UNL     1      34.728 -20.526 -20.218  0.00  0.00    +0.059 C 
ATOM     30  C   UNL     1      36.880 -19.746 -20.421  0.00  0.00    +0.098 C 
ATOM     31  C   UNL     1      33.774 -21.468 -19.563  0.00  0.00    +0.052 C 
ENDBRANCH  21  26
ENDBRANCH  17  19
ENDBRANCH   4  17
TORSDOF 4
ENDMDL
MODEL 7
REMARK VINA RESULT:     -11.4      1.989      3.439
REMARK  Name = 46926973
REMARK  4 active torsions:
REMARK  status: ('A' for Active; 'I' for Inactive)
REMARK    1  A    between atoms: C_4  and  C_17
REMARK    2  A    between atoms: C_6  and  C_13
REMARK    3  A    between atoms: C_17  and  C_19
REMARK    4  A    between atoms: C_21  and  C_26
REMARK                            x       y       z     vdW  Elec       q    Type
REMARK                         _______ _______ _______ _____ _____    ______ ____
ROOT
ATOM      1  O   UNL     1      33.364 -20.515 -20.863  0.00  0.00    -0.274 OA
ATOM      2  N   UNL     1      35.116 -21.266 -19.486  0.00  0.00    -0.269 N 
ATOM      3  N   UNL     1      35.189 -22.511 -17.476  0.00  0.00    -0.229 NA
ATOM      4  C   UNL     1      34.557 -20.612 -20.592  0.00  0.00    +0.232 C 
ATOM      5  C   UNL     1      34.451 -21.945 -18.457  0.00  0.00    +0.134 C 
ATOM      6  C   UNL     1      33.121 -23.262 -16.471  0.00  0.00    +0.038 C 
ATOM      7  C   UNL     1      33.067 -21.993 -18.514  0.00  0.00    +0.035 C 
ATOM      8  C   UNL     1      32.397 -22.665 -17.498  0.00  0.00    +0.006 C 
ATOM      9  C   UNL     1      34.503 -23.156 -16.505  0.00  0.00    +0.102 C 
ATOM     10  H   UNL     1      36.098 -21.247 -19.425  0.00  0.00    +0.156 HD
ENDROOT
BRANCH   6  13
ATOM     11  N   UNL     1      31.152 -24.247 -15.603  0.00  0.00    -0.241 NA
ATOM     12  N   UNL     1      32.484 -24.988 -13.249  0.00  0.00    -0.239 NA
ATOM     13  C   UNL     1      32.455 -23.966 -15.402  0.00  0.00    +0.102 C 
ATOM     14  C   UNL     1      33.109 -24.331 -14.246  0.00  0.00    +0.118 C 
ATOM     15  C   UNL     1      30.527 -24.905 -14.606  0.00  0.00    +0.119 C 
ATOM     16  C   UNL     1      31.181 -25.268 -13.450  0.00  0.00    +0.120 C 
ENDBRANCH   6  13
BRANCH   4  17
ATOM     17  C   UNL     1      35.641 -20.006 -21.469  0.00  0.00    +0.113 C 
BRANCH  17  19
ATOM     18  N   UNL     1      34.650 -17.637 -24.252  0.00  0.00    -0.244 NA
ATOM     19  C   UNL     1      35.205 -18.750 -22.179  0.00  0.00    +0.006 C 
ATOM     20  C   UNL     1      34.559 -16.434 -22.157  0.00  0.00    -0.004 C 
ATOM     21  C   UNL     1      34.420 -16.516 -23.533  0.00  0.00    +0.077 C 
ATOM     22  C   UNL     1      34.960 -17.578 -21.475  0.00  0.00    -0.005 C 
ATOM     23  C   UNL     1      35.037 -18.728 -23.555  0.00  0.00    +0.095 C 
ATOM     24  C   UNL     1      34.297 -15.177 -21.399  0.00  0.00    +0.033 C 
BRANCH  21  26
ATOM     25  N   UNL     1      33.217 -13.183 -25.865  0.00  0.00    -0.248 NA
ATOM     26  C   UNL     1      34.010 -15.380 -24.328  0.00  0.00    +0.020 C 
ATOM     27  C   UNL     1      34.071 -14.096 -23.795  0.00  0.00    +0.016 C 
ATOM     28  C   UNL     1      33.553 -15.566 -25.628  0.00  0.00    +0.022 C 
ATOM     29  C   UNL     1      33.666 -13.041 -24.598  0.00  0.00    +0.059 C 
ATOM     30  C   UNL     1      33.172 -14.446 -26.348  0.00  0.00    +0.098 C 
ATOM     31  C   UNL     1      33.717 -11.650 -24.059  0.00  0.00    +0.052 C 
ENDBRANCH  21  26
ENDBRANCH  17  19
ENDBRANCH   4  17
TORSDOF 4
ENDMDL
MODEL 8
REMARK VINA RESULT:     -11.4      1.786      3.006
REMARK  Name = 46926973
REMARK  4 active torsions:
REMARK  status: ('A' for Active; 'I' for Inactive)
REMARK    1  A    between atoms: C_4  and  C_17
REMARK    2  A    between atoms: C_6  and  C_13
REMARK    3  A    between atoms: C_17  and  C_19
REMARK    4  A    between atoms: C_21  and  C_26
REMARK                            x       y       z     vdW  Elec       q    Type
REMARK                         _______ _______ _______ _____ _____    ______ ____
ROOT
ATOM      1  O   UNL     1      37.029 -19.930 -20.026  0.00  0.00    -0.274 OA
ATOM      2  N   UNL     1      35.290 -21.478 -19.695  0.00  0.00    -0.269 N 
ATOM      3  N   UNL     1      34.654 -22.849 -17.875  0.00  0.00    -0.229 NA
ATOM      4  C   UNL     1      36.038 -20.538 -20.417  0.00  0.00    +0.232 C 
ATOM      5  C   UNL     1      35.502 -21.929 -18.386  0.00  0.00    +0.134 C 
ATOM      6  C   UNL     1      35.944 -22.780 -15.831  0.00  0.00    +0.038 C 
ATOM      7  C   UNL     1      36.577 -21.395 -17.693  0.00  0.00    +0.035 C 
ATOM      8  C   UNL     1      36.796 -21.835 -16.392  0.00  0.00    +0.006 C 
ATOM      9  C   UNL     1      34.898 -23.252 -16.607  0.00  0.00    +0.102 C 
ATOM     10  H   UNL     1      34.520 -21.871 -20.166  0.00  0.00    +0.156 HD
ENDROOT
BRANCH   6  13
ATOM     11  N   UNL     1      37.409 -23.192 -14.017  0.00  0.00    -0.241 NA
ATOM     12  N   UNL     1      35.302 -24.193 -12.461  0.00  0.00    -0.239 NA
ATOM     13  C   UNL     1      36.145 -23.256 -14.483  0.00  0.00    +0.102 C 
ATOM     14  C   UNL     1      35.111 -23.748 -13.719  0.00  0.00    +0.118 C 
ATOM     15  C   UNL     1      37.600 -23.635 -12.759  0.00  0.00    +0.119 C 
ATOM     16  C   UNL     1      36.565 -24.128 -11.995  0.00  0.00    +0.120 C 
ENDBRANCH   6  13
BRANCH   4  17
ATOM     17  C   UNL     1      35.459 -20.338 -21.809  0.00  0.00    +0.113 C 
BRANCH  17  19
ATOM     18  N   UNL     1      34.021 -16.892 -21.184  0.00  0.00    -0.244 NA
ATOM     19  C   UNL     1      34.973 -18.934 -22.059  0.00  0.00    +0.006 C 
ATOM     20  C   UNL     1      34.555 -17.080 -23.534  0.00  0.00    -0.004 C 
ATOM     21  C   UNL     1      34.074 -16.386 -22.436  0.00  0.00    +0.077 C 
ATOM     22  C   UNL     1      35.012 -18.379 -23.333  0.00  0.00    -0.005 C 
ATOM     23  C   UNL     1      34.472 -18.156 -21.027  0.00  0.00    +0.095 C 
ATOM     24  C   UNL     1      34.597 -16.488 -24.901  0.00  0.00    +0.033 C 
BRANCH  21  26
ATOM     25  N   UNL     1      32.618 -12.415 -22.761  0.00  0.00    -0.248 NA
ATOM     26  C   UNL     1      33.578 -15.032 -22.547  0.00  0.00    +0.020 C 
ATOM     27  C   UNL     1      34.066 -14.188 -23.539  0.00  0.00    +0.016 C 
ATOM     28  C   UNL     1      32.611 -14.569 -21.662  0.00  0.00    +0.022 C 
ATOM     29  C   UNL     1      33.557 -12.901 -23.603  0.00  0.00    +0.059 C 
ATOM     30  C   UNL     1      32.168 -13.264 -21.809  0.00  0.00    +0.098 C 
ATOM     31  C   UNL     1      34.058 -11.967 -24.654  0.00  0.00    +0.052 C 
ENDBRANCH  21  26
ENDBRANCH  17  19
ENDBRANCH   4  17
TORSDOF 4
ENDMDL
MODEL 9
REMARK VINA RESULT:     -11.3      2.220     10.856
REMARK  Name = 46926973
REMARK  4 active torsions:
REMARK  status: ('A' for Active; 'I' for Inactive)
REMARK    1  A    between atoms: C_4  and  C_17
REMARK    2  A    between atoms: C_6  and  C_13
REMARK    3  A    between atoms: C_17  and  C_19
REMARK    4  A    between atoms: C_21  and  C_26
REMARK                            x       y       z     vdW  Elec       q    Type
REMARK                         _______ _______ _______ _____ _____    ______ ____
ROOT
ATOM      1  O   UNL     1      36.026 -19.021 -20.074  0.00  0.00    -0.274 OA
ATOM      2  N   UNL     1      35.457 -19.843 -22.203  0.00  0.00    -0.269 N 
ATOM      3  N   UNL     1      34.663 -18.823 -24.184  0.00  0.00    -0.229 NA
ATOM      4  C   UNL     1      35.901 -19.940 -20.877  0.00  0.00    +0.232 C 
ATOM      5  C   UNL     1      35.060 -18.694 -22.898  0.00  0.00    +0.134 C 
ATOM      6  C   UNL     1      34.299 -16.433 -24.223  0.00  0.00    +0.038 C 
ATOM      7  C   UNL     1      35.104 -17.488 -22.217  0.00  0.00    +0.035 C 
ATOM      8  C   UNL     1      34.713 -16.341 -22.898  0.00  0.00    +0.006 C 
ATOM      9  C   UNL     1      34.291 -17.686 -24.814  0.00  0.00    +0.102 C 
ATOM     10  H   UNL     1      35.419 -20.687 -22.708  0.00  0.00    +0.156 HD
ENDROOT
BRANCH   6  13
ATOM     11  N   UNL     1      33.627 -15.446 -26.267  0.00  0.00    -0.241 NA
ATOM     12  N   UNL     1      33.382 -12.933 -25.046  0.00  0.00    -0.239 NA
ATOM     13  C   UNL     1      33.887 -15.260 -24.957  0.00  0.00    +0.102 C 
ATOM     14  C   UNL     1      33.766 -14.026 -24.358  0.00  0.00    +0.118 C 
ATOM     15  C   UNL     1      33.242 -14.353 -26.955  0.00  0.00    +0.119 C 
ATOM     16  C   UNL     1      33.122 -13.119 -26.356  0.00  0.00    +0.120 C 
ENDBRANCH   6  13
BRANCH   4  17
ATOM     17  C   UNL     1      36.234 -21.381 -20.521  0.00  0.00    +0.113 C 
BRANCH  17  19
ATOM     18  N   UNL     1      33.398 -22.786 -18.443  0.00  0.00    -0.244 NA
ATOM     19  C   UNL     1      35.462 -21.898 -19.335  0.00  0.00    +0.006 C 
ATOM     20  C   UNL     1      35.310 -22.455 -17.000  0.00  0.00    -0.004 C 
ATOM     21  C   UNL     1      34.001 -22.844 -17.234  0.00  0.00    +0.077 C 
ATOM     22  C   UNL     1      36.047 -21.974 -18.077  0.00  0.00    -0.005 C 
ATOM     23  C   UNL     1      34.146 -22.313 -19.464  0.00  0.00    +0.095 C 
ATOM     24  C   UNL     1      35.940 -22.534 -15.652  0.00  0.00    +0.033 C 
BRANCH  21  26
ATOM     25  N   UNL     1      31.524 -24.346 -14.136  0.00  0.00    -0.248 NA
ATOM     26  C   UNL     1      33.157 -23.356 -16.178  0.00  0.00    +0.020 C 
ATOM     27  C   UNL     1      31.778 -23.182 -16.240  0.00  0.00    +0.016 C 
ATOM     28  C   UNL     1      33.719 -24.024 -15.096  0.00  0.00    +0.022 C 
ATOM     29  C   UNL     1      31.013 -23.692 -15.202  0.00  0.00    +0.059 C 
ATOM     30  C   UNL     1      32.867 -24.495 -14.110  0.00  0.00    +0.098 C 
ATOM     31  C   UNL     1      29.530 -23.523 -15.236  0.00  0.00    +0.052 C 
ENDBRANCH  21  26
ENDBRANCH  17  19
ENDBRANCH   4  17
TORSDOF 4
ENDMDL
