MODEL 1
REMARK VINA RESULT:      -8.4      0.000      0.000
REMARK  Name = 5284535
REMARK  5 active torsions:
REMARK  status: ('A' for Active; 'I' for Inactive)
REMARK    1  A    between atoms: C_7  and  O_22
REMARK    2  A    between atoms: C_7  and  C_27
REMARK    3  A    between atoms: C_10  and  O_24
REMARK    4  A    between atoms: C_27  and  C_28
REMARK    5  A    between atoms: C_28  and  O_29
REMARK                            x       y       z     vdW  Elec       q    Type
REMARK                         _______ _______ _______ _____ _____    ______ ____
ROOT
ATOM      1 CL   UNL     1      37.762 -22.488 -17.130  0.00  0.00    -0.083 Cl
ATOM      2  O   UNL     1      39.570 -26.550 -14.307  0.00  0.00    -0.287 OA
ATOM      3  C   UNL     1      31.785 -23.749 -14.812  0.00  0.00    +0.032 C 
ATOM      4  C   UNL     1      32.937 -23.465 -15.810  0.00  0.00    +0.007 C 
ATOM      5  C   UNL     1      34.260 -23.127 -15.107  0.00  0.00    +0.026 C 
ATOM      6  C   UNL     1      34.686 -24.378 -14.268  0.00  0.00    +0.038 C 
ATOM      7  C   UNL     1      30.627 -23.985 -15.823  0.00  0.00    +0.141 C 
ATOM      8  C   UNL     1      32.198 -24.952 -13.936  0.00  0.00    +0.032 C 
ATOM      9  C   UNL     1      32.322 -22.455 -16.776  0.00  0.00    +0.003 C 
ATOM     10  C   UNL     1      33.577 -24.778 -13.254  0.00  0.00    +0.111 C 
ATOM     11  C   UNL     1      30.853 -22.909 -16.911  0.00  0.00    +0.034 C 
ATOM     12  C   UNL     1      36.153 -24.213 -13.725  0.00  0.00    +0.041 C 
ATOM     13  C   UNL     1      31.435 -22.529 -13.911  0.00  0.00    +0.003 C 
ATOM     14  C   UNL     1      35.350 -22.697 -16.059  0.00  0.00    -0.015 C 
ATOM     15  C   UNL     1      37.063 -24.090 -14.970  0.00  0.00    -0.006 C 
ATOM     16  C   UNL     1      36.617 -23.138 -15.993  0.00  0.00    +0.050 C 
ATOM     17  C   UNL     1      36.370 -22.956 -12.848  0.00  0.00    +0.009 C 
ATOM     18  C   UNL     1      36.546 -25.397 -12.858  0.00  0.00    -0.019 C 
ATOM     19  C   UNL     1      38.153 -24.859 -15.141  0.00  0.00    +0.039 C 
ATOM     20  C   UNL     1      37.626 -26.162 -13.040  0.00  0.00    +0.038 C 
ATOM     21  C   UNL     1      38.538 -25.903 -14.167  0.00  0.00    +0.195 C 
ENDROOT
BRANCH   7  22
ATOM     22  O   UNL     1      30.716 -25.279 -16.410  0.00  0.00    -0.380 OA
ATOM     23  H   UNL     1      29.969 -25.412 -17.016  0.00  0.00    +0.211 HD
ENDBRANCH   7  22
BRANCH  10  24
ATOM     24  O   UNL     1      33.460 -23.849 -12.189  0.00  0.00    -0.384 OA
ATOM     25  H   UNL     1      33.370 -22.953 -12.549  0.00  0.00    +0.210 HD
ENDBRANCH  10  24
BRANCH   7  27
ATOM     26  O   UNL     1      28.851 -24.832 -14.482  0.00  0.00    -0.291 OA
ATOM     27  C   UNL     1      29.254 -23.940 -15.227  0.00  0.00    +0.204 C 
BRANCH  27  28
ATOM     28  C   UNL     1      28.401 -22.744 -15.596  0.00  0.00    +0.204 C 
BRANCH  28  29
ATOM     29  O   UNL     1      27.341 -23.130 -16.444  0.00  0.00    -0.375 OA
ATOM     30  H   UNL     1      27.699 -23.581 -17.225  0.00  0.00    +0.211 HD
ENDBRANCH  28  29
ENDBRANCH  27  28
ENDBRANCH   7  27
TORSDOF 5
ENDMDL
MODEL 2
REMARK VINA RESULT:      -7.4     10.952     13.447
REMARK  Name = 5284535
REMARK  5 active torsions:
REMARK  status: ('A' for Active; 'I' for Inactive)
REMARK    1  A    between atoms: C_7  and  O_22
REMARK    2  A    between atoms: C_7  and  C_27
REMARK    3  A    between atoms: C_10  and  O_24
REMARK    4  A    between atoms: C_27  and  C_28
REMARK    5  A    between atoms: C_28  and  O_29
REMARK                            x       y       z     vdW  Elec       q    Type
REMARK                         _______ _______ _______ _____ _____    ______ ____
ROOT
ATOM      1 CL   UNL     1      33.104 -13.959 -27.726  0.00  0.00    -0.083 Cl
ATOM      2  O   UNL     1      34.760  -9.490 -25.487  0.00  0.00    -0.287 OA
ATOM      3  C   UNL     1      34.647 -17.103 -22.210  0.00  0.00    +0.032 C 
ATOM      4  C   UNL     1      34.571 -16.742 -23.717  0.00  0.00    +0.007 C 
ATOM      5  C   UNL     1      33.614 -15.575 -23.999  0.00  0.00    +0.026 C 
ATOM      6  C   UNL     1      34.173 -14.313 -23.259  0.00  0.00    +0.038 C 
ATOM      7  C   UNL     1      35.617 -18.316 -22.290  0.00  0.00    +0.141 C 
ATOM      8  C   UNL     1      35.152 -15.859 -21.447  0.00  0.00    +0.032 C 
ATOM      9  C   UNL     1      34.325 -18.092 -24.387  0.00  0.00    +0.003 C 
ATOM     10  C   UNL     1      34.329 -14.579 -21.734  0.00  0.00    +0.111 C 
ATOM     11  C   UNL     1      35.154 -19.087 -23.548  0.00  0.00    +0.034 C 
ATOM     12  C   UNL     1      33.400 -13.017 -23.703  0.00  0.00    +0.041 C 
ATOM     13  C   UNL     1      33.287 -17.576 -21.620  0.00  0.00    +0.003 C 
ATOM     14  C   UNL     1      33.410 -15.312 -25.471  0.00  0.00    -0.015 C 
ATOM     15  C   UNL     1      33.638 -12.873 -25.225  0.00  0.00    -0.006 C 
ATOM     16  C   UNL     1      33.423 -14.087 -26.021  0.00  0.00    +0.050 C 
ATOM     17  C   UNL     1      31.872 -13.072 -23.461  0.00  0.00    +0.009 C 
ATOM     18  C   UNL     1      33.897 -11.801 -22.940  0.00  0.00    -0.019 C 
ATOM     19  C   UNL     1      34.085 -11.731 -25.776  0.00  0.00    +0.039 C 
ATOM     20  C   UNL     1      34.349 -10.674 -23.496  0.00  0.00    +0.038 C 
ATOM     21  C   UNL     1      34.417 -10.543 -24.961  0.00  0.00    +0.195 C 
ENDROOT
BRANCH   7  22
ATOM     22  O   UNL     1      36.963 -17.884 -22.467  0.00  0.00    -0.380 OA
ATOM     23  H   UNL     1      37.153 -17.156 -21.855  0.00  0.00    +0.211 HD
ENDBRANCH   7  22
BRANCH  10  24
ATOM     24  O   UNL     1      33.078 -14.667 -21.072  0.00  0.00    -0.384 OA
ATOM     25  H   UNL     1      32.389 -14.901 -21.712  0.00  0.00    +0.210 HD
ENDBRANCH  10  24
BRANCH   7  27
ATOM     26  O   UNL     1      36.488 -18.969 -20.171  0.00  0.00    -0.291 OA
ATOM     27  C   UNL     1      35.659 -19.168 -21.059  0.00  0.00    +0.204 C 
BRANCH  27  28
ATOM     28  C   UNL     1      34.633 -20.279 -20.976  0.00  0.00    +0.204 C 
BRANCH  28  29
ATOM     29  O   UNL     1      34.763 -20.988 -19.762  0.00  0.00    -0.375 OA
ATOM     30  H   UNL     1      35.594 -20.738 -19.328  0.00  0.00    +0.211 HD
ENDBRANCH  28  29
ENDBRANCH  27  28
ENDBRANCH   7  27
TORSDOF 5
ENDMDL
MODEL 3
REMARK VINA RESULT:      -6.1      1.925      6.998
REMARK  Name = 5284535
REMARK  5 active torsions:
REMARK  status: ('A' for Active; 'I' for Inactive)
REMARK    1  A    between atoms: C_7  and  O_22
REMARK    2  A    between atoms: C_7  and  C_27
REMARK    3  A    between atoms: C_10  and  O_24
REMARK    4  A    between atoms: C_27  and  C_28
REMARK    5  A    between atoms: C_28  and  O_29
REMARK                            x       y       z     vdW  Elec       q    Type
REMARK                         _______ _______ _______ _____ _____    ______ ____
ROOT
ATOM      1 CL   UNL     1      32.164 -21.694 -18.875  0.00  0.00    -0.083 Cl
ATOM      2  O   UNL     1      27.877 -21.685 -15.816  0.00  0.00    -0.287 OA
ATOM      3  C   UNL     1      35.521 -24.244 -13.884  0.00  0.00    +0.032 C 
ATOM      4  C   UNL     1      35.126 -23.307 -15.055  0.00  0.00    +0.007 C 
ATOM      5  C   UNL     1      33.884 -23.798 -15.813  0.00  0.00    +0.026 C 
ATOM      6  C   UNL     1      32.683 -23.796 -14.809  0.00  0.00    +0.038 C 
ATOM      7  C   UNL     1      36.802 -23.510 -13.395  0.00  0.00    +0.141 C 
ATOM      8  C   UNL     1      34.333 -24.299 -12.897  0.00  0.00    +0.032 C 
ATOM      9  C   UNL     1      36.441 -23.121 -15.810  0.00  0.00    +0.003 C 
ATOM     10  C   UNL     1      32.989 -24.679 -13.566  0.00  0.00    +0.111 C 
ATOM     11  C   UNL     1      37.512 -23.081 -14.700  0.00  0.00    +0.034 C 
ATOM     12  C   UNL     1      31.324 -24.036 -15.564  0.00  0.00    +0.041 C 
ATOM     13  C   UNL     1      35.900 -25.681 -14.344  0.00  0.00    +0.003 C 
ATOM     14  C   UNL     1      33.579 -22.986 -17.048  0.00  0.00    -0.015 C 
ATOM     15  C   UNL     1      31.170 -22.862 -16.558  0.00  0.00    -0.006 C 
ATOM     16  C   UNL     1      32.348 -22.563 -17.380  0.00  0.00    +0.050 C 
ATOM     17  C   UNL     1      31.267 -25.356 -16.370  0.00  0.00    +0.009 C 
ATOM     18  C   UNL     1      30.164 -24.098 -14.585  0.00  0.00    -0.019 C 
ATOM     19  C   UNL     1      30.054 -22.112 -16.616  0.00  0.00    +0.039 C 
ATOM     20  C   UNL     1      29.064 -23.344 -14.644  0.00  0.00    +0.038 C 
ATOM     21  C   UNL     1      28.911 -22.335 -15.706  0.00  0.00    +0.195 C 
ENDROOT
BRANCH   7  22
ATOM     22  O   UNL     1      36.471 -22.354 -12.633  0.00  0.00    -0.380 OA
ATOM     23  H   UNL     1      36.214 -22.619 -11.735  0.00  0.00    +0.211 HD
ENDBRANCH   7  22
BRANCH  10  24
ATOM     24  O   UNL     1      32.994 -26.063 -13.876  0.00  0.00    -0.384 OA
ATOM     25  H   UNL     1      33.769 -26.482 -13.472  0.00  0.00    +0.210 HD
ENDBRANCH  10  24
BRANCH   7  27
ATOM     26  O   UNL     1      37.327 -24.593 -11.340  0.00  0.00    -0.291 OA
ATOM     27  C   UNL     1      37.679 -24.316 -12.486  0.00  0.00    +0.204 C 
BRANCH  27  28
ATOM     28  C   UNL     1      39.008 -24.761 -13.056  0.00  0.00    +0.204 C 
BRANCH  28  29
ATOM     29  O   UNL     1      39.022 -26.158 -13.259  0.00  0.00    -0.375 OA
ATOM     30  H   UNL     1      39.542 -26.365 -14.051  0.00  0.00    +0.211 HD
ENDBRANCH  28  29
ENDBRANCH  27  28
ENDBRANCH   7  27
TORSDOF 5
ENDMDL
MODEL 4
REMARK VINA RESULT:      -6.1     15.029     17.497
REMARK  Name = 5284535
REMARK  5 active torsions:
REMARK  status: ('A' for Active; 'I' for Inactive)
REMARK    1  A    between atoms: C_7  and  O_22
REMARK    2  A    between atoms: C_7  and  C_27
REMARK    3  A    between atoms: C_10  and  O_24
REMARK    4  A    between atoms: C_27  and  C_28
REMARK    5  A    between atoms: C_28  and  O_29
REMARK                            x       y       z     vdW  Elec       q    Type
REMARK                         _______ _______ _______ _____ _____    ______ ____
ROOT
ATOM      1 CL   UNL     1      31.087  -6.896 -20.908  0.00  0.00    -0.083 Cl
ATOM      2  O   UNL     1      32.076  -4.247 -25.351  0.00  0.00    -0.287 OA
ATOM      3  C   UNL     1      33.498 -12.257 -23.760  0.00  0.00    +0.032 C 
ATOM      4  C   UNL     1      32.535 -11.316 -22.990  0.00  0.00    +0.007 C 
ATOM      5  C   UNL     1      33.152  -9.939 -22.707  0.00  0.00    +0.026 C 
ATOM      6  C   UNL     1      33.444  -9.257 -24.086  0.00  0.00    +0.038 C 
ATOM      7  C   UNL     1      32.610 -13.532 -23.820  0.00  0.00    +0.141 C 
ATOM      8  C   UNL     1      33.842 -11.586 -25.109  0.00  0.00    +0.032 C 
ATOM      9  C   UNL     1      32.063 -12.181 -21.822  0.00  0.00    +0.003 C 
ATOM     10  C   UNL     1      34.376 -10.139 -24.963  0.00  0.00    +0.111 C 
ATOM     11  C   UNL     1      31.950 -13.597 -22.423  0.00  0.00    +0.034 C 
ATOM     12  C   UNL     1      33.835  -7.746 -23.889  0.00  0.00    +0.041 C 
ATOM     13  C   UNL     1      34.803 -12.579 -22.976  0.00  0.00    +0.003 C 
ATOM     14  C   UNL     1      32.291  -9.068 -21.825  0.00  0.00    -0.015 C 
ATOM     15  C   UNL     1      32.615  -7.067 -23.223  0.00  0.00    -0.006 C 
ATOM     16  C   UNL     1      32.049  -7.768 -22.064  0.00  0.00    +0.050 C 
ATOM     17  C   UNL     1      35.065  -7.519 -22.977  0.00  0.00    +0.009 C 
ATOM     18  C   UNL     1      34.180  -7.098 -25.219  0.00  0.00    -0.019 C 
ATOM     19  C   UNL     1      32.059  -5.946 -23.716  0.00  0.00    +0.039 C 
ATOM     20  C   UNL     1      33.616  -5.989 -25.706  0.00  0.00    +0.038 C 
ATOM     21  C   UNL     1      32.553  -5.304 -24.953  0.00  0.00    +0.195 C 
ENDROOT
BRANCH   7  22
ATOM     22  O   UNL     1      31.601 -13.408 -24.817  0.00  0.00    -0.380 OA
ATOM     23  H   UNL     1      30.727 -13.495 -24.406  0.00  0.00    +0.211 HD
ENDBRANCH   7  22
BRANCH  10  24
ATOM     24  O   UNL     1      35.704 -10.178 -24.469  0.00  0.00    -0.384 OA
ATOM     25  H   UNL     1      36.093  -9.291 -24.518  0.00  0.00    +0.210 HD
ENDBRANCH  10  24
BRANCH   7  27
ATOM     26  O   UNL     1      33.831 -15.516 -23.323  0.00  0.00    -0.291 OA
ATOM     27  C   UNL     1      33.341 -14.789 -24.185  0.00  0.00    +0.204 C 
BRANCH  27  28
ATOM     28  C   UNL     1      33.438 -15.102 -25.663  0.00  0.00    +0.204 C 
BRANCH  28  29
ATOM     29  O   UNL     1      34.190 -16.279 -25.874  0.00  0.00    -0.375 OA
ATOM     30  H   UNL     1      34.144 -16.838 -25.083  0.00  0.00    +0.211 HD
ENDBRANCH  28  29
ENDBRANCH  27  28
ENDBRANCH   7  27
TORSDOF 5
ENDMDL
MODEL 5
REMARK VINA RESULT:      -5.9     13.853     15.983
REMARK  Name = 5284535
REMARK  5 active torsions:
REMARK  status: ('A' for Active; 'I' for Inactive)
REMARK    1  A    between atoms: C_7  and  O_22
REMARK    2  A    between atoms: C_7  and  C_27
REMARK    3  A    between atoms: C_10  and  O_24
REMARK    4  A    between atoms: C_27  and  C_28
REMARK    5  A    between atoms: C_28  and  O_29
REMARK                            x       y       z     vdW  Elec       q    Type
REMARK                         _______ _______ _______ _____ _____    ______ ____
ROOT
ATOM      1 CL   UNL     1      31.943 -14.559 -19.867  0.00  0.00    -0.083 Cl
ATOM      2  O   UNL     1      35.658 -17.249 -22.454  0.00  0.00    -0.287 OA
ATOM      3  C   UNL     1      33.251  -9.412 -23.673  0.00  0.00    +0.032 C 
ATOM      4  C   UNL     1      33.007 -10.269 -22.403  0.00  0.00    +0.007 C 
ATOM      5  C   UNL     1      32.551 -11.698 -22.732  0.00  0.00    +0.026 C 
ATOM      6  C   UNL     1      33.704 -12.392 -23.532  0.00  0.00    +0.038 C 
ATOM      7  C   UNL     1      33.625  -8.062 -22.999  0.00  0.00    +0.141 C 
ATOM      8  C   UNL     1      34.354 -10.100 -24.508  0.00  0.00    +0.032 C 
ATOM      9  C   UNL     1      32.113  -9.375 -21.546  0.00  0.00    +0.003 C 
ATOM     10  C   UNL     1      34.061 -11.589 -24.815  0.00  0.00    +0.111 C 
ATOM     11  C   UNL     1      32.641  -7.949 -21.811  0.00  0.00    +0.034 C 
ATOM     12  C   UNL     1      33.429 -13.934 -23.683  0.00  0.00    +0.041 C 
ATOM     13  C   UNL     1      31.972  -9.213 -24.538  0.00  0.00    +0.003 C 
ATOM     14  C   UNL     1      32.161 -12.495 -21.512  0.00  0.00    -0.015 C 
ATOM     15  C   UNL     1      33.377 -14.506 -22.247  0.00  0.00    -0.006 C 
ATOM     16  C   UNL     1      32.539 -13.766 -21.296  0.00  0.00    +0.050 C 
ATOM     17  C   UNL     1      32.092 -14.276 -24.383  0.00  0.00    +0.009 C 
ATOM     18  C   UNL     1      34.514 -14.599 -24.513  0.00  0.00    -0.019 C 
ATOM     19  C   UNL     1      34.110 -15.568 -21.870  0.00  0.00    +0.039 C 
ATOM     20  C   UNL     1      35.244 -15.649 -24.128  0.00  0.00    +0.038 C 
ATOM     21  C   UNL     1      35.047 -16.243 -22.795  0.00  0.00    +0.195 C 
ENDROOT
BRANCH   7  22
ATOM     22  O   UNL     1      34.961  -8.087 -22.507  0.00  0.00    -0.380 OA
ATOM     23  H   UNL     1      35.294  -7.179 -22.427  0.00  0.00    +0.211 HD
ENDBRANCH   7  22
BRANCH  10  24
ATOM     24  O   UNL     1      33.047 -11.674 -25.803  0.00  0.00    -0.384 OA
ATOM     25  H   UNL     1      33.411 -11.413 -26.663  0.00  0.00    +0.210 HD
ENDBRANCH  10  24
BRANCH   7  27
ATOM     26  O   UNL     1      34.480  -6.667 -24.730  0.00  0.00    -0.291 OA
ATOM     27  C   UNL     1      33.587  -6.873 -23.909  0.00  0.00    +0.204 C 
BRANCH  27  28
ATOM     28  C   UNL     1      32.396  -5.950 -23.759  0.00  0.00    +0.204 C 
BRANCH  28  29
ATOM     29  O   UNL     1      31.947  -5.504 -25.021  0.00  0.00    -0.375 OA
ATOM     30  H   UNL     1      31.680  -4.574 -24.959  0.00  0.00    +0.211 HD
ENDBRANCH  28  29
ENDBRANCH  27  28
ENDBRANCH   7  27
TORSDOF 5
ENDMDL
MODEL 6
REMARK VINA RESULT:      -5.6     15.765     17.895
REMARK  Name = 5284535
REMARK  5 active torsions:
REMARK  status: ('A' for Active; 'I' for Inactive)
REMARK    1  A    between atoms: C_7  and  O_22
REMARK    2  A    between atoms: C_7  and  C_27
REMARK    3  A    between atoms: C_10  and  O_24
REMARK    4  A    between atoms: C_27  and  C_28
REMARK    5  A    between atoms: C_28  and  O_29
REMARK                            x       y       z     vdW  Elec       q    Type
REMARK                         _______ _______ _______ _____ _____    ______ ____
ROOT
ATOM      1 CL   UNL     1      36.035 -10.916 -26.872  0.00  0.00    -0.083 Cl
ATOM      2  O   UNL     1      32.798 -15.029 -26.284  0.00  0.00    -0.287 OA
ATOM      3  C   UNL     1      32.025  -7.426 -23.074  0.00  0.00    +0.032 C 
ATOM      4  C   UNL     1      32.910  -7.836 -24.280  0.00  0.00    +0.007 C 
ATOM      5  C   UNL     1      33.683  -9.139 -24.030  0.00  0.00    +0.026 C 
ATOM      6  C   UNL     1      32.634 -10.284 -23.829  0.00  0.00    +0.038 C 
ATOM      7  C   UNL     1      31.457  -6.086 -23.622  0.00  0.00    +0.141 C 
ATOM      8  C   UNL     1      31.008  -8.560 -22.821  0.00  0.00    +0.032 C 
ATOM      9  C   UNL     1      33.680  -6.556 -24.598  0.00  0.00    +0.003 C 
ATOM     10  C   UNL     1      31.661  -9.955 -22.661  0.00  0.00    +0.111 C 
ATOM     11  C   UNL     1      32.663  -5.427 -24.331  0.00  0.00    +0.034 C 
ATOM     12  C   UNL     1      33.337 -11.691 -23.826  0.00  0.00    +0.041 C 
ATOM     13  C   UNL     1      32.840  -7.142 -21.779  0.00  0.00    +0.003 C 
ATOM     14  C   UNL     1      34.665  -9.470 -25.127  0.00  0.00    -0.015 C 
ATOM     15  C   UNL     1      34.008 -11.841 -25.211  0.00  0.00    -0.006 C 
ATOM     16  C   UNL     1      34.808 -10.695 -25.660  0.00  0.00    +0.050 C 
ATOM     17  C   UNL     1      34.431 -11.854 -22.744  0.00  0.00    +0.009 C 
ATOM     18  C   UNL     1      32.330 -12.799 -23.567  0.00  0.00    -0.019 C 
ATOM     19  C   UNL     1      33.814 -12.920 -25.990  0.00  0.00    +0.039 C 
ATOM     20  C   UNL     1      32.136 -13.863 -24.351  0.00  0.00    +0.038 C 
ATOM     21  C   UNL     1      32.913 -14.023 -25.592  0.00  0.00    +0.195 C 
ENDROOT
BRANCH   7  22
ATOM     22  O   UNL     1      30.420  -6.320 -24.570  0.00  0.00    -0.380 OA
ATOM     23  H   UNL     1      30.798  -6.351 -25.463  0.00  0.00    +0.211 HD
ENDBRANCH   7  22
BRANCH  10  24
ATOM     24  O   UNL     1      32.294 -10.034 -21.394  0.00  0.00    -0.384 OA
ATOM     25  H   UNL     1      32.752 -10.884 -21.313  0.00  0.00    +0.210 HD
ENDBRANCH  10  24
BRANCH   7  27
ATOM     26  O   UNL     1      30.053  -5.656 -21.747  0.00  0.00    -0.291 OA
ATOM     27  C   UNL     1      30.825  -5.203 -22.591  0.00  0.00    +0.204 C 
BRANCH  27  28
ATOM     28  C   UNL     1      31.189  -3.735 -22.651  0.00  0.00    +0.204 C 
BRANCH  28  29
ATOM     29  O   UNL     1      30.097  -2.933 -22.253  0.00  0.00    -0.375 OA
ATOM     30  H   UNL     1      29.399  -2.980 -22.925  0.00  0.00    +0.211 HD
ENDBRANCH  28  29
ENDBRANCH  27  28
ENDBRANCH   7  27
TORSDOF 5
ENDMDL
MODEL 7
REMARK VINA RESULT:      -5.6     17.863     19.964
REMARK  Name = 5284535
REMARK  5 active torsions:
REMARK  status: ('A' for Active; 'I' for Inactive)
REMARK    1  A    between atoms: C_7  and  O_22
REMARK    2  A    between atoms: C_7  and  C_27
REMARK    3  A    between atoms: C_10  and  O_24
REMARK    4  A    between atoms: C_27  and  C_28
REMARK    5  A    between atoms: C_28  and  O_29
REMARK                            x       y       z     vdW  Elec       q    Type
REMARK                         _______ _______ _______ _____ _____    ______ ____
ROOT
ATOM      1 CL   UNL     1      35.335  -9.758 -24.918  0.00  0.00    -0.083 Cl
ATOM      2  O   UNL     1      31.847 -12.700 -22.289  0.00  0.00    -0.287 OA
ATOM      3  C   UNL     1      31.514  -4.567 -23.852  0.00  0.00    +0.032 C 
ATOM      4  C   UNL     1      32.382  -5.617 -24.592  0.00  0.00    +0.007 C 
ATOM      5  C   UNL     1      33.072  -6.597 -23.632  0.00  0.00    +0.026 C 
ATOM      6  C   UNL     1      31.953  -7.388 -22.875  0.00  0.00    +0.038 C 
ATOM      7  C   UNL     1      31.033  -3.732 -25.072  0.00  0.00    +0.141 C 
ATOM      8  C   UNL     1      30.426  -5.323 -23.056  0.00  0.00    +0.032 C 
ATOM      9  C   UNL     1      33.232  -4.766 -25.533  0.00  0.00    +0.003 C 
ATOM     10  C   UNL     1      30.992  -6.423 -22.125  0.00  0.00    +0.111 C 
ATOM     11  C   UNL     1      32.283  -3.632 -25.977  0.00  0.00    +0.034 C 
ATOM     12  C   UNL     1      32.568  -8.589 -22.066  0.00  0.00    +0.041 C 
ATOM     13  C   UNL     1      32.333  -3.650 -22.897  0.00  0.00    +0.003 C 
ATOM     14  C   UNL     1      34.041  -7.526 -24.322  0.00  0.00    -0.015 C 
ATOM     15  C   UNL     1      33.241  -9.512 -23.108  0.00  0.00    -0.006 C 
ATOM     16  C   UNL     1      34.113  -8.846 -24.082  0.00  0.00    +0.050 C 
ATOM     17  C   UNL     1      33.641  -8.175 -21.030  0.00  0.00    +0.009 C 
ATOM     18  C   UNL     1      31.493  -9.320 -21.280  0.00  0.00    -0.019 C 
ATOM     19  C   UNL     1      32.988 -10.832 -23.168  0.00  0.00    +0.039 C 
ATOM     20  C   UNL     1      31.241 -10.629 -21.352  0.00  0.00    +0.038 C 
ATOM     21  C   UNL     1      32.017 -11.486 -22.263  0.00  0.00    +0.195 C 
ENDROOT
BRANCH   7  22
ATOM     22  O   UNL     1      29.992  -4.403 -25.774  0.00  0.00    -0.380 OA
ATOM     23  H   UNL     1      29.773  -3.909 -26.580  0.00  0.00    +0.211 HD
ENDBRANCH   7  22
BRANCH  10  24
ATOM     24  O   UNL     1      31.608  -5.815 -21.001  0.00  0.00    -0.384 OA
ATOM     25  H   UNL     1      31.893  -4.918 -21.234  0.00  0.00    +0.210 HD
ENDBRANCH  10  24
BRANCH   7  27
ATOM     26  O   UNL     1      30.713  -1.837 -23.665  0.00  0.00    -0.291 OA
ATOM     27  C   UNL     1      30.448  -2.396 -24.728  0.00  0.00    +0.204 C 
BRANCH  27  28
ATOM     28  C   UNL     1      29.519  -1.786 -25.756  0.00  0.00    +0.204 C 
BRANCH  28  29
ATOM     29  O   UNL     1      28.187  -1.786 -25.287  0.00  0.00    -0.375 OA
ATOM     30  H   UNL     1      27.581  -1.901 -26.036  0.00  0.00    +0.211 HD
ENDBRANCH  28  29
ENDBRANCH  27  28
ENDBRANCH   7  27
TORSDOF 5
ENDMDL
