MODEL 1
REMARK VINA RESULT:      -5.2      0.000      0.000
REMARK  Name = 7006471
REMARK  3 active torsions:
REMARK  status: ('A' for Active; 'I' for Inactive)
REMARK    1  A    between atoms: CA_1  and  C_5
REMARK    2  A    between atoms: CA_1  and  N_6
REMARK    3  A    between atoms: CA_1  and  C_12
REMARK                            x       y       z     vdW  Elec       q    Type
REMARK                         _______ _______ _______ _____ _____    ______ ____
ROOT
ATOM      1  CA  UNL     1      29.353 -22.866 -16.133  0.00  0.00    +0.137 C 
ENDROOT
BRANCH   1   5
ATOM      2  F   UNL     1      28.384 -24.613 -14.867  0.00  0.00    -0.172 F 
ATOM      3  F   UNL     1      30.379 -23.955 -14.301  0.00  0.00    -0.172 F 
ATOM      4  F   UNL     1      30.093 -25.124 -16.125  0.00  0.00    -0.172 F 
ATOM      5  C   UNL     1      29.558 -24.151 -15.358  0.00  0.00    +0.390 C 
ENDBRANCH   1   5
BRANCH   1   6
ATOM      6  N   UNL     1      30.591 -22.657 -16.949  0.00  0.00    +0.395 N 
ATOM      7  H1  UNL     1      31.259 -22.099 -16.417  0.00  0.00    -0.088 HD
ATOM      8  H2  UNL     1      30.351 -22.168 -17.812  0.00  0.00    -0.088 HD
ATOM      9  H3  UNL     1      31.006 -23.560 -17.175  0.00  0.00    -0.088 HD
ENDBRANCH   1   6
BRANCH   1  12
ATOM     10  O   UNL     1      27.771 -23.844 -17.626  0.00  0.00    -0.248 OA
ATOM     11  OXT UNL     1      27.473 -21.689 -16.938  0.00  0.00    -0.248 OA
ATOM     12  C   UNL     1      28.074 -22.802 -16.984  0.00  0.00    +0.353 C 
ENDBRANCH   1  12
TORSDOF 3
ENDMDL
MODEL 2
REMARK VINA RESULT:      -5.1     15.264     15.844
REMARK  Name = 7006471
REMARK  3 active torsions:
REMARK  status: ('A' for Active; 'I' for Inactive)
REMARK    1  A    between atoms: CA_1  and  C_5
REMARK    2  A    between atoms: CA_1  and  N_6
REMARK    3  A    between atoms: CA_1  and  C_12
REMARK                            x       y       z     vdW  Elec       q    Type
REMARK                         _______ _______ _______ _____ _____    ______ ____
ROOT
ATOM      1  CA  UNL     1      42.055 -14.337 -16.077  0.00  0.00    +0.137 C 
ENDROOT
BRANCH   1   5
ATOM      2  F   UNL     1      42.975 -14.081 -18.242  0.00  0.00    -0.172 F 
ATOM      3  F   UNL     1      41.746 -12.456 -17.479  0.00  0.00    -0.172 F 
ATOM      4  F   UNL     1      40.811 -14.330 -18.102  0.00  0.00    -0.172 F 
ATOM      5  C   UNL     1      41.889 -13.801 -17.485  0.00  0.00    +0.390 C 
ENDBRANCH   1   5
BRANCH   1   6
ATOM      6  N   UNL     1      41.291 -13.418 -15.176  0.00  0.00    +0.395 N 
ATOM      7  H1  UNL     1      41.565 -13.585 -14.208  0.00  0.00    -0.088 HD
ATOM      8  H2  UNL     1      40.291 -13.592 -15.282  0.00  0.00    -0.088 HD
ATOM      9  H3  UNL     1      41.495 -12.450 -15.425  0.00  0.00    -0.088 HD
ENDBRANCH   1   6
BRANCH   1  12
ATOM     10  O   UNL     1      40.460 -16.038 -15.578  0.00  0.00    -0.248 OA
ATOM     11  OXT UNL     1      42.615 -16.628 -16.040  0.00  0.00    -0.248 OA
ATOM     12  C   UNL     1      41.663 -15.810 -15.878  0.00  0.00    +0.353 C 
ENDBRANCH   1  12
TORSDOF 3
ENDMDL
MODEL 3
REMARK VINA RESULT:      -5.1      9.928     10.615
REMARK  Name = 7006471
REMARK  3 active torsions:
REMARK  status: ('A' for Active; 'I' for Inactive)
REMARK    1  A    between atoms: CA_1  and  C_5
REMARK    2  A    between atoms: CA_1  and  N_6
REMARK    3  A    between atoms: CA_1  and  C_12
REMARK                            x       y       z     vdW  Elec       q    Type
REMARK                         _______ _______ _______ _____ _____    ______ ____
ROOT
ATOM      1  CA  UNL     1      38.708 -25.381 -14.641  0.00  0.00    +0.137 C 
ENDROOT
BRANCH   1   5
ATOM      2  F   UNL     1      38.444 -26.029 -12.381  0.00  0.00    -0.172 F 
ATOM      3  F   UNL     1      36.649 -25.486 -13.482  0.00  0.00    -0.172 F 
ATOM      4  F   UNL     1      38.061 -23.936 -12.868  0.00  0.00    -0.172 F 
ATOM      5  C   UNL     1      37.962 -25.199 -13.335  0.00  0.00    +0.390 C 
ENDBRANCH   1   5
BRANCH   1   6
ATOM      6  N   UNL     1      38.386 -24.189 -15.487  0.00  0.00    +0.395 N 
ATOM      7  H1  UNL     1      39.072 -23.454 -15.313  0.00  0.00    -0.088 HD
ATOM      8  H2  UNL     1      37.454 -23.846 -15.251  0.00  0.00    -0.088 HD
ATOM      9  H3  UNL     1      38.413 -24.453 -16.471  0.00  0.00    -0.088 HD
ENDBRANCH   1   6
BRANCH   1  12
ATOM     10  O   UNL     1      40.937 -24.594 -14.329  0.00  0.00    -0.248 OA
ATOM     11  OXT UNL     1      40.571 -26.828 -14.611  0.00  0.00    -0.248 OA
ATOM     12  C   UNL     1      40.222 -25.616 -14.512  0.00  0.00    +0.353 C 
ENDBRANCH   1  12
TORSDOF 3
ENDMDL
MODEL 4
REMARK VINA RESULT:      -5.0      8.754      9.448
REMARK  Name = 7006471
REMARK  3 active torsions:
REMARK  status: ('A' for Active; 'I' for Inactive)
REMARK    1  A    between atoms: CA_1  and  C_5
REMARK    2  A    between atoms: CA_1  and  N_6
REMARK    3  A    between atoms: CA_1  and  C_12
REMARK                            x       y       z     vdW  Elec       q    Type
REMARK                         _______ _______ _______ _____ _____    ______ ____
ROOT
ATOM      1  CA  UNL     1      37.486 -26.504 -14.121  0.00  0.00    +0.137 C 
ENDROOT
BRANCH   1   5
ATOM      2  F   UNL     1      39.127 -25.230 -12.989  0.00  0.00    -0.172 F 
ATOM      3  F   UNL     1      38.576 -24.595 -14.995  0.00  0.00    -0.172 F 
ATOM      4  F   UNL     1      39.785 -26.393 -14.715  0.00  0.00    -0.172 F 
ATOM      5  C   UNL     1      38.755 -25.681 -14.210  0.00  0.00    +0.390 C 
ENDBRANCH   1   5
BRANCH   1   6
ATOM      6  N   UNL     1      36.760 -26.039 -12.898  0.00  0.00    +0.395 N 
ATOM      7  H1  UNL     1      36.994 -25.063 -12.714  0.00  0.00    -0.088 HD
ATOM      8  H2  UNL     1      37.037 -26.611 -12.099  0.00  0.00    -0.088 HD
ATOM      9  H3  UNL     1      35.755 -26.125 -13.046  0.00  0.00    -0.088 HD
ENDBRANCH   1   6
BRANCH   1  12
ATOM     10  O   UNL     1      35.713 -25.585 -15.424  0.00  0.00    -0.248 OA
ATOM     11  OXT UNL     1      36.858 -27.393 -16.214  0.00  0.00    -0.248 OA
ATOM     12  C   UNL     1      36.595 -26.485 -15.374  0.00  0.00    +0.353 C 
ENDBRANCH   1  12
TORSDOF 3
ENDMDL
MODEL 5
REMARK VINA RESULT:      -5.0      1.809      2.415
REMARK  Name = 7006471
REMARK  3 active torsions:
REMARK  status: ('A' for Active; 'I' for Inactive)
REMARK    1  A    between atoms: CA_1  and  C_5
REMARK    2  A    between atoms: CA_1  and  N_6
REMARK    3  A    between atoms: CA_1  and  C_12
REMARK                            x       y       z     vdW  Elec       q    Type
REMARK                         _______ _______ _______ _____ _____    ______ ____
ROOT
ATOM      1  CA  UNL     1      29.276 -23.897 -16.226  0.00  0.00    +0.137 C 
ENDROOT
BRANCH   1   5
ATOM      2  F   UNL     1      30.915 -22.345 -16.935  0.00  0.00    -0.172 F 
ATOM      3  F   UNL     1      31.599 -24.082 -15.818  0.00  0.00    -0.172 F 
ATOM      4  F   UNL     1      30.530 -22.477 -14.791  0.00  0.00    -0.172 F 
ATOM      5  C   UNL     1      30.586 -23.194 -15.933  0.00  0.00    +0.390 C 
ENDBRANCH   1   5
BRANCH   1   6
ATOM      6  N   UNL     1      28.892 -24.622 -14.974  0.00  0.00    +0.395 N 
ATOM      7  H1  UNL     1      28.470 -25.519 -15.217  0.00  0.00    -0.088 HD
ATOM      8  H2  UNL     1      28.219 -24.062 -14.449  0.00  0.00    -0.088 HD
ATOM      9  H3  UNL     1      29.722 -24.780 -14.403  0.00  0.00    -0.088 HD
ENDBRANCH   1   6
BRANCH   1  12
ATOM     10  O   UNL     1      27.914 -21.943 -16.102  0.00  0.00    -0.248 OA
ATOM     11  OXT UNL     1      27.570 -23.439 -17.790  0.00  0.00    -0.248 OA
ATOM     12  C   UNL     1      28.145 -22.999 -16.752  0.00  0.00    +0.353 C 
ENDBRANCH   1  12
TORSDOF 3
ENDMDL
MODEL 6
REMARK VINA RESULT:      -5.0      9.914     10.490
REMARK  Name = 7006471
REMARK  3 active torsions:
REMARK  status: ('A' for Active; 'I' for Inactive)
REMARK    1  A    between atoms: CA_1  and  C_5
REMARK    2  A    between atoms: CA_1  and  N_6
REMARK    3  A    between atoms: CA_1  and  C_12
REMARK                            x       y       z     vdW  Elec       q    Type
REMARK                         _______ _______ _______ _____ _____    ______ ____
ROOT
ATOM      1  CA  UNL     1      38.943 -25.072 -13.711  0.00  0.00    +0.137 C 
ENDROOT
BRANCH   1   5
ATOM      2  F   UNL     1      38.319 -23.708 -15.540  0.00  0.00    -0.172 F 
ATOM      3  F   UNL     1      36.856 -23.986 -13.955  0.00  0.00    -0.172 F 
ATOM      4  F   UNL     1      37.295 -25.624 -15.332  0.00  0.00    -0.172 F 
ATOM      5  C   UNL     1      37.844 -24.602 -14.642  0.00  0.00    +0.390 C 
ENDBRANCH   1   5
BRANCH   1   6
ATOM      6  N   UNL     1      38.319 -26.065 -12.781  0.00  0.00    +0.395 N 
ATOM      7  H1  UNL     1      37.918 -26.832 -13.322  0.00  0.00    -0.088 HD
ATOM      8  H2  UNL     1      37.583 -25.610 -12.240  0.00  0.00    -0.088 HD
ATOM      9  H3  UNL     1      39.030 -26.431 -12.148  0.00  0.00    -0.088 HD
ENDBRANCH   1   6
BRANCH   1  12
ATOM     10  O   UNL     1      40.191 -26.849 -14.696  0.00  0.00    -0.248 OA
ATOM     11  OXT UNL     1      41.115 -24.766 -14.579  0.00  0.00    -0.248 OA
ATOM     12  C   UNL     1      40.203 -25.624 -14.397  0.00  0.00    +0.353 C 
ENDBRANCH   1  12
TORSDOF 3
ENDMDL
MODEL 7
REMARK VINA RESULT:      -4.9     10.106     10.543
REMARK  Name = 7006471
REMARK  3 active torsions:
REMARK  status: ('A' for Active; 'I' for Inactive)
REMARK    1  A    between atoms: CA_1  and  C_5
REMARK    2  A    between atoms: CA_1  and  N_6
REMARK    3  A    between atoms: CA_1  and  C_12
REMARK                            x       y       z     vdW  Elec       q    Type
REMARK                         _______ _______ _______ _____ _____    ______ ____
ROOT
ATOM      1  CA  UNL     1      35.813 -18.175 -22.737  0.00  0.00    +0.137 C 
ENDROOT
BRANCH   1   5
ATOM      2  F   UNL     1      34.025 -18.231 -24.284  0.00  0.00    -0.172 F 
ATOM      3  F   UNL     1      33.855 -19.482 -22.513  0.00  0.00    -0.172 F 
ATOM      4  F   UNL     1      35.245 -20.032 -24.107  0.00  0.00    -0.172 F 
ATOM      5  C   UNL     1      34.733 -18.991 -23.416  0.00  0.00    +0.390 C 
ENDBRANCH   1   5
BRANCH   1   6
ATOM      6  N   UNL     1      35.722 -16.791 -23.299  0.00  0.00    +0.395 N 
ATOM      7  H1  UNL     1      35.667 -16.116 -22.536  0.00  0.00    -0.088 HD
ATOM      8  H2  UNL     1      34.886 -16.714 -23.880  0.00  0.00    -0.088 HD
ATOM      9  H3  UNL     1      36.548 -16.598 -23.865  0.00  0.00    -0.088 HD
ENDBRANCH   1   6
BRANCH   1  12
ATOM     10  O   UNL     1      36.361 -19.149 -20.630  0.00  0.00    -0.248 OA
ATOM     11  OXT UNL     1      35.166 -17.207 -20.685  0.00  0.00    -0.248 OA
ATOM     12  C   UNL     1      35.783 -18.184 -21.200  0.00  0.00    +0.353 C 
ENDBRANCH   1  12
TORSDOF 3
ENDMDL
MODEL 8
REMARK VINA RESULT:      -4.9      9.285      9.752
REMARK  Name = 7006471
REMARK  3 active torsions:
REMARK  status: ('A' for Active; 'I' for Inactive)
REMARK    1  A    between atoms: CA_1  and  C_5
REMARK    2  A    between atoms: CA_1  and  N_6
REMARK    3  A    between atoms: CA_1  and  C_12
REMARK                            x       y       z     vdW  Elec       q    Type
REMARK                         _______ _______ _______ _____ _____    ______ ____
ROOT
ATOM      1  CA  UNL     1      35.617 -18.065 -21.479  0.00  0.00    +0.137 C 
ENDROOT
BRANCH   1   5
ATOM      2  F   UNL     1      34.353 -19.667 -22.675  0.00  0.00    -0.172 F 
ATOM      3  F   UNL     1      33.650 -19.117 -20.692  0.00  0.00    -0.172 F 
ATOM      4  F   UNL     1      35.430 -20.365 -20.910  0.00  0.00    -0.172 F 
ATOM      5  C   UNL     1      34.762 -19.315 -21.434  0.00  0.00    +0.390 C 
ENDBRANCH   1   5
BRANCH   1   6
ATOM      6  N   UNL     1      36.336 -18.085 -22.791  0.00  0.00    +0.395 N 
ATOM      7  H1  UNL     1      37.302 -17.786 -22.654  0.00  0.00    -0.088 HD
ATOM      8  H2  UNL     1      35.874 -17.450 -23.442  0.00  0.00    -0.088 HD
ATOM      9  H3  UNL     1      36.324 -19.031 -23.171  0.00  0.00    -0.088 HD
ENDBRANCH   1   6
BRANCH   1  12
ATOM     10  O   UNL     1      35.062 -16.176 -20.132  0.00  0.00    -0.248 OA
ATOM     11  OXT UNL     1      34.136 -16.379 -22.206  0.00  0.00    -0.248 OA
ATOM     12  C   UNL     1      34.869 -16.742 -21.242  0.00  0.00    +0.353 C 
ENDBRANCH   1  12
TORSDOF 3
ENDMDL
MODEL 9
REMARK VINA RESULT:      -4.9      8.168      8.844
REMARK  Name = 7006471
REMARK  3 active torsions:
REMARK  status: ('A' for Active; 'I' for Inactive)
REMARK    1  A    between atoms: CA_1  and  C_5
REMARK    2  A    between atoms: CA_1  and  N_6
REMARK    3  A    between atoms: CA_1  and  C_12
REMARK                            x       y       z     vdW  Elec       q    Type
REMARK                         _______ _______ _______ _____ _____    ______ ____
ROOT
ATOM      1  CA  UNL     1      36.915 -25.304 -14.220  0.00  0.00    +0.137 C 
ENDROOT
BRANCH   1   5
ATOM      2  F   UNL     1      37.323 -22.986 -13.984  0.00  0.00    -0.172 F 
ATOM      3  F   UNL     1      36.556 -23.677 -15.899  0.00  0.00    -0.172 F 
ATOM      4  F   UNL     1      38.626 -24.093 -15.340  0.00  0.00    -0.172 F 
ATOM      5  C   UNL     1      37.364 -24.010 -14.868  0.00  0.00    +0.390 C 
ENDBRANCH   1   5
BRANCH   1   6
ATOM      6  N   UNL     1      35.464 -25.137 -13.894  0.00  0.00    +0.395 N 
ATOM      7  H1  UNL     1      34.902 -25.355 -14.718  0.00  0.00    -0.088 HD
ATOM      8  H2  UNL     1      35.288 -24.174 -13.608  0.00  0.00    -0.088 HD
ATOM      9  H3  UNL     1      35.211 -25.769 -13.134  0.00  0.00    -0.088 HD
ENDBRANCH   1   6
BRANCH   1  12
ATOM     10  O   UNL     1      36.338 -26.884 -15.911  0.00  0.00    -0.248 OA
ATOM     11  OXT UNL     1      38.253 -27.185 -14.709  0.00  0.00    -0.248 OA
ATOM     12  C   UNL     1      37.189 -26.581 -15.031  0.00  0.00    +0.353 C 
ENDBRANCH   1  12
TORSDOF 3
ENDMDL
