MODEL 1
REMARK VINA RESULT:      -7.1      0.000      0.000
REMARK  Name = 2022
REMARK  5 active torsions:
REMARK  status: ('A' for Active; 'I' for Inactive)
REMARK    1  A    between atoms: N_2  and  C_15
REMARK    2  A    between atoms: C_15  and  O_16
REMARK    3  A    between atoms: O_16  and  C_17
REMARK    4  A    between atoms: C_17  and  C_18
REMARK    5  A    between atoms: C_18  and  O_19
REMARK                            x       y       z     vdW  Elec       q    Type
REMARK                         _______ _______ _______ _____ _____    ______ ____
ROOT
ATOM      1  O   UNL     1      35.673 -18.989 -20.439  0.00  0.00    -0.208 OA
ATOM      2  N   UNL     1      34.356 -14.994 -22.094  0.00  0.00    -0.206 NA
ATOM      3  N   UNL     1      34.493 -16.839 -23.674  0.00  0.00    -0.279 N 
ATOM      4  N   UNL     1      35.001 -16.123 -20.265  0.00  0.00    -0.241 NA
ATOM      5  N   UNL     1      35.200 -18.920 -22.707  0.00  0.00    -0.301 NA
ATOM      6  N   UNL     1      34.690 -18.721 -25.000  0.00  0.00    -0.320 N 
ATOM      7  C   UNL     1      34.595 -16.272 -22.469  0.00  0.00    +0.191 C 
ATOM      8  C   UNL     1      34.986 -16.951 -21.352  0.00  0.00    +0.183 C 
ATOM      9  C   UNL     1      34.617 -14.951 -20.743  0.00  0.00    +0.205 C 
ATOM     10  C   UNL     1      35.318 -18.360 -21.428  0.00  0.00    +0.224 C 
ATOM     11  C   UNL     1      34.814 -18.193 -23.739  0.00  0.00    +0.245 C 
ATOM     12  H   UNL     1      34.209 -16.329 -24.468  0.00  0.00    +0.152 HD
ATOM     13  H   UNL     1      34.400 -18.150 -25.747  0.00  0.00    +0.146 HD
ATOM     14  H   UNL     1      34.892 -19.672 -25.156  0.00  0.00    +0.146 HD
ENDROOT
BRANCH   2  15
ATOM     15  C   UNL     1      33.918 -13.893 -22.916  0.00  0.00    +0.223 C 
BRANCH  15  16
ATOM     16  O   UNL     1      33.022 -14.413 -23.887  0.00  0.00    -0.335 OA
BRANCH  16  17
ATOM     17  C   UNL     1      33.217 -13.803 -25.156  0.00  0.00    +0.176 C 
BRANCH  17  18
ATOM     18  C   UNL     1      32.862 -14.798 -26.243  0.00  0.00    +0.169 C 
BRANCH  18  19
ATOM     19  O   UNL     1      33.809 -15.858 -26.230  0.00  0.00    -0.379 OA
ATOM     20  H   UNL     1      33.413 -16.651 -26.622  0.00  0.00    +0.211 HD
ENDBRANCH  18  19
ENDBRANCH  17  18
ENDBRANCH  16  17
ENDBRANCH  15  16
ENDBRANCH   2  15
TORSDOF 5
ENDMDL
MODEL 2
REMARK VINA RESULT:      -6.9      3.869      5.568
REMARK  Name = 2022
REMARK  5 active torsions:
REMARK  status: ('A' for Active; 'I' for Inactive)
REMARK    1  A    between atoms: N_2  and  C_15
REMARK    2  A    between atoms: C_15  and  O_16
REMARK    3  A    between atoms: O_16  and  C_17
REMARK    4  A    between atoms: C_17  and  C_18
REMARK    5  A    between atoms: C_18  and  O_19
REMARK                            x       y       z     vdW  Elec       q    Type
REMARK                         _______ _______ _______ _____ _____    ______ ____
ROOT
ATOM      1  O   UNL     1      32.633 -23.004 -18.266  0.00  0.00    -0.208 OA
ATOM      2  N   UNL     1      34.594 -19.809 -20.791  0.00  0.00    -0.206 NA
ATOM      3  N   UNL     1      36.018 -20.962 -19.191  0.00  0.00    -0.279 N 
ATOM      4  N   UNL     1      32.688 -20.899 -20.330  0.00  0.00    -0.241 NA
ATOM      5  N   UNL     1      34.892 -22.642 -17.895  0.00  0.00    -0.301 NA
ATOM      6  N   UNL     1      37.187 -22.178 -17.611  0.00  0.00    -0.320 N 
ATOM      7  C   UNL     1      34.866 -20.707 -19.816  0.00  0.00    +0.191 C 
ATOM      8  C   UNL     1      33.703 -21.366 -19.542  0.00  0.00    +0.183 C 
ATOM      9  C   UNL     1      33.255 -19.962 -21.072  0.00  0.00    +0.205 C 
ATOM     10  C   UNL     1      33.667 -22.401 -18.529  0.00  0.00    +0.224 C 
ATOM     11  C   UNL     1      35.976 -21.959 -18.219  0.00  0.00    +0.245 C 
ATOM     12  H   UNL     1      36.847 -20.474 -19.404  0.00  0.00    +0.152 HD
ATOM     13  H   UNL     1      37.974 -21.651 -17.877  0.00  0.00    +0.146 HD
ATOM     14  H   UNL     1      37.267 -22.863 -16.908  0.00  0.00    +0.146 HD
ENDROOT
BRANCH   2  15
ATOM     15  C   UNL     1      35.499 -18.878 -21.421  0.00  0.00    +0.223 C 
BRANCH  15  16
ATOM     16  O   UNL     1      35.473 -17.677 -20.663  0.00  0.00    -0.335 OA
BRANCH  16  17
ATOM     17  C   UNL     1      34.945 -16.596 -21.420  0.00  0.00    +0.176 C 
BRANCH  17  18
ATOM     18  C   UNL     1      34.931 -16.979 -22.887  0.00  0.00    +0.169 C 
BRANCH  18  19
ATOM     19  O   UNL     1      35.622 -15.985 -23.633  0.00  0.00    -0.379 OA
ATOM     20  H   UNL     1      36.434 -16.364 -24.003  0.00  0.00    +0.211 HD
ENDBRANCH  18  19
ENDBRANCH  17  18
ENDBRANCH  16  17
ENDBRANCH  15  16
ENDBRANCH   2  15
TORSDOF 5
ENDMDL
MODEL 3
REMARK VINA RESULT:      -6.9      1.767      5.478
REMARK  Name = 2022
REMARK  5 active torsions:
REMARK  status: ('A' for Active; 'I' for Inactive)
REMARK    1  A    between atoms: N_2  and  C_15
REMARK    2  A    between atoms: C_15  and  O_16
REMARK    3  A    between atoms: O_16  and  C_17
REMARK    4  A    between atoms: C_17  and  C_18
REMARK    5  A    between atoms: C_18  and  O_19
REMARK                            x       y       z     vdW  Elec       q    Type
REMARK                         _______ _______ _______ _____ _____    ______ ____
ROOT
ATOM      1  O   UNL     1      33.175 -15.662 -26.672  0.00  0.00    -0.208 OA
ATOM      2  N   UNL     1      35.187 -18.006 -23.372  0.00  0.00    -0.206 NA
ATOM      3  N   UNL     1      34.750 -15.654 -22.930  0.00  0.00    -0.279 N 
ATOM      4  N   UNL     1      34.332 -18.081 -25.445  0.00  0.00    -0.241 NA
ATOM      5  N   UNL     1      33.679 -14.490 -24.737  0.00  0.00    -0.301 NA
ATOM      6  N   UNL     1      34.244 -13.409 -22.719  0.00  0.00    -0.320 N 
ATOM      7  C   UNL     1      34.732 -16.766 -23.669  0.00  0.00    +0.191 C 
ATOM      8  C   UNL     1      34.215 -16.820 -24.930  0.00  0.00    +0.183 C 
ATOM      9  C   UNL     1      34.921 -18.773 -24.484  0.00  0.00    +0.205 C 
ATOM     10  C   UNL     1      33.644 -15.636 -25.540  0.00  0.00    +0.224 C 
ATOM     11  C   UNL     1      34.200 -14.520 -23.523  0.00  0.00    +0.245 C 
ATOM     12  H   UNL     1      35.130 -15.637 -22.021  0.00  0.00    +0.152 HD
ATOM     13  H   UNL     1      34.639 -13.467 -21.820  0.00  0.00    +0.146 HD
ATOM     14  H   UNL     1      33.880 -12.553 -23.042  0.00  0.00    +0.146 HD
ENDROOT
BRANCH   2  15
ATOM     15  C   UNL     1      35.818 -18.454 -22.154  0.00  0.00    +0.223 C 
BRANCH  15  16
ATOM     16  O   UNL     1      34.820 -18.489 -21.143  0.00  0.00    -0.335 OA
BRANCH  16  17
ATOM     17  C   UNL     1      34.515 -19.823 -20.760  0.00  0.00    +0.176 C 
BRANCH  17  18
ATOM     18  C   UNL     1      33.012 -20.017 -20.797  0.00  0.00    +0.169 C 
BRANCH  18  19
ATOM     19  O   UNL     1      32.591 -20.620 -19.579  0.00  0.00    -0.379 OA
ATOM     20  H   UNL     1      33.092 -20.242 -18.841  0.00  0.00    +0.211 HD
ENDBRANCH  18  19
ENDBRANCH  17  18
ENDBRANCH  16  17
ENDBRANCH  15  16
ENDBRANCH   2  15
TORSDOF 5
ENDMDL
MODEL 4
REMARK VINA RESULT:      -6.8      8.445     10.215
REMARK  Name = 2022
REMARK  5 active torsions:
REMARK  status: ('A' for Active; 'I' for Inactive)
REMARK    1  A    between atoms: N_2  and  C_15
REMARK    2  A    between atoms: C_15  and  O_16
REMARK    3  A    between atoms: O_16  and  C_17
REMARK    4  A    between atoms: C_17  and  C_18
REMARK    5  A    between atoms: C_18  and  O_19
REMARK                            x       y       z     vdW  Elec       q    Type
REMARK                         _______ _______ _______ _____ _____    ______ ____
ROOT
ATOM      1  O   UNL     1      35.457 -23.724 -15.954  0.00  0.00    -0.208 OA
ATOM      2  N   UNL     1      31.006 -23.139 -15.430  0.00  0.00    -0.206 NA
ATOM      3  N   UNL     1      31.933 -22.569 -17.606  0.00  0.00    -0.279 N 
ATOM      4  N   UNL     1      32.919 -23.792 -14.455  0.00  0.00    -0.241 NA
ATOM      5  N   UNL     1      34.302 -22.912 -17.793  0.00  0.00    -0.301 NA
ATOM      6  N   UNL     1      33.016 -22.091 -19.590  0.00  0.00    -0.320 N 
ATOM      7  C   UNL     1      31.995 -23.003 -16.344  0.00  0.00    +0.191 C 
ATOM      8  C   UNL     1      33.153 -23.402 -15.744  0.00  0.00    +0.183 C 
ATOM      9  C   UNL     1      31.617 -23.623 -14.295  0.00  0.00    +0.205 C 
ATOM     10  C   UNL     1      34.405 -23.371 -16.473  0.00  0.00    +0.224 C 
ATOM     11  C   UNL     1      33.140 -22.543 -18.300  0.00  0.00    +0.245 C 
ATOM     12  H   UNL     1      31.085 -22.286 -18.019  0.00  0.00    +0.152 HD
ATOM     13  H   UNL     1      32.134 -21.825 -19.936  0.00  0.00    +0.146 HD
ATOM     14  H   UNL     1      33.811 -22.034 -20.169  0.00  0.00    +0.146 HD
ENDROOT
BRANCH   2  15
ATOM     15  C   UNL     1      29.602 -22.848 -15.587  0.00  0.00    +0.223 C 
BRANCH  15  16
ATOM     16  O   UNL     1      29.300 -22.931 -16.973  0.00  0.00    -0.335 OA
BRANCH  16  17
ATOM     17  C   UNL     1      27.899 -22.875 -17.204  0.00  0.00    +0.176 C 
BRANCH  17  18
ATOM     18  C   UNL     1      27.216 -22.312 -15.974  0.00  0.00    +0.169 C 
BRANCH  18  19
ATOM     19  O   UNL     1      25.866 -22.001 -16.294  0.00  0.00    -0.379 OA
ATOM     20  H   UNL     1      25.811 -21.088 -16.614  0.00  0.00    +0.211 HD
ENDBRANCH  18  19
ENDBRANCH  17  18
ENDBRANCH  16  17
ENDBRANCH  15  16
ENDBRANCH   2  15
TORSDOF 5
ENDMDL
MODEL 5
REMARK VINA RESULT:      -6.7      9.133     11.341
REMARK  Name = 2022
REMARK  5 active torsions:
REMARK  status: ('A' for Active; 'I' for Inactive)
REMARK    1  A    between atoms: N_2  and  C_15
REMARK    2  A    between atoms: C_15  and  O_16
REMARK    3  A    between atoms: O_16  and  C_17
REMARK    4  A    between atoms: C_17  and  C_18
REMARK    5  A    between atoms: C_18  and  O_19
REMARK                            x       y       z     vdW  Elec       q    Type
REMARK                         _______ _______ _______ _____ _____    ______ ____
ROOT
ATOM      1  O   UNL     1      36.928 -26.370 -11.998  0.00  0.00    -0.208 OA
ATOM      2  N   UNL     1      36.394 -23.338 -15.308  0.00  0.00    -0.206 NA
ATOM      3  N   UNL     1      38.527 -24.504 -15.229  0.00  0.00    -0.279 N 
ATOM      4  N   UNL     1      35.448 -24.332 -13.531  0.00  0.00    -0.241 NA
ATOM      5  N   UNL     1      38.721 -26.094 -13.440  0.00  0.00    -0.301 NA
ATOM      6  N   UNL     1      40.475 -25.722 -14.972  0.00  0.00    -0.320 N 
ATOM      7  C   UNL     1      37.292 -24.218 -14.809  0.00  0.00    +0.191 C 
ATOM      8  C   UNL     1      36.711 -24.817 -13.730  0.00  0.00    +0.183 C 
ATOM      9  C   UNL     1      35.286 -23.443 -14.497  0.00  0.00    +0.205 C 
ATOM     10  C   UNL     1      37.430 -25.820 -12.971  0.00  0.00    +0.224 C 
ATOM     11  C   UNL     1      39.213 -25.468 -14.494  0.00  0.00    +0.245 C 
ATOM     12  H   UNL     1      38.929 -24.059 -16.011  0.00  0.00    +0.152 HD
ATOM     13  H   UNL     1      40.809 -25.237 -15.761  0.00  0.00    +0.146 HD
ATOM     14  H   UNL     1      41.045 -26.389 -14.525  0.00  0.00    +0.146 HD
ENDROOT
BRANCH   2  15
ATOM     15  C   UNL     1      36.540 -22.467 -16.448  0.00  0.00    +0.223 C 
BRANCH  15  16
ATOM     16  O   UNL     1      35.467 -22.742 -17.338  0.00  0.00    -0.335 OA
BRANCH  16  17
ATOM     17  C   UNL     1      35.568 -21.972 -18.528  0.00  0.00    +0.176 C 
BRANCH  17  18
ATOM     18  C   UNL     1      34.288 -22.124 -19.326  0.00  0.00    +0.169 C 
BRANCH  18  19
ATOM     19  O   UNL     1      33.921 -23.498 -19.358  0.00  0.00    -0.379 OA
ATOM     20  H   UNL     1      32.990 -23.590 -19.104  0.00  0.00    +0.211 HD
ENDBRANCH  18  19
ENDBRANCH  17  18
ENDBRANCH  16  17
ENDBRANCH  15  16
ENDBRANCH   2  15
TORSDOF 5
ENDMDL
MODEL 6
REMARK VINA RESULT:      -6.6      9.096     11.752
REMARK  Name = 2022
REMARK  5 active torsions:
REMARK  status: ('A' for Active; 'I' for Inactive)
REMARK    1  A    between atoms: N_2  and  C_15
REMARK    2  A    between atoms: C_15  and  O_16
REMARK    3  A    between atoms: O_16  and  C_17
REMARK    4  A    between atoms: C_17  and  C_18
REMARK    5  A    between atoms: C_18  and  O_19
REMARK                            x       y       z     vdW  Elec       q    Type
REMARK                         _______ _______ _______ _____ _____    ______ ____
ROOT
ATOM      1  O   UNL     1      29.462 -22.691 -17.195  0.00  0.00    -0.208 OA
ATOM      2  N   UNL     1      33.862 -23.360 -16.402  0.00  0.00    -0.206 NA
ATOM      3  N   UNL     1      32.319 -24.067 -14.659  0.00  0.00    -0.279 N 
ATOM      4  N   UNL     1      32.335 -22.581 -17.851  0.00  0.00    -0.241 NA
ATOM      5  N   UNL     1      30.005 -23.674 -15.167  0.00  0.00    -0.301 NA
ATOM      6  N   UNL     1      30.685 -24.665 -13.138  0.00  0.00    -0.320 N 
ATOM      7  C   UNL     1      32.643 -23.539 -15.843  0.00  0.00    +0.191 C 
ATOM      8  C   UNL     1      31.721 -23.063 -16.728  0.00  0.00    +0.183 C 
ATOM      9  C   UNL     1      33.624 -22.774 -17.625  0.00  0.00    +0.205 C 
ATOM     10  C   UNL     1      30.307 -23.113 -16.414  0.00  0.00    +0.224 C 
ATOM     11  C   UNL     1      30.958 -24.112 -14.365  0.00  0.00    +0.245 C 
ATOM     12  H   UNL     1      33.001 -24.404 -14.034  0.00  0.00    +0.152 HD
ATOM     13  H   UNL     1      31.420 -24.982 -12.566  0.00  0.00    +0.146 HD
ATOM     14  H   UNL     1      29.752 -24.745 -12.832  0.00  0.00    +0.146 HD
ENDROOT
BRANCH   2  15
ATOM     15  C   UNL     1      35.152 -23.704 -15.855  0.00  0.00    +0.223 C 
BRANCH  15  16
ATOM     16  O   UNL     1      35.177 -25.113 -15.672  0.00  0.00    -0.335 OA
BRANCH  16  17
ATOM     17  C   UNL     1      36.044 -25.484 -14.610  0.00  0.00    +0.176 C 
BRANCH  17  18
ATOM     18  C   UNL     1      37.149 -26.365 -15.157  0.00  0.00    +0.169 C 
BRANCH  18  19
ATOM     19  O   UNL     1      36.633 -27.146 -16.228  0.00  0.00    -0.379 OA
ATOM     20  H   UNL     1      35.670 -27.042 -16.269  0.00  0.00    +0.211 HD
ENDBRANCH  18  19
ENDBRANCH  17  18
ENDBRANCH  16  17
ENDBRANCH  15  16
ENDBRANCH   2  15
TORSDOF 5
ENDMDL
MODEL 7
REMARK VINA RESULT:      -6.5      1.959      3.471
REMARK  Name = 2022
REMARK  5 active torsions:
REMARK  status: ('A' for Active; 'I' for Inactive)
REMARK    1  A    between atoms: N_2  and  C_15
REMARK    2  A    between atoms: C_15  and  O_16
REMARK    3  A    between atoms: O_16  and  C_17
REMARK    4  A    between atoms: C_17  and  C_18
REMARK    5  A    between atoms: C_18  and  O_19
REMARK                            x       y       z     vdW  Elec       q    Type
REMARK                         _______ _______ _______ _____ _____    ______ ____
ROOT
ATOM      1  O   UNL     1      34.822 -19.682 -24.881  0.00  0.00    -0.208 OA
ATOM      2  N   UNL     1      34.009 -15.273 -24.302  0.00  0.00    -0.206 NA
ATOM      3  N   UNL     1      34.824 -16.497 -22.364  0.00  0.00    -0.279 N 
ATOM      4  N   UNL     1      33.984 -16.991 -25.747  0.00  0.00    -0.241 NA
ATOM      5  N   UNL     1      35.228 -18.830 -22.764  0.00  0.00    -0.301 NA
ATOM      6  N   UNL     1      35.602 -17.844 -20.655  0.00  0.00    -0.320 N 
ATOM      7  C   UNL     1      34.440 -16.370 -23.637  0.00  0.00    +0.191 C 
ATOM      8  C   UNL     1      34.422 -17.409 -24.521  0.00  0.00    +0.183 C 
ATOM      9  C   UNL     1      33.744 -15.700 -25.584  0.00  0.00    +0.205 C 
ATOM     10  C   UNL     1      34.831 -18.735 -24.104  0.00  0.00    +0.224 C 
ATOM     11  C   UNL     1      35.217 -17.774 -21.971  0.00  0.00    +0.245 C 
ATOM     12  H   UNL     1      34.829 -15.733 -21.742  0.00  0.00    +0.152 HD
ATOM     13  H   UNL     1      35.581 -17.037 -20.092  0.00  0.00    +0.146 HD
ATOM     14  H   UNL     1      35.899 -18.702 -20.275  0.00  0.00    +0.146 HD
ENDROOT
BRANCH   2  15
ATOM     15  C   UNL     1      33.855 -13.930 -23.799  0.00  0.00    +0.223 C 
BRANCH  15  16
ATOM     16  O   UNL     1      32.479 -13.740 -23.502  0.00  0.00    -0.335 OA
BRANCH  16  17
ATOM     17  C   UNL     1      32.304 -13.023 -22.287  0.00  0.00    +0.176 C 
BRANCH  17  18
ATOM     18  C   UNL     1      32.623 -13.939 -21.122  0.00  0.00    +0.169 C 
BRANCH  18  19
ATOM     19  O   UNL     1      32.137 -15.244 -21.410  0.00  0.00    -0.379 OA
ATOM     20  H   UNL     1      32.734 -15.904 -21.025  0.00  0.00    +0.211 HD
ENDBRANCH  18  19
ENDBRANCH  17  18
ENDBRANCH  16  17
ENDBRANCH  15  16
ENDBRANCH   2  15
TORSDOF 5
ENDMDL
MODEL 8
REMARK VINA RESULT:      -6.5      9.259     11.860
REMARK  Name = 2022
REMARK  5 active torsions:
REMARK  status: ('A' for Active; 'I' for Inactive)
REMARK    1  A    between atoms: N_2  and  C_15
REMARK    2  A    between atoms: C_15  and  O_16
REMARK    3  A    between atoms: O_16  and  C_17
REMARK    4  A    between atoms: C_17  and  C_18
REMARK    5  A    between atoms: C_18  and  O_19
REMARK                            x       y       z     vdW  Elec       q    Type
REMARK                         _______ _______ _______ _____ _____    ______ ____
ROOT
ATOM      1  O   UNL     1      30.170 -23.142 -15.185  0.00  0.00    -0.208 OA
ATOM      2  N   UNL     1      34.573 -23.957 -14.566  0.00  0.00    -0.206 NA
ATOM      3  N   UNL     1      33.901 -23.221 -16.785  0.00  0.00    -0.279 N 
ATOM      4  N   UNL     1      32.539 -23.935 -13.618  0.00  0.00    -0.241 NA
ATOM      5  N   UNL     1      31.546 -22.812 -17.021  0.00  0.00    -0.301 NA
ATOM      6  N   UNL     1      33.048 -22.515 -18.814  0.00  0.00    -0.320 N 
ATOM      7  C   UNL     1      33.690 -23.557 -15.510  0.00  0.00    +0.191 C 
ATOM      8  C   UNL     1      32.456 -23.546 -14.926  0.00  0.00    +0.183 C 
ATOM      9  C   UNL     1      33.826 -24.175 -13.430  0.00  0.00    +0.205 C 
ATOM     10  C   UNL     1      31.287 -23.158 -15.689  0.00  0.00    +0.224 C 
ATOM     11  C   UNL     1      32.772 -22.850 -17.512  0.00  0.00    +0.245 C 
ATOM     12  H   UNL     1      34.800 -23.236 -17.187  0.00  0.00    +0.152 HD
ATOM     13  H   UNL     1      33.974 -22.553 -19.146  0.00  0.00    +0.146 HD
ATOM     14  H   UNL     1      32.320 -22.236 -19.415  0.00  0.00    +0.146 HD
ENDROOT
BRANCH   2  15
ATOM     15  C   UNL     1      36.000 -24.124 -14.696  0.00  0.00    +0.223 C 
BRANCH  15  16
ATOM     16  O   UNL     1      36.225 -25.134 -15.669  0.00  0.00    -0.335 OA
BRANCH  16  17
ATOM     17  C   UNL     1      36.672 -26.343 -15.070  0.00  0.00    +0.176 C 
BRANCH  17  18
ATOM     18  C   UNL     1      37.419 -26.015 -13.792  0.00  0.00    +0.169 C 
BRANCH  18  19
ATOM     19  O   UNL     1      36.863 -26.771 -12.723  0.00  0.00    -0.379 OA
ATOM     20  H   UNL     1      35.915 -26.904 -12.880  0.00  0.00    +0.211 HD
ENDBRANCH  18  19
ENDBRANCH  17  18
ENDBRANCH  16  17
ENDBRANCH  15  16
ENDBRANCH   2  15
TORSDOF 5
ENDMDL
MODEL 9
REMARK VINA RESULT:      -6.5     12.672     13.200
REMARK  Name = 2022
REMARK  5 active torsions:
REMARK  status: ('A' for Active; 'I' for Inactive)
REMARK    1  A    between atoms: N_2  and  C_15
REMARK    2  A    between atoms: C_15  and  O_16
REMARK    3  A    between atoms: O_16  and  C_17
REMARK    4  A    between atoms: C_17  and  C_18
REMARK    5  A    between atoms: C_18  and  O_19
REMARK                            x       y       z     vdW  Elec       q    Type
REMARK                         _______ _______ _______ _____ _____    ______ ____
ROOT
ATOM      1  O   UNL     1      40.388 -25.137 -13.889  0.00  0.00    -0.208 OA
ATOM      2  N   UNL     1      36.224 -24.037 -12.519  0.00  0.00    -0.206 NA
ATOM      3  N   UNL     1      36.394 -25.797 -14.189  0.00  0.00    -0.279 N 
ATOM      4  N   UNL     1      38.419 -23.621 -12.303  0.00  0.00    -0.241 NA
ATOM      5  N   UNL     1      38.642 -26.314 -14.857  0.00  0.00    -0.301 NA
ATOM      6  N   UNL     1      36.782 -27.440 -15.768  0.00  0.00    -0.320 N 
ATOM      7  C   UNL     1      36.880 -24.872 -13.357  0.00  0.00    +0.191 C 
ATOM      8  C   UNL     1      38.212 -24.614 -13.220  0.00  0.00    +0.183 C 
ATOM      9  C   UNL     1      37.203 -23.294 -11.898  0.00  0.00    +0.205 C 
ATOM     10  C   UNL     1      39.187 -25.353 -13.996  0.00  0.00    +0.224 C 
ATOM     11  C   UNL     1      37.337 -26.504 -14.931  0.00  0.00    +0.245 C 
ATOM     12  H   UNL     1      35.427 -25.968 -14.273  0.00  0.00    +0.152 HD
ATOM     13  H   UNL     1      35.805 -27.555 -15.798  0.00  0.00    +0.146 HD
ATOM     14  H   UNL     1      37.361 -27.996 -16.337  0.00  0.00    +0.146 HD
ENDROOT
BRANCH   2  15
ATOM     15  C   UNL     1      34.802 -23.930 -12.301  0.00  0.00    +0.223 C 
BRANCH  15  16
ATOM     16  O   UNL     1      34.156 -24.265 -13.521  0.00  0.00    -0.335 OA
BRANCH  16  17
ATOM     17  C   UNL     1      32.807 -23.819 -13.535  0.00  0.00    +0.176 C 
BRANCH  17  18
ATOM     18  C   UNL     1      31.898 -24.999 -13.815  0.00  0.00    +0.169 C 
BRANCH  18  19
ATOM     19  O   UNL     1      30.812 -24.978 -12.897  0.00  0.00    -0.379 OA
ATOM     20  H   UNL     1      30.402 -25.855 -12.860  0.00  0.00    +0.211 HD
ENDBRANCH  18  19
ENDBRANCH  17  18
ENDBRANCH  16  17
ENDBRANCH  15  16
ENDBRANCH   2  15
TORSDOF 5
ENDMDL
