MODEL 1
REMARK VINA RESULT:      -7.3      0.000      0.000
REMARK  Name = 7054
REMARK  0 active torsions:
REMARK  status: ('A' for Active; 'I' for Inactive)
REMARK                            x       y       z     vdW  Elec       q    Type
REMARK                         _______ _______ _______ _____ _____    ______ ____
ROOT
ATOM      1  O   UNL     1      36.334 -22.367 -18.273  0.00  0.00    -0.282 OA
ATOM      2  O   UNL     1      33.818 -23.547 -17.546  0.00  0.00    -0.266 OA
ATOM      3  N   UNL     1      32.993 -21.985 -19.124  0.00  0.00    -0.278 N 
ATOM      4  C   UNL     1      34.982 -21.009 -19.738  0.00  0.00    +0.057 C 
ATOM      5  C   UNL     1      33.604 -21.022 -19.931  0.00  0.00    +0.054 C 
ATOM      6  C   UNL     1      35.271 -22.036 -18.739  0.00  0.00    +0.250 C 
ATOM      7  C   UNL     1      33.930 -22.657 -18.359  0.00  0.00    +0.289 C 
ATOM      8  C   UNL     1      35.820 -20.149 -20.413  0.00  0.00    +0.005 C 
ATOM      9  C   UNL     1      32.999 -20.160 -20.821  0.00  0.00    +0.015 C 
ATOM     10  C   UNL     1      35.221 -19.270 -21.319  0.00  0.00    +0.000 C 
ATOM     11  C   UNL     1      33.825 -19.276 -21.522  0.00  0.00    +0.001 C 
ATOM     12  H   UNL     1      32.025 -22.162 -19.103  0.00  0.00    +0.155 HD
ENDROOT
TORSDOF 0
ENDMDL
MODEL 2
REMARK VINA RESULT:      -7.1      1.576      2.444
REMARK  Name = 7054
REMARK  0 active torsions:
REMARK  status: ('A' for Active; 'I' for Inactive)
REMARK                            x       y       z     vdW  Elec       q    Type
REMARK                         _______ _______ _______ _____ _____    ______ ____
ROOT
ATOM      1  O   UNL     1      32.761 -21.826 -19.639  0.00  0.00    -0.282 OA
ATOM      2  O   UNL     1      34.932 -22.818 -18.040  0.00  0.00    -0.266 OA
ATOM      3  N   UNL     1      36.141 -21.165 -19.232  0.00  0.00    -0.278 N 
ATOM      4  C   UNL     1      34.436 -20.339 -20.533  0.00  0.00    +0.057 C 
ATOM      5  C   UNL     1      35.787 -20.238 -20.215  0.00  0.00    +0.054 C 
ATOM      6  C   UNL     1      33.890 -21.403 -19.694  0.00  0.00    +0.250 C 
ATOM      7  C   UNL     1      35.049 -21.923 -18.849  0.00  0.00    +0.289 C 
ATOM      8  C   UNL     1      33.832 -19.537 -21.476  0.00  0.00    +0.005 C 
ATOM      9  C   UNL     1      36.602 -19.317 -20.838  0.00  0.00    +0.015 C 
ATOM     10  C   UNL     1      34.645 -18.598 -22.116  0.00  0.00    +0.000 C 
ATOM     11  C   UNL     1      36.016 -18.488 -21.800  0.00  0.00    +0.001 C 
ATOM     12  H   UNL     1      37.047 -21.265 -18.860  0.00  0.00    +0.155 HD
ENDROOT
TORSDOF 0
ENDMDL
MODEL 3
REMARK VINA RESULT:      -7.0      7.492      8.008
REMARK  Name = 7054
REMARK  0 active torsions:
REMARK  status: ('A' for Active; 'I' for Inactive)
REMARK                            x       y       z     vdW  Elec       q    Type
REMARK                         _______ _______ _______ _____ _____    ______ ____
ROOT
ATOM      1  O   UNL     1      39.062 -26.779 -14.724  0.00  0.00    -0.282 OA
ATOM      2  O   UNL     1      36.704 -27.406 -16.240  0.00  0.00    -0.266 OA
ATOM      3  N   UNL     1      35.738 -25.792 -14.801  0.00  0.00    -0.278 N 
ATOM      4  C   UNL     1      37.598 -25.257 -13.559  0.00  0.00    +0.057 C 
ATOM      5  C   UNL     1      36.243 -25.008 -13.761  0.00  0.00    +0.054 C 
ATOM      6  C   UNL     1      37.984 -26.269 -14.540  0.00  0.00    +0.250 C 
ATOM      7  C   UNL     1      36.726 -26.596 -15.341  0.00  0.00    +0.289 C 
ATOM      8  C   UNL     1      38.337 -24.614 -12.591  0.00  0.00    +0.005 C 
ATOM      9  C   UNL     1      35.562 -24.091 -12.988  0.00  0.00    +0.015 C 
ATOM     10  C   UNL     1      37.660 -23.682 -11.800  0.00  0.00    +0.000 C 
ATOM     11  C   UNL     1      36.288 -23.422 -11.996  0.00  0.00    +0.001 C 
ATOM     12  H   UNL     1      34.804 -25.774 -15.109  0.00  0.00    +0.155 HD
ENDROOT
TORSDOF 0
ENDMDL
MODEL 4
REMARK VINA RESULT:      -7.0      6.105      7.491
REMARK  Name = 7054
REMARK  0 active torsions:
REMARK  status: ('A' for Active; 'I' for Inactive)
REMARK                            x       y       z     vdW  Elec       q    Type
REMARK                         _______ _______ _______ _____ _____    ______ ____
ROOT
ATOM      1  O   UNL     1      34.620 -17.759 -25.602  0.00  0.00    -0.282 OA
ATOM      2  O   UNL     1      33.385 -15.387 -26.651  0.00  0.00    -0.266 OA
ATOM      3  N   UNL     1      33.501 -14.712 -24.383  0.00  0.00    -0.278 N 
ATOM      4  C   UNL     1      34.488 -16.589 -23.497  0.00  0.00    +0.057 C 
ATOM      5  C   UNL     1      33.981 -15.322 -23.222  0.00  0.00    +0.054 C 
ATOM      6  C   UNL     1      34.320 -16.801 -24.934  0.00  0.00    +0.250 C 
ATOM      7  C   UNL     1      33.664 -15.537 -25.482  0.00  0.00    +0.289 C 
ATOM      8  C   UNL     1      35.023 -17.404 -22.524  0.00  0.00    +0.005 C 
ATOM      9  C   UNL     1      33.988 -14.812 -21.942  0.00  0.00    +0.015 C 
ATOM     10  C   UNL     1      35.037 -16.900 -21.222  0.00  0.00    +0.000 C 
ATOM     11  C   UNL     1      34.526 -15.618 -20.932  0.00  0.00    +0.001 C 
ATOM     12  H   UNL     1      33.099 -13.813 -24.415  0.00  0.00    +0.155 HD
ENDROOT
TORSDOF 0
ENDMDL
MODEL 5
REMARK VINA RESULT:      -7.0      4.890      6.039
REMARK  Name = 7054
REMARK  0 active torsions:
REMARK  status: ('A' for Active; 'I' for Inactive)
REMARK                            x       y       z     vdW  Elec       q    Type
REMARK                         _______ _______ _______ _____ _____    ______ ____
ROOT
ATOM      1  O   UNL     1      34.509 -14.447 -22.656  0.00  0.00    -0.282 OA
ATOM      2  O   UNL     1      34.863 -15.367 -19.958  0.00  0.00    -0.266 OA
ATOM      3  N   UNL     1      34.936 -17.479 -21.028  0.00  0.00    -0.278 N 
ATOM      4  C   UNL     1      34.655 -16.791 -23.203  0.00  0.00    +0.057 C 
ATOM      5  C   UNL     1      34.836 -17.884 -22.361  0.00  0.00    +0.054 C 
ATOM      6  C   UNL     1      34.640 -15.606 -22.348  0.00  0.00    +0.250 C 
ATOM      7  C   UNL     1      34.829 -16.104 -20.918  0.00  0.00    +0.289 C 
ATOM      8  C   UNL     1      34.526 -16.918 -24.569  0.00  0.00    +0.005 C 
ATOM      9  C   UNL     1      34.894 -19.168 -22.859  0.00  0.00    +0.015 C 
ATOM     10  C   UNL     1      34.583 -18.213 -25.088  0.00  0.00    +0.000 C 
ATOM     11  C   UNL     1      34.766 -19.327 -24.243  0.00  0.00    +0.001 C 
ATOM     12  H   UNL     1      35.067 -18.090 -20.268  0.00  0.00    +0.155 HD
ENDROOT
TORSDOF 0
ENDMDL
MODEL 6
REMARK VINA RESULT:      -7.0      2.896      4.083
REMARK  Name = 7054
REMARK  0 active torsions:
REMARK  status: ('A' for Active; 'I' for Inactive)
REMARK                            x       y       z     vdW  Elec       q    Type
REMARK                         _______ _______ _______ _____ _____    ______ ____
ROOT
ATOM      1  O   UNL     1      37.469 -19.041 -21.223  0.00  0.00    -0.282 OA
ATOM      2  O   UNL     1      35.607 -17.211 -22.423  0.00  0.00    -0.266 OA
ATOM      3  N   UNL     1      34.027 -18.669 -21.427  0.00  0.00    -0.278 N 
ATOM      4  C   UNL     1      35.477 -20.160 -20.449  0.00  0.00    +0.057 C 
ATOM      5  C   UNL     1      34.142 -19.826 -20.653  0.00  0.00    +0.054 C 
ATOM      6  C   UNL     1      36.270 -19.144 -21.138  0.00  0.00    +0.250 C 
ATOM      7  C   UNL     1      35.273 -18.177 -21.772  0.00  0.00    +0.289 C 
ATOM      8  C   UNL     1      35.865 -21.261 -19.718  0.00  0.00    +0.005 C 
ATOM      9  C   UNL     1      33.124 -20.594 -20.128  0.00  0.00    +0.015 C 
ATOM     10  C   UNL     1      34.846 -22.049 -19.179  0.00  0.00    +0.000 C 
ATOM     11  C   UNL     1      33.489 -21.719 -19.381  0.00  0.00    +0.001 C 
ATOM     12  H   UNL     1      33.172 -18.257 -21.691  0.00  0.00    +0.155 HD
ENDROOT
TORSDOF 0
ENDMDL
MODEL 7
REMARK VINA RESULT:      -6.9      5.622      6.959
REMARK  Name = 7054
REMARK  0 active torsions:
REMARK  status: ('A' for Active; 'I' for Inactive)
REMARK                            x       y       z     vdW  Elec       q    Type
REMARK                         _______ _______ _______ _____ _____    ______ ____
ROOT
ATOM      1  O   UNL     1      34.221 -14.504 -23.680  0.00  0.00    -0.282 OA
ATOM      2  O   UNL     1      33.826 -15.616 -26.299  0.00  0.00    -0.266 OA
ATOM      3  N   UNL     1      34.334 -17.635 -25.167  0.00  0.00    -0.278 N 
ATOM      4  C   UNL     1      34.661 -16.791 -23.054  0.00  0.00    +0.057 C 
ATOM      5  C   UNL     1      34.651 -17.938 -23.841  0.00  0.00    +0.054 C 
ATOM      6  C   UNL     1      34.326 -15.677 -23.939  0.00  0.00    +0.250 C 
ATOM      7  C   UNL     1      34.118 -16.277 -25.327  0.00  0.00    +0.289 C 
ATOM      8  C   UNL     1      34.945 -16.815 -21.707  0.00  0.00    +0.005 C 
ATOM      9  C   UNL     1      34.932 -19.177 -23.304  0.00  0.00    +0.015 C 
ATOM     10  C   UNL     1      35.232 -18.063 -21.148  0.00  0.00    +0.000 C 
ATOM     11  C   UNL     1      35.224 -19.232 -21.937  0.00  0.00    +0.001 C 
ATOM     12  H   UNL     1      34.273 -18.298 -25.892  0.00  0.00    +0.155 HD
ENDROOT
TORSDOF 0
ENDMDL
MODEL 8
REMARK VINA RESULT:      -6.9      4.239      5.584
REMARK  Name = 7054
REMARK  0 active torsions:
REMARK  status: ('A' for Active; 'I' for Inactive)
REMARK                            x       y       z     vdW  Elec       q    Type
REMARK                         _______ _______ _______ _____ _____    ______ ____
ROOT
ATOM      1  O   UNL     1      35.007 -16.252 -20.249  0.00  0.00    -0.282 OA
ATOM      2  O   UNL     1      36.168 -18.868 -20.491  0.00  0.00    -0.266 OA
ATOM      3  N   UNL     1      35.597 -18.560 -22.770  0.00  0.00    -0.278 N 
ATOM      4  C   UNL     1      34.658 -16.467 -22.626  0.00  0.00    +0.057 C 
ATOM      5  C   UNL     1      34.986 -17.520 -23.474  0.00  0.00    +0.054 C 
ATOM      6  C   UNL     1      35.092 -16.861 -21.287  0.00  0.00    +0.250 C 
ATOM      7  C   UNL     1      35.708 -18.250 -21.426  0.00  0.00    +0.289 C 
ATOM      8  C   UNL     1      34.043 -15.317 -23.071  0.00  0.00    +0.005 C 
ATOM      9  C   UNL     1      34.705 -17.466 -24.823  0.00  0.00    +0.015 C 
ATOM     10  C   UNL     1      33.752 -15.248 -24.435  0.00  0.00    +0.000 C 
ATOM     11  C   UNL     1      34.081 -16.310 -25.303  0.00  0.00    +0.001 C 
ATOM     12  H   UNL     1      35.909 -19.401 -23.175  0.00  0.00    +0.155 HD
ENDROOT
TORSDOF 0
ENDMDL
MODEL 9
REMARK VINA RESULT:      -6.9      6.506      7.641
REMARK  Name = 7054
REMARK  0 active torsions:
REMARK  status: ('A' for Active; 'I' for Inactive)
REMARK                            x       y       z     vdW  Elec       q    Type
REMARK                         _______ _______ _______ _____ _____    ______ ____
ROOT
ATOM      1  O   UNL     1      33.015 -14.829 -25.436  0.00  0.00    -0.282 OA
ATOM      2  O   UNL     1      34.987 -16.860 -25.927  0.00  0.00    -0.266 OA
ATOM      3  N   UNL     1      35.185 -16.786 -23.567  0.00  0.00    -0.278 N 
ATOM      4  C   UNL     1      33.616 -15.164 -23.124  0.00  0.00    +0.057 C 
ATOM      5  C   UNL     1      34.550 -16.037 -22.574  0.00  0.00    +0.054 C 
ATOM      6  C   UNL     1      33.657 -15.372 -24.571  0.00  0.00    +0.250 C 
ATOM      7  C   UNL     1      34.706 -16.452 -24.822  0.00  0.00    +0.289 C 
ATOM      8  C   UNL     1      32.853 -14.311 -22.359  0.00  0.00    +0.005 C 
ATOM      9  C   UNL     1      34.762 -16.090 -21.212  0.00  0.00    +0.015 C 
ATOM     10  C   UNL     1      33.057 -14.353 -20.978  0.00  0.00    +0.000 C 
ATOM     11  C   UNL     1      34.001 -15.234 -20.409  0.00  0.00    +0.001 C 
ATOM     12  H   UNL     1      35.880 -17.462 -23.398  0.00  0.00    +0.155 HD
ENDROOT
TORSDOF 0
ENDMDL
