MODEL 1
REMARK VINA RESULT:      -8.4      0.000      0.000
REMARK  Name = 91488
REMARK  6 active torsions:
REMARK  status: ('A' for Active; 'I' for Inactive)
REMARK    1  A    between atoms: C_8  and  O_23
REMARK    2  A    between atoms: C_8  and  C_30
REMARK    3  A    between atoms: C_11  and  O_25
REMARK    4  A    between atoms: C_12  and  O_27
REMARK    5  A    between atoms: C_30  and  C_31
REMARK    6  A    between atoms: C_31  and  O_32
REMARK                            x       y       z     vdW  Elec       q    Type
REMARK                         _______ _______ _______ _____ _____    ______ ____
ROOT
ATOM      1  F   UNL     1      35.321 -25.428 -14.931  0.00  0.00    -0.237 F 
ATOM      2  F   UNL     1      38.007 -22.658 -16.914  0.00  0.00    -0.233 F 
ATOM      3  O   UNL     1      40.066 -26.470 -14.616  0.00  0.00    -0.287 OA
ATOM      4  C   UNL     1      32.340 -23.620 -14.516  0.00  0.00    +0.034 C 
ATOM      5  C   UNL     1      33.404 -23.477 -15.627  0.00  0.00    +0.008 C 
ATOM      6  C   UNL     1      34.807 -23.136 -15.098  0.00  0.00    +0.036 C 
ATOM      7  C   UNL     1      35.283 -24.284 -14.144  0.00  0.00    +0.165 C 
ATOM      8  C   UNL     1      31.096 -23.907 -15.407  0.00  0.00    +0.166 C 
ATOM      9  C   UNL     1      32.787 -24.771 -13.591  0.00  0.00    +0.035 C 
ATOM     10  C   UNL     1      32.747 -22.544 -16.647  0.00  0.00    +0.032 C 
ATOM     11  C   UNL     1      34.225 -24.614 -13.046  0.00  0.00    +0.141 C 
ATOM     12  C   UNL     1      31.244 -22.886 -16.563  0.00  0.00    +0.142 C 
ATOM     13  C   UNL     1      36.768 -24.074 -13.646  0.00  0.00    +0.066 C 
ATOM     14  C   UNL     1      35.786 -22.947 -16.268  0.00  0.00    +0.042 C 
ATOM     15  C   UNL     1      32.129 -22.320 -13.694  0.00  0.00    +0.003 C 
ATOM     16  C   UNL     1      37.220 -22.740 -15.801  0.00  0.00    +0.180 C 
ATOM     17  C   UNL     1      37.645 -23.863 -14.889  0.00  0.00    -0.003 C 
ATOM     18  C   UNL     1      36.950 -22.850 -12.719  0.00  0.00    +0.011 C 
ATOM     19  C   UNL     1      37.227 -25.284 -12.845  0.00  0.00    -0.017 C 
ATOM     20  C   UNL     1      38.699 -24.637 -15.193  0.00  0.00    +0.036 C 
ATOM     21  C   UNL     1      38.274 -26.059 -13.146  0.00  0.00    +0.038 C 
ATOM     22  C   UNL     1      39.093 -25.777 -14.338  0.00  0.00    +0.195 C 
ENDROOT
BRANCH   8  23
ATOM     23  O   UNL     1      31.116 -25.242 -15.900  0.00  0.00    -0.377 OA
ATOM     24  H   UNL     1      31.453 -25.245 -16.809  0.00  0.00    +0.211 HD
ENDBRANCH   8  23
BRANCH  11  25
ATOM     25  O   UNL     1      34.235 -23.636 -12.015  0.00  0.00    -0.382 OA
ATOM     26  H   UNL     1      34.531 -24.045 -11.186  0.00  0.00    +0.210 HD
ENDBRANCH  11  25
BRANCH  12  27
ATOM     27  O   UNL     1      30.766 -23.405 -17.795  0.00  0.00    -0.382 OA
ATOM     28  H   UNL     1      31.518 -23.658 -18.353  0.00  0.00    +0.210 HD
ENDBRANCH  12  27
BRANCH   8  30
ATOM     29  O   UNL     1      29.442 -24.611 -13.842  0.00  0.00    -0.291 OA
ATOM     30  C   UNL     1      29.786 -23.786 -14.687  0.00  0.00    +0.206 C 
BRANCH  30  31
ATOM     31  C   UNL     1      28.923 -22.599 -15.061  0.00  0.00    +0.204 C 
BRANCH  31  32
ATOM     32  O   UNL     1      27.799 -23.014 -15.807  0.00  0.00    -0.375 OA
ATOM     33  H   UNL     1      27.252 -22.243 -16.024  0.00  0.00    +0.211 HD
ENDBRANCH  31  32
ENDBRANCH  30  31
ENDBRANCH   8  30
TORSDOF 6
ENDMDL
MODEL 2
REMARK VINA RESULT:      -6.6     10.561     13.242
REMARK  Name = 91488
REMARK  6 active torsions:
REMARK  status: ('A' for Active; 'I' for Inactive)
REMARK    1  A    between atoms: C_8  and  O_23
REMARK    2  A    between atoms: C_8  and  C_30
REMARK    3  A    between atoms: C_11  and  O_25
REMARK    4  A    between atoms: C_12  and  O_27
REMARK    5  A    between atoms: C_30  and  C_31
REMARK    6  A    between atoms: C_31  and  O_32
REMARK                            x       y       z     vdW  Elec       q    Type
REMARK                         _______ _______ _______ _____ _____    ______ ____
ROOT
ATOM      1  F   UNL     1      35.418 -14.345 -23.900  0.00  0.00    -0.237 F 
ATOM      2  F   UNL     1      32.808 -14.218 -27.364  0.00  0.00    -0.233 F 
ATOM      3  O   UNL     1      34.961 -10.007 -26.061  0.00  0.00    -0.287 OA
ATOM      4  C   UNL     1      34.462 -17.257 -22.185  0.00  0.00    +0.034 C 
ATOM      5  C   UNL     1      34.399 -16.970 -23.702  0.00  0.00    +0.008 C 
ATOM      6  C   UNL     1      33.535 -15.751 -24.064  0.00  0.00    +0.036 C 
ATOM      7  C   UNL     1      34.138 -14.478 -23.376  0.00  0.00    +0.165 C 
ATOM      8  C   UNL     1      35.350 -18.535 -22.217  0.00  0.00    +0.166 C 
ATOM      9  C   UNL     1      35.086 -16.020 -21.505  0.00  0.00    +0.035 C 
ATOM     10  C   UNL     1      34.060 -18.329 -24.318  0.00  0.00    +0.032 C 
ATOM     11  C   UNL     1      34.374 -14.691 -21.849  0.00  0.00    +0.141 C 
ATOM     12  C   UNL     1      34.755 -19.351 -23.393  0.00  0.00    +0.142 C 
ATOM     13  C   UNL     1      33.380 -13.155 -23.791  0.00  0.00    +0.066 C 
ATOM     14  C   UNL     1      33.471 -15.577 -25.590  0.00  0.00    +0.042 C 
ATOM     15  C   UNL     1      33.077 -17.574 -21.559  0.00  0.00    +0.003 C 
ATOM     16  C   UNL     1      32.740 -14.307 -26.002  0.00  0.00    +0.180 C 
ATOM     17  C   UNL     1      33.349 -13.104 -25.325  0.00  0.00    -0.003 C 
ATOM     18  C   UNL     1      31.923 -13.081 -23.279  0.00  0.00    +0.011 C 
ATOM     19  C   UNL     1      34.095 -11.941 -23.213  0.00  0.00    -0.017 C 
ATOM     20  C   UNL     1      33.860 -12.093 -26.045  0.00  0.00    +0.036 C 
ATOM     21  C   UNL     1      34.606 -10.933 -23.926  0.00  0.00    +0.038 C 
ATOM     22  C   UNL     1      34.510 -10.934 -25.397  0.00  0.00    +0.195 C 
ENDROOT
BRANCH   8  23
ATOM     23  O   UNL     1      36.712 -18.207 -22.462  0.00  0.00    -0.377 OA
ATOM     24  H   UNL     1      36.797 -17.249 -22.582  0.00  0.00    +0.211 HD
ENDBRANCH   8  23
BRANCH  11  25
ATOM     25  O   UNL     1      33.154 -14.608 -21.125  0.00  0.00    -0.382 OA
ATOM     26  H   UNL     1      33.080 -15.371 -20.530  0.00  0.00    +0.210 HD
ENDBRANCH  11  25
BRANCH  12  27
ATOM     27  O   UNL     1      35.752 -20.081 -24.091  0.00  0.00    -0.382 OA
ATOM     28  H   UNL     1      35.449 -20.261 -24.995  0.00  0.00    +0.210 HD
ENDBRANCH  12  27
BRANCH   8  30
ATOM     29  O   UNL     1      36.300 -19.193 -20.132  0.00  0.00    -0.291 OA
ATOM     30  C   UNL     1      35.367 -19.301 -20.927  0.00  0.00    +0.206 C 
BRANCH  30  31
ATOM     31  C   UNL     1      34.181 -20.205 -20.668  0.00  0.00    +0.204 C 
BRANCH  31  32
ATOM     32  O   UNL     1      34.498 -21.179 -19.696  0.00  0.00    -0.375 OA
ATOM     33  H   UNL     1      35.290 -20.904 -19.210  0.00  0.00    +0.211 HD
ENDBRANCH  31  32
ENDBRANCH  30  31
ENDBRANCH   8  30
TORSDOF 6
ENDMDL
MODEL 3
REMARK VINA RESULT:      -5.8     14.415     17.125
REMARK  Name = 91488
REMARK  6 active torsions:
REMARK  status: ('A' for Active; 'I' for Inactive)
REMARK    1  A    between atoms: C_8  and  O_23
REMARK    2  A    between atoms: C_8  and  C_30
REMARK    3  A    between atoms: C_11  and  O_25
REMARK    4  A    between atoms: C_12  and  O_27
REMARK    5  A    between atoms: C_30  and  C_31
REMARK    6  A    between atoms: C_31  and  O_32
REMARK                            x       y       z     vdW  Elec       q    Type
REMARK                         _______ _______ _______ _____ _____    ______ ____
ROOT
ATOM      1  F   UNL     1      31.417  -9.307 -23.637  0.00  0.00    -0.237 F 
ATOM      2  F   UNL     1      31.718  -7.683 -19.625  0.00  0.00    -0.233 F 
ATOM      3  O   UNL     1      30.291  -4.595 -23.158  0.00  0.00    -0.287 OA
ATOM      4  C   UNL     1      33.373 -12.222 -23.556  0.00  0.00    +0.034 C 
ATOM      5  C   UNL     1      32.582 -11.562 -22.403  0.00  0.00    +0.008 C 
ATOM      6  C   UNL     1      33.015 -10.116 -22.108  0.00  0.00    +0.036 C 
ATOM      7  C   UNL     1      32.782  -9.244 -23.389  0.00  0.00    +0.165 C 
ATOM      8  C   UNL     1      32.712 -13.632 -23.527  0.00  0.00    +0.166 C 
ATOM      9  C   UNL     1      33.122 -11.387 -24.828  0.00  0.00    +0.035 C 
ATOM     10  C   UNL     1      32.639 -12.599 -21.279  0.00  0.00    +0.032 C 
ATOM     11  C   UNL     1      33.428  -9.880 -24.659  0.00  0.00    +0.141 C 
ATOM     12  C   UNL     1      32.638 -13.957 -22.013  0.00  0.00    +0.142 C 
ATOM     13  C   UNL     1      33.089  -7.714 -23.138  0.00  0.00    +0.066 C 
ATOM     14  C   UNL     1      32.229  -9.560 -20.909  0.00  0.00    +0.042 C 
ATOM     15  C   UNL     1      34.896 -12.332 -23.276  0.00  0.00    +0.003 C 
ATOM     16  C   UNL     1      32.519  -8.087 -20.655  0.00  0.00    +0.180 C 
ATOM     17  C   UNL     1      32.281  -7.279 -21.907  0.00  0.00    -0.003 C 
ATOM     18  C   UNL     1      34.580  -7.411 -22.864  0.00  0.00    +0.011 C 
ATOM     19  C   UNL     1      32.708  -6.898 -24.365  0.00  0.00    -0.017 C 
ATOM     20  C   UNL     1      31.385  -6.280 -21.923  0.00  0.00    +0.036 C 
ATOM     21  C   UNL     1      31.815  -5.903 -24.385  0.00  0.00    +0.038 C 
ATOM     22  C   UNL     1      31.101  -5.516 -23.156  0.00  0.00    +0.195 C 
ENDROOT
BRANCH   8  23
ATOM     23  O   UNL     1      31.413 -13.601 -24.106  0.00  0.00    -0.377 OA
ATOM     24  H   UNL     1      31.255 -14.426 -24.590  0.00  0.00    +0.211 HD
ENDBRANCH   8  23
BRANCH  11  25
ATOM     25  O   UNL     1      34.834  -9.680 -24.674  0.00  0.00    -0.382 OA
ATOM     26  H   UNL     1      35.040  -8.874 -25.174  0.00  0.00    +0.210 HD
ENDBRANCH  11  25
BRANCH  12  27
ATOM     27  O   UNL     1      31.482 -14.715 -21.689  0.00  0.00    -0.382 OA
ATOM     28  H   UNL     1      31.471 -15.530 -22.214  0.00  0.00    +0.210 HD
ENDBRANCH  12  27
BRANCH   8  30
ATOM     29  O   UNL     1      34.326 -15.366 -23.786  0.00  0.00    -0.291 OA
ATOM     30  C   UNL     1      33.455 -14.673 -24.310  0.00  0.00    +0.206 C 
BRANCH  30  31
ATOM     31  C   UNL     1      33.071 -14.817 -25.767  0.00  0.00    +0.204 C 
BRANCH  31  32
ATOM     32  O   UNL     1      33.646 -15.981 -26.322  0.00  0.00    -0.375 OA
ATOM     33  H   UNL     1      33.228 -16.171 -27.176  0.00  0.00    +0.211 HD
ENDBRANCH  31  32
ENDBRANCH  30  31
ENDBRANCH   8  30
TORSDOF 6
ENDMDL
MODEL 4
REMARK VINA RESULT:      -5.8      2.167      6.944
REMARK  Name = 91488
REMARK  6 active torsions:
REMARK  status: ('A' for Active; 'I' for Inactive)
REMARK    1  A    between atoms: C_8  and  O_23
REMARK    2  A    between atoms: C_8  and  C_30
REMARK    3  A    between atoms: C_11  and  O_25
REMARK    4  A    between atoms: C_12  and  O_27
REMARK    5  A    between atoms: C_30  and  C_31
REMARK    6  A    between atoms: C_31  and  O_32
REMARK                            x       y       z     vdW  Elec       q    Type
REMARK                         _______ _______ _______ _____ _____    ______ ____
ROOT
ATOM      1  F   UNL     1      32.435 -22.494 -14.270  0.00  0.00    -0.237 F 
ATOM      2  F   UNL     1      31.403 -21.851 -18.435  0.00  0.00    -0.233 F 
ATOM      3  O   UNL     1      27.745 -21.558 -15.180  0.00  0.00    -0.287 OA
ATOM      4  C   UNL     1      35.507 -24.192 -14.377  0.00  0.00    +0.034 C 
ATOM      5  C   UNL     1      34.936 -23.172 -15.389  0.00  0.00    +0.008 C 
ATOM      6  C   UNL     1      33.591 -23.597 -16.000  0.00  0.00    +0.036 C 
ATOM      7  C   UNL     1      32.536 -23.752 -14.851  0.00  0.00    +0.165 C 
ATOM      8  C   UNL     1      36.838 -23.465 -14.026  0.00  0.00    +0.166 C 
ATOM      9  C   UNL     1      34.488 -24.324 -13.227  0.00  0.00    +0.035 C 
ATOM     10  C   UNL     1      36.115 -22.878 -16.318  0.00  0.00    +0.032 C 
ATOM     11  C   UNL     1      33.054 -24.663 -13.696  0.00  0.00    +0.141 C 
ATOM     12  C   UNL     1      37.356 -22.987 -15.406  0.00  0.00    +0.142 C 
ATOM     13  C   UNL     1      31.090 -24.072 -15.403  0.00  0.00    +0.066 C 
ATOM     14  C   UNL     1      33.129 -22.564 -17.041  0.00  0.00    +0.042 C 
ATOM     15  C   UNL     1      35.798 -25.583 -15.001  0.00  0.00    +0.003 C 
ATOM     16  C   UNL     1      31.738 -22.864 -17.582  0.00  0.00    +0.180 C 
ATOM     17  C   UNL     1      30.750 -23.002 -16.451  0.00  0.00    -0.003 C 
ATOM     18  C   UNL     1      30.970 -25.458 -16.077  0.00  0.00    +0.011 C 
ATOM     19  C   UNL     1      30.083 -24.066 -14.262  0.00  0.00    -0.017 C 
ATOM     20  C   UNL     1      29.677 -22.200 -16.370  0.00  0.00    +0.036 C 
ATOM     21  C   UNL     1      29.015 -23.268 -14.177  0.00  0.00    +0.038 C 
ATOM     22  C   UNL     1      28.731 -22.286 -15.238  0.00  0.00    +0.195 C 
ENDROOT
BRANCH   8  23
ATOM     23  O   UNL     1      36.607 -22.362 -13.158  0.00  0.00    -0.377 OA
ATOM     24  H   UNL     1      37.112 -22.483 -12.339  0.00  0.00    +0.211 HD
ENDBRANCH   8  23
BRANCH  11  25
ATOM     25  O   UNL     1      32.988 -26.036 -14.057  0.00  0.00    -0.382 OA
ATOM     26  H   UNL     1      32.539 -26.533 -13.355  0.00  0.00    +0.210 HD
ENDBRANCH  11  25
BRANCH  12  27
ATOM     27  O   UNL     1      38.037 -21.745 -15.317  0.00  0.00    -0.382 OA
ATOM     28  H   UNL     1      38.883 -21.871 -14.859  0.00  0.00    +0.210 HD
ENDBRANCH  12  27
BRANCH   8  30
ATOM     29  O   UNL     1      38.958 -24.520 -13.749  0.00  0.00    -0.291 OA
ATOM     30  C   UNL     1      37.830 -24.322 -13.297  0.00  0.00    +0.206 C 
BRANCH  30  31
ATOM     31  C   UNL     1      37.365 -24.922 -11.988  0.00  0.00    +0.204 C 
BRANCH  31  32
ATOM     32  O   UNL     1      37.380 -23.952 -10.961  0.00  0.00    -0.375 OA
ATOM     33  H   UNL     1      38.035 -24.202 -10.291  0.00  0.00    +0.211 HD
ENDBRANCH  31  32
ENDBRANCH  30  31
ENDBRANCH   8  30
TORSDOF 6
ENDMDL
MODEL 5
REMARK VINA RESULT:      -5.7      2.127      7.283
REMARK  Name = 91488
REMARK  6 active torsions:
REMARK  status: ('A' for Active; 'I' for Inactive)
REMARK    1  A    between atoms: C_8  and  O_23
REMARK    2  A    between atoms: C_8  and  C_30
REMARK    3  A    between atoms: C_11  and  O_25
REMARK    4  A    between atoms: C_12  and  O_27
REMARK    5  A    between atoms: C_30  and  C_31
REMARK    6  A    between atoms: C_31  and  O_32
REMARK                            x       y       z     vdW  Elec       q    Type
REMARK                         _______ _______ _______ _____ _____    ______ ____
ROOT
ATOM      1  F   UNL     1      33.085 -25.526 -14.206  0.00  0.00    -0.237 F 
ATOM      2  F   UNL     1      30.903 -22.752 -11.683  0.00  0.00    -0.233 F 
ATOM      3  O   UNL     1      28.230 -25.748 -14.501  0.00  0.00    -0.287 OA
ATOM      4  C   UNL     1      36.312 -24.160 -14.431  0.00  0.00    +0.034 C 
ATOM      5  C   UNL     1      35.298 -24.046 -13.270  0.00  0.00    +0.008 C 
ATOM      6  C   UNL     1      33.961 -23.405 -13.679  0.00  0.00    +0.036 C 
ATOM      7  C   UNL     1      33.295 -24.285 -14.792  0.00  0.00    +0.165 C 
ATOM      8  C   UNL     1      37.505 -24.785 -13.651  0.00  0.00    +0.166 C 
ATOM      9  C   UNL     1      35.675 -25.052 -15.516  0.00  0.00    +0.035 C 
ATOM     10  C   UNL     1      36.108 -23.414 -12.136  0.00  0.00    +0.032 C 
ATOM     11  C   UNL     1      34.273 -24.582 -15.970  0.00  0.00    +0.141 C 
ATOM     12  C   UNL     1      37.537 -23.966 -12.335  0.00  0.00    +0.142 C 
ATOM     13  C   UNL     1      31.857 -23.763 -15.188  0.00  0.00    +0.066 C 
ATOM     14  C   UNL     1      33.039 -23.268 -12.455  0.00  0.00    +0.042 C 
ATOM     15  C   UNL     1      36.717 -22.787 -15.032  0.00  0.00    +0.003 C 
ATOM     16  C   UNL     1      31.652 -22.764 -12.825  0.00  0.00    +0.180 C 
ATOM     17  C   UNL     1      31.041 -23.635 -13.894  0.00  0.00    -0.003 C 
ATOM     18  C   UNL     1      31.861 -22.386 -15.890  0.00  0.00    +0.011 C 
ATOM     19  C   UNL     1      31.200 -24.733 -16.160  0.00  0.00    -0.017 C 
ATOM     20  C   UNL     1      29.881 -24.276 -13.682  0.00  0.00    +0.036 C 
ATOM     21  C   UNL     1      30.046 -25.375 -15.952  0.00  0.00    +0.038 C 
ATOM     22  C   UNL     1      29.298 -25.177 -14.698  0.00  0.00    +0.195 C 
ENDROOT
BRANCH   8  23
ATOM     23  O   UNL     1      37.277 -26.164 -13.387  0.00  0.00    -0.377 OA
ATOM     24  H   UNL     1      37.666 -26.698 -14.097  0.00  0.00    +0.211 HD
ENDBRANCH   8  23
BRANCH  11  25
ATOM     25  O   UNL     1      34.407 -23.453 -16.823  0.00  0.00    -0.382 OA
ATOM     26  H   UNL     1      35.293 -23.450 -17.217  0.00  0.00    +0.210 HD
ENDBRANCH  11  25
BRANCH  12  27
ATOM     27  O   UNL     1      37.940 -24.756 -11.227  0.00  0.00    -0.382 OA
ATOM     28  H   UNL     1      37.266 -24.708 -10.532  0.00  0.00    +0.210 HD
ENDBRANCH  12  27
BRANCH   8  30
ATOM     29  O   UNL     1      38.995 -23.958 -15.317  0.00  0.00    -0.291 OA
ATOM     30  C   UNL     1      38.808 -24.748 -14.391  0.00  0.00    +0.206 C 
BRANCH  30  31
ATOM     31  C   UNL     1      39.867 -25.729 -13.935  0.00  0.00    +0.204 C 
BRANCH  31  32
ATOM     32  O   UNL     1      39.787 -26.929 -14.674  0.00  0.00    -0.375 OA
ATOM     33  H   UNL     1      38.883 -27.276 -14.630  0.00  0.00    +0.211 HD
ENDBRANCH  31  32
ENDBRANCH  30  31
ENDBRANCH   8  30
TORSDOF 6
ENDMDL
MODEL 6
REMARK VINA RESULT:      -5.5     18.113     20.164
REMARK  Name = 91488
REMARK  6 active torsions:
REMARK  status: ('A' for Active; 'I' for Inactive)
REMARK    1  A    between atoms: C_8  and  O_23
REMARK    2  A    between atoms: C_8  and  C_30
REMARK    3  A    between atoms: C_11  and  O_25
REMARK    4  A    between atoms: C_12  and  O_27
REMARK    5  A    between atoms: C_30  and  C_31
REMARK    6  A    between atoms: C_31  and  O_32
REMARK                            x       y       z     vdW  Elec       q    Type
REMARK                         _______ _______ _______ _____ _____    ______ ____
ROOT
ATOM      1  F   UNL     1      31.248  -8.076 -24.113  0.00  0.00    -0.237 F 
ATOM      2  F   UNL     1      35.318  -9.410 -24.809  0.00  0.00    -0.233 F 
ATOM      3  O   UNL     1      32.188 -12.718 -22.987  0.00  0.00    -0.287 OA
ATOM      4  C   UNL     1      31.478  -4.574 -23.990  0.00  0.00    +0.034 C 
ATOM      5  C   UNL     1      32.359  -5.569 -24.781  0.00  0.00    +0.008 C 
ATOM      6  C   UNL     1      33.072  -6.602 -23.893  0.00  0.00    +0.036 C 
ATOM      7  C   UNL     1      31.994  -7.443 -23.127  0.00  0.00    +0.165 C 
ATOM      8  C   UNL     1      30.982  -3.695 -25.175  0.00  0.00    +0.166 C 
ATOM      9  C   UNL     1      30.396  -5.393 -23.259  0.00  0.00    +0.035 C 
ATOM     10  C   UNL     1      33.196  -4.671 -25.695  0.00  0.00    +0.032 C 
ATOM     11  C   UNL     1      30.959  -6.541 -22.388  0.00  0.00    +0.141 C 
ATOM     12  C   UNL     1      32.263  -3.485 -26.023  0.00  0.00    +0.142 C 
ATOM     13  C   UNL     1      32.637  -8.612 -22.279  0.00  0.00    +0.066 C 
ATOM     14  C   UNL     1      33.975  -7.506 -24.749  0.00  0.00    +0.042 C 
ATOM     15  C   UNL     1      32.280  -3.714 -22.976  0.00  0.00    +0.003 C 
ATOM     16  C   UNL     1      34.602  -8.634 -23.942  0.00  0.00    +0.180 C 
ATOM     17  C   UNL     1      33.538  -9.423 -23.222  0.00  0.00    -0.003 C 
ATOM     18  C   UNL     1      33.501  -8.124 -21.094  0.00  0.00    +0.011 C 
ATOM     19  C   UNL     1      31.543  -9.482 -21.676  0.00  0.00    -0.017 C 
ATOM     20  C   UNL     1      33.385 -10.738 -23.444  0.00  0.00    +0.036 C 
ATOM     21  C   UNL     1      31.387 -10.791 -21.897  0.00  0.00    +0.038 C 
ATOM     22  C   UNL     1      32.311 -11.513 -22.789  0.00  0.00    +0.195 C 
ENDROOT
BRANCH   8  23
ATOM     23  O   UNL     1      29.979  -4.367 -25.926  0.00  0.00    -0.377 OA
ATOM     24  H   UNL     1      30.351  -4.661 -26.772  0.00  0.00    +0.211 HD
ENDBRANCH   8  23
BRANCH  11  25
ATOM     25  O   UNL     1      31.509  -6.000 -21.195  0.00  0.00    -0.382 OA
ATOM     26  H   UNL     1      31.483  -5.031 -21.237  0.00  0.00    +0.210 HD
ENDBRANCH  11  25
BRANCH  12  27
ATOM     27  O   UNL     1      31.977  -3.425 -27.412  0.00  0.00    -0.382 OA
ATOM     28  H   UNL     1      31.119  -3.841 -27.584  0.00  0.00    +0.210 HD
ENDBRANCH  12  27
BRANCH   8  30
ATOM     29  O   UNL     1      30.606  -1.885 -23.670  0.00  0.00    -0.291 OA
ATOM     30  C   UNL     1      30.345  -2.404 -24.755  0.00  0.00    +0.206 C 
BRANCH  30  31
ATOM     31  C   UNL     1      29.372  -1.786 -25.736  0.00  0.00    +0.204 C 
BRANCH  31  32
ATOM     32  O   UNL     1      28.062  -1.786 -25.209  0.00  0.00    -0.375 OA
ATOM     33  H   UNL     1      28.038  -1.244 -24.405  0.00  0.00    +0.211 HD
ENDBRANCH  31  32
ENDBRANCH  30  31
ENDBRANCH   8  30
TORSDOF 6
ENDMDL
