MODEL 1
REMARK VINA RESULT:      -8.1      0.000      0.000
REMARK  Name = 119184
REMARK  5 active torsions:
REMARK  status: ('A' for Active; 'I' for Inactive)
REMARK    1  A    between atoms: C_2  and  C_19
REMARK    2  A    between atoms: C_3  and  O_16
REMARK    3  A    between atoms: C_4  and  N_7
REMARK    4  A    between atoms: C_5  and  C_20
REMARK    5  A    between atoms: C_20  and  O_21
REMARK                            x       y       z     vdW  Elec       q    Type
REMARK                         _______ _______ _______ _____ _____    ______ ____
ROOT
ATOM      1  O   UNL     1      38.120 -23.937 -13.732  0.00  0.00    -0.333 OA
ATOM      2  C   UNL     1      36.378 -25.559 -13.855  0.00  0.00    +0.168 C 
ATOM      3  C   UNL     1      37.390 -26.021 -12.817  0.00  0.00    +0.158 C 
ATOM      4  C   UNL     1      36.713 -24.073 -13.970  0.00  0.00    +0.223 C 
ATOM      5  C   UNL     1      38.586 -25.089 -13.005  0.00  0.00    +0.174 C 
ENDROOT
BRANCH   4   7
ATOM      6  O   UNL     1      34.148 -24.062 -15.126  0.00  0.00    -0.193 OA
ATOM      7  N   UNL     1      36.375 -23.466 -15.224  0.00  0.00    -0.179 N 
ATOM      8  N   UNL     1      34.803 -22.894 -16.958  0.00  0.00    -0.306 NA
ATOM      9  N   UNL     1      35.482 -21.698 -18.834  0.00  0.00    -0.332 N 
ATOM     10  C   UNL     1      37.374 -22.829 -15.941  0.00  0.00    +0.083 C 
ATOM     11  C   UNL     1      35.058 -23.502 -15.741  0.00  0.00    +0.275 C 
ATOM     12  C   UNL     1      37.150 -22.240 -17.114  0.00  0.00    +0.065 C 
ATOM     13  C   UNL     1      35.756 -22.297 -17.625  0.00  0.00    +0.193 C 
ATOM     14  H   UNL     1      34.567 -21.720 -19.198  0.00  0.00    +0.145 HD
ATOM     15  H   UNL     1      36.201 -21.249 -19.334  0.00  0.00    +0.145 HD
ENDBRANCH   4   7
BRANCH   3  16
ATOM     16  O   UNL     1      36.840 -25.834 -11.511  0.00  0.00    -0.381 OA
ATOM     17  H   UNL     1      37.517 -25.457 -10.926  0.00  0.00    +0.210 HD
ENDBRANCH   3  16
BRANCH   2  19
ATOM     18  N   UNL     1      36.690 -26.878 -16.113  0.00  0.00    -0.196 NA
ATOM     19  C   UNL     1      36.552 -26.297 -15.119  0.00  0.00    +0.079 C 
ENDBRANCH   2  19
BRANCH   5  20
ATOM     20  C   UNL     1      39.718 -25.717 -13.806  0.00  0.00    +0.169 C 
BRANCH  20  21
ATOM     21  O   UNL     1      40.664 -24.710 -14.130  0.00  0.00    -0.379 OA
ATOM     22  H   UNL     1      40.566 -24.462 -15.063  0.00  0.00    +0.211 HD
ENDBRANCH  20  21
ENDBRANCH   5  20
TORSDOF 5
ENDMDL
MODEL 2
REMARK VINA RESULT:      -8.0      1.561      1.634
REMARK  Name = 119184
REMARK  5 active torsions:
REMARK  status: ('A' for Active; 'I' for Inactive)
REMARK    1  A    between atoms: C_2  and  C_19
REMARK    2  A    between atoms: C_3  and  O_16
REMARK    3  A    between atoms: C_4  and  N_7
REMARK    4  A    between atoms: C_5  and  C_20
REMARK    5  A    between atoms: C_20  and  O_21
REMARK                            x       y       z     vdW  Elec       q    Type
REMARK                         _______ _______ _______ _____ _____    ______ ____
ROOT
ATOM      1  O   UNL     1      36.511 -22.876 -13.168  0.00  0.00    -0.333 OA
ATOM      2  C   UNL     1      35.504 -24.911 -13.891  0.00  0.00    +0.168 C 
ATOM      3  C   UNL     1      35.900 -25.066 -12.431  0.00  0.00    +0.158 C 
ATOM      4  C   UNL     1      35.507 -23.391 -14.051  0.00  0.00    +0.223 C 
ATOM      5  C   UNL     1      36.775 -23.847 -12.138  0.00  0.00    +0.174 C 
ENDROOT
BRANCH   4   7
ATOM      6  O   UNL     1      33.677 -23.554 -16.181  0.00  0.00    -0.193 OA
ATOM      7  N   UNL     1      35.746 -22.917 -15.382  0.00  0.00    -0.179 N 
ATOM      8  N   UNL     1      35.072 -22.554 -17.666  0.00  0.00    -0.306 NA
ATOM      9  N   UNL     1      36.508 -21.530 -19.184  0.00  0.00    -0.332 N 
ATOM     10  C   UNL     1      36.967 -22.329 -15.666  0.00  0.00    +0.083 C 
ATOM     11  C   UNL     1      34.773 -23.034 -16.403  0.00  0.00    +0.275 C 
ATOM     12  C   UNL     1      37.275 -21.863 -16.874  0.00  0.00    +0.065 C 
ATOM     13  C   UNL     1      36.230 -22.002 -17.921  0.00  0.00    +0.193 C 
ATOM     14  H   UNL     1      35.834 -21.608 -19.898  0.00  0.00    +0.145 HD
ATOM     15  H   UNL     1      37.379 -21.114 -19.372  0.00  0.00    +0.145 HD
ENDBRANCH   4   7
BRANCH   3  16
ATOM     16  O   UNL     1      34.725 -25.016 -11.619  0.00  0.00    -0.381 OA
ATOM     17  H   UNL     1      34.285 -25.881 -11.634  0.00  0.00    +0.210 HD
ENDBRANCH   3  16
BRANCH   2  19
ATOM     18  N   UNL     1      37.232 -26.130 -15.461  0.00  0.00    -0.196 NA
ATOM     19  C   UNL     1      36.472 -25.593 -14.770  0.00  0.00    +0.079 C 
ENDBRANCH   2  19
BRANCH   5  20
ATOM     20  C   UNL     1      38.265 -24.156 -12.162  0.00  0.00    +0.169 C 
BRANCH  20  21
ATOM     21  O   UNL     1      38.975 -23.029 -11.673  0.00  0.00    -0.379 OA
ATOM     22  H   UNL     1      39.840 -23.313 -11.339  0.00  0.00    +0.211 HD
ENDBRANCH  20  21
ENDBRANCH   5  20
TORSDOF 5
ENDMDL
MODEL 3
REMARK VINA RESULT:      -7.8      1.186      1.628
REMARK  Name = 119184
REMARK  5 active torsions:
REMARK  status: ('A' for Active; 'I' for Inactive)
REMARK    1  A    between atoms: C_2  and  C_19
REMARK    2  A    between atoms: C_3  and  O_16
REMARK    3  A    between atoms: C_4  and  N_7
REMARK    4  A    between atoms: C_5  and  C_20
REMARK    5  A    between atoms: C_20  and  O_21
REMARK                            x       y       z     vdW  Elec       q    Type
REMARK                         _______ _______ _______ _____ _____    ______ ____
ROOT
ATOM      1  O   UNL     1      37.923 -23.881 -13.924  0.00  0.00    -0.333 OA
ATOM      2  C   UNL     1      36.370 -25.688 -13.875  0.00  0.00    +0.168 C 
ATOM      3  C   UNL     1      37.519 -26.019 -12.935  0.00  0.00    +0.158 C 
ATOM      4  C   UNL     1      36.524 -24.175 -14.028  0.00  0.00    +0.223 C 
ATOM      5  C   UNL     1      38.581 -24.963 -13.239  0.00  0.00    +0.174 C 
ENDROOT
BRANCH   4   7
ATOM      6  O   UNL     1      38.007 -22.677 -15.891  0.00  0.00    -0.193 OA
ATOM      7  N   UNL     1      36.005 -23.629 -15.247  0.00  0.00    -0.179 N 
ATOM      8  N   UNL     1      36.249 -22.387 -17.297  0.00  0.00    -0.306 NA
ATOM      9  N   UNL     1      34.442 -22.092 -18.733  0.00  0.00    -0.332 N 
ATOM     10  C   UNL     1      34.672 -23.842 -15.553  0.00  0.00    +0.083 C 
ATOM     11  C   UNL     1      36.816 -22.884 -16.137  0.00  0.00    +0.275 C 
ATOM     12  C   UNL     1      34.107 -23.371 -16.663  0.00  0.00    +0.065 C 
ATOM     13  C   UNL     1      34.988 -22.595 -17.574  0.00  0.00    +0.193 C 
ATOM     14  H   UNL     1      35.003 -21.574 -19.356  0.00  0.00    +0.145 HD
ATOM     15  H   UNL     1      33.493 -22.251 -18.939  0.00  0.00    +0.145 HD
ENDBRANCH   4   7
BRANCH   3  16
ATOM     16  O   UNL     1      37.075 -25.875 -11.583  0.00  0.00    -0.381 OA
ATOM     17  H   UNL     1      36.711 -26.718 -11.271  0.00  0.00    +0.210 HD
ENDBRANCH   3  16
BRANCH   2  19
ATOM     18  N   UNL     1      36.615 -26.999 -16.146  0.00  0.00    -0.196 NA
ATOM     19  C   UNL     1      36.507 -26.421 -15.146  0.00  0.00    +0.079 C 
ENDBRANCH   2  19
BRANCH   5  20
ATOM     20  C   UNL     1      39.697 -25.473 -14.140  0.00  0.00    +0.169 C 
BRANCH  20  21
ATOM     21  O   UNL     1      39.699 -24.716 -15.339  0.00  0.00    -0.379 OA
ATOM     22  H   UNL     1      39.178 -25.178 -16.015  0.00  0.00    +0.211 HD
ENDBRANCH  20  21
ENDBRANCH   5  20
TORSDOF 5
ENDMDL
MODEL 4
REMARK VINA RESULT:      -7.7      1.406      1.534
REMARK  Name = 119184
REMARK  5 active torsions:
REMARK  status: ('A' for Active; 'I' for Inactive)
REMARK    1  A    between atoms: C_2  and  C_19
REMARK    2  A    between atoms: C_3  and  O_16
REMARK    3  A    between atoms: C_4  and  N_7
REMARK    4  A    between atoms: C_5  and  C_20
REMARK    5  A    between atoms: C_20  and  O_21
REMARK                            x       y       z     vdW  Elec       q    Type
REMARK                         _______ _______ _______ _____ _____    ______ ____
ROOT
ATOM      1  O   UNL     1      37.540 -23.683 -14.091  0.00  0.00    -0.333 OA
ATOM      2  C   UNL     1      36.489 -25.796 -13.760  0.00  0.00    +0.168 C 
ATOM      3  C   UNL     1      37.872 -25.846 -13.129  0.00  0.00    +0.158 C 
ATOM      4  C   UNL     1      36.259 -24.290 -13.879  0.00  0.00    +0.223 C 
ATOM      5  C   UNL     1      38.567 -24.578 -13.626  0.00  0.00    +0.174 C 
ENDROOT
BRANCH   4   7
ATOM      6  O   UNL     1      33.465 -24.612 -13.813  0.00  0.00    -0.193 OA
ATOM      7  N   UNL     1      35.357 -23.890 -14.919  0.00  0.00    -0.179 N 
ATOM      8  N   UNL     1      33.148 -23.673 -15.854  0.00  0.00    -0.306 NA
ATOM      9  N   UNL     1      32.831 -22.712 -17.949  0.00  0.00    -0.332 N 
ATOM     10  C   UNL     1      35.880 -23.296 -16.055  0.00  0.00    +0.083 C 
ATOM     11  C   UNL     1      33.960 -24.085 -14.812  0.00  0.00    +0.275 C 
ATOM     12  C   UNL     1      35.117 -22.894 -17.070  0.00  0.00    +0.065 C 
ATOM     13  C   UNL     1      33.655 -23.114 -16.923  0.00  0.00    +0.193 C 
ATOM     14  H   UNL     1      31.857 -22.844 -17.879  0.00  0.00    +0.145 HD
ATOM     15  H   UNL     1      33.215 -22.291 -18.751  0.00  0.00    +0.145 HD
ENDBRANCH   4   7
BRANCH   3  16
ATOM     16  O   UNL     1      37.740 -25.792 -11.706  0.00  0.00    -0.381 OA
ATOM     17  H   UNL     1      37.318 -26.606 -11.389  0.00  0.00    +0.210 HD
ENDBRANCH   3  16
BRANCH   2  19
ATOM     18  N   UNL     1      36.477 -27.040 -16.081  0.00  0.00    -0.196 NA
ATOM     19  C   UNL     1      36.482 -26.493 -15.059  0.00  0.00    +0.079 C 
ENDBRANCH   2  19
BRANCH   5  20
ATOM     20  C   UNL     1      39.523 -24.831 -14.783  0.00  0.00    +0.169 C 
BRANCH  20  21
ATOM     21  O   UNL     1      39.240 -23.906 -15.821  0.00  0.00    -0.379 OA
ATOM     22  H   UNL     1      38.279 -23.832 -15.935  0.00  0.00    +0.211 HD
ENDBRANCH  20  21
ENDBRANCH   5  20
TORSDOF 5
ENDMDL
MODEL 5
REMARK VINA RESULT:      -7.1      2.050      3.584
REMARK  Name = 119184
REMARK  5 active torsions:
REMARK  status: ('A' for Active; 'I' for Inactive)
REMARK    1  A    between atoms: C_2  and  C_19
REMARK    2  A    between atoms: C_3  and  O_16
REMARK    3  A    between atoms: C_4  and  N_7
REMARK    4  A    between atoms: C_5  and  C_20
REMARK    5  A    between atoms: C_20  and  O_21
REMARK                            x       y       z     vdW  Elec       q    Type
REMARK                         _______ _______ _______ _____ _____    ______ ____
ROOT
ATOM      1  O   UNL     1      36.653 -26.095 -14.374  0.00  0.00    -0.333 OA
ATOM      2  C   UNL     1      37.706 -24.026 -14.913  0.00  0.00    +0.168 C 
ATOM      3  C   UNL     1      38.786 -25.025 -14.529  0.00  0.00    +0.158 C 
ATOM      4  C   UNL     1      36.530 -24.949 -15.226  0.00  0.00    +0.223 C 
ATOM      5  C   UNL     1      38.021 -26.209 -13.937  0.00  0.00    +0.174 C 
ENDROOT
BRANCH   4   7
ATOM      6  O   UNL     1      35.282 -23.226 -17.068  0.00  0.00    -0.193 OA
ATOM      7  N   UNL     1      35.232 -24.362 -15.060  0.00  0.00    -0.179 N 
ATOM      8  N   UNL     1      33.412 -22.973 -15.809  0.00  0.00    -0.306 NA
ATOM      9  N   UNL     1      31.498 -22.717 -14.511  0.00  0.00    -0.332 N 
ATOM     10  C   UNL     1      34.518 -24.652 -13.910  0.00  0.00    +0.083 C 
ATOM     11  C   UNL     1      34.670 -23.503 -16.034  0.00  0.00    +0.275 C 
ATOM     12  C   UNL     1      33.307 -24.151 -13.672  0.00  0.00    +0.065 C 
ATOM     13  C   UNL     1      32.748 -23.254 -14.717  0.00  0.00    +0.193 C 
ATOM     14  H   UNL     1      31.102 -22.119 -15.186  0.00  0.00    +0.145 HD
ATOM     15  H   UNL     1      31.001 -22.930 -13.689  0.00  0.00    +0.145 HD
ENDBRANCH   4   7
BRANCH   3  16
ATOM     16  O   UNL     1      39.477 -25.445 -15.708  0.00  0.00    -0.381 OA
ATOM     17  H   UNL     1      39.677 -26.393 -15.645  0.00  0.00    +0.210 HD
ENDBRANCH   3  16
BRANCH   2  19
ATOM     18  N   UNL     1      37.229 -22.360 -12.929  0.00  0.00    -0.196 NA
ATOM     19  C   UNL     1      37.439 -23.093 -13.803  0.00  0.00    +0.079 C 
ENDBRANCH   2  19
BRANCH   5  20
ATOM     20  C   UNL     1      38.022 -26.226 -12.415  0.00  0.00    +0.169 C 
BRANCH  20  21
ATOM     21  O   UNL     1      36.690 -26.398 -11.958  0.00  0.00    -0.379 OA
ATOM     22  H   UNL     1      36.683 -27.009 -11.204  0.00  0.00    +0.211 HD
ENDBRANCH  20  21
ENDBRANCH   5  20
TORSDOF 5
ENDMDL
MODEL 6
REMARK VINA RESULT:      -6.9      2.452      3.837
REMARK  Name = 119184
REMARK  5 active torsions:
REMARK  status: ('A' for Active; 'I' for Inactive)
REMARK    1  A    between atoms: C_2  and  C_19
REMARK    2  A    between atoms: C_3  and  O_16
REMARK    3  A    between atoms: C_4  and  N_7
REMARK    4  A    between atoms: C_5  and  C_20
REMARK    5  A    between atoms: C_20  and  O_21
REMARK                            x       y       z     vdW  Elec       q    Type
REMARK                         _______ _______ _______ _____ _____    ______ ____
ROOT
ATOM      1  O   UNL     1      36.124 -25.639 -15.443  0.00  0.00    -0.333 OA
ATOM      2  C   UNL     1      36.685 -23.492 -14.574  0.00  0.00    +0.168 C 
ATOM      3  C   UNL     1      37.951 -24.333 -14.623  0.00  0.00    +0.158 C 
ATOM      4  C   UNL     1      35.773 -24.253 -15.535  0.00  0.00    +0.223 C 
ATOM      5  C   UNL     1      37.460 -25.751 -14.916  0.00  0.00    +0.174 C 
ENDROOT
BRANCH   4   7
ATOM      6  O   UNL     1      34.005 -22.802 -17.173  0.00  0.00    -0.193 OA
ATOM      7  N   UNL     1      34.368 -24.095 -15.297  0.00  0.00    -0.179 N 
ATOM      8  N   UNL     1      32.193 -23.238 -15.879  0.00  0.00    -0.306 NA
ATOM      9  N   UNL     1      30.339 -23.688 -14.547  0.00  0.00    -0.332 N 
ATOM     10  C   UNL     1      33.815 -24.695 -14.178  0.00  0.00    +0.083 C 
ATOM     11  C   UNL     1      33.541 -23.348 -16.170  0.00  0.00    +0.275 C 
ATOM     12  C   UNL     1      32.521 -24.600 -13.880  0.00  0.00    +0.065 C 
ATOM     13  C   UNL     1      31.683 -23.809 -14.819  0.00  0.00    +0.193 C 
ATOM     14  H   UNL     1      29.760 -23.170 -15.152  0.00  0.00    +0.145 HD
ATOM     15  H   UNL     1      29.959 -24.119 -13.748  0.00  0.00    +0.145 HD
ENDBRANCH   4   7
BRANCH   3  16
ATOM     16  O   UNL     1      38.773 -23.881 -15.702  0.00  0.00    -0.381 OA
ATOM     17  H   UNL     1      39.579 -24.420 -15.743  0.00  0.00    +0.210 HD
ENDBRANCH   3  16
BRANCH   2  19
ATOM     18  N   UNL     1      35.744 -23.366 -12.117  0.00  0.00    -0.196 NA
ATOM     19  C   UNL     1      36.158 -23.422 -13.199  0.00  0.00    +0.079 C 
ENDBRANCH   2  19
BRANCH   5  20
ATOM     20  C   UNL     1      37.398 -26.634 -13.677  0.00  0.00    +0.169 C 
BRANCH  20  21
ATOM     21  O   UNL     1      38.358 -26.176 -12.740  0.00  0.00    -0.379 OA
ATOM     22  H   UNL     1      39.055 -25.686 -13.204  0.00  0.00    +0.211 HD
ENDBRANCH  20  21
ENDBRANCH   5  20
TORSDOF 5
ENDMDL
MODEL 7
REMARK VINA RESULT:      -6.9      2.221      3.419
REMARK  Name = 119184
REMARK  5 active torsions:
REMARK  status: ('A' for Active; 'I' for Inactive)
REMARK    1  A    between atoms: C_2  and  C_19
REMARK    2  A    between atoms: C_3  and  O_16
REMARK    3  A    between atoms: C_4  and  N_7
REMARK    4  A    between atoms: C_5  and  C_20
REMARK    5  A    between atoms: C_20  and  O_21
REMARK                            x       y       z     vdW  Elec       q    Type
REMARK                         _______ _______ _______ _____ _____    ______ ____
ROOT
ATOM      1  O   UNL     1      36.661 -25.411 -12.834  0.00  0.00    -0.333 OA
ATOM      2  C   UNL     1      37.353 -24.875 -15.050  0.00  0.00    +0.168 C 
ATOM      3  C   UNL     1      38.568 -25.364 -14.275  0.00  0.00    +0.158 C 
ATOM      4  C   UNL     1      36.207 -25.408 -14.193  0.00  0.00    +0.223 C 
ATOM      5  C   UNL     1      38.101 -25.412 -12.820  0.00  0.00    +0.174 C 
ENDROOT
BRANCH   4   7
ATOM      6  O   UNL     1      34.631 -24.592 -12.010  0.00  0.00    -0.193 OA
ATOM      7  N   UNL     1      34.980 -24.672 -14.289  0.00  0.00    -0.179 N 
ATOM      8  N   UNL     1      33.066 -23.586 -13.309  0.00  0.00    -0.306 NA
ATOM      9  N   UNL     1      31.464 -22.558 -14.648  0.00  0.00    -0.332 N 
ATOM     10  C   UNL     1      34.514 -24.325 -15.546  0.00  0.00    +0.083 C 
ATOM     11  C   UNL     1      34.242 -24.296 -13.142  0.00  0.00    +0.275 C 
ATOM     12  C   UNL     1      33.384 -23.644 -15.729  0.00  0.00    +0.065 C 
ATOM     13  C   UNL     1      32.636 -23.265 -14.502  0.00  0.00    +0.193 C 
ATOM     14  H   UNL     1      30.947 -22.294 -13.852  0.00  0.00    +0.145 HD
ATOM     15  H   UNL     1      31.144 -22.318 -15.546  0.00  0.00    +0.145 HD
ENDBRANCH   4   7
BRANCH   3  16
ATOM     16  O   UNL     1      38.903 -26.683 -14.713  0.00  0.00    -0.381 OA
ATOM     17  H   UNL     1      38.767 -27.310 -13.984  0.00  0.00    +0.210 HD
ENDBRANCH   3  16
BRANCH   2  19
ATOM     18  N   UNL     1      37.374 -22.250 -15.255  0.00  0.00    -0.196 NA
ATOM     19  C   UNL     1      37.364 -23.406 -15.165  0.00  0.00    +0.079 C 
ENDBRANCH   2  19
BRANCH   5  20
ATOM     20  C   UNL     1      38.558 -24.213 -12.002  0.00  0.00    +0.169 C 
BRANCH  20  21
ATOM     21  O   UNL     1      37.452 -23.708 -11.271  0.00  0.00    -0.379 OA
ATOM     22  H   UNL     1      36.722 -24.347 -11.308  0.00  0.00    +0.211 HD
ENDBRANCH  20  21
ENDBRANCH   5  20
TORSDOF 5
ENDMDL
MODEL 8
REMARK VINA RESULT:      -6.8      1.938      2.886
REMARK  Name = 119184
REMARK  5 active torsions:
REMARK  status: ('A' for Active; 'I' for Inactive)
REMARK    1  A    between atoms: C_2  and  C_19
REMARK    2  A    between atoms: C_3  and  O_16
REMARK    3  A    between atoms: C_4  and  N_7
REMARK    4  A    between atoms: C_5  and  C_20
REMARK    5  A    between atoms: C_20  and  O_21
REMARK                            x       y       z     vdW  Elec       q    Type
REMARK                         _______ _______ _______ _____ _____    ______ ____
ROOT
ATOM      1  O   UNL     1      37.804 -24.812 -14.211  0.00  0.00    -0.333 OA
ATOM      2  C   UNL     1      36.819 -23.170 -12.791  0.00  0.00    +0.168 C 
ATOM      3  C   UNL     1      37.806 -23.984 -11.968  0.00  0.00    +0.158 C 
ATOM      4  C   UNL     1      37.279 -23.478 -14.215  0.00  0.00    +0.223 C 
ATOM      5  C   UNL     1      38.170 -25.167 -12.864  0.00  0.00    +0.174 C 
ENDROOT
BRANCH   4   7
ATOM      6  O   UNL     1      37.347 -21.686 -16.383  0.00  0.00    -0.193 OA
ATOM      7  N   UNL     1      36.265 -23.362 -15.223  0.00  0.00    -0.179 N 
ATOM      8  N   UNL     1      35.356 -22.378 -17.224  0.00  0.00    -0.306 NA
ATOM      9  N   UNL     1      33.313 -23.090 -18.080  0.00  0.00    -0.332 N 
ATOM     10  C   UNL     1      35.156 -24.187 -15.143  0.00  0.00    +0.083 C 
ATOM     11  C   UNL     1      36.372 -22.434 -16.286  0.00  0.00    +0.275 C 
ATOM     12  C   UNL     1      34.167 -24.147 -16.034  0.00  0.00    +0.065 C 
ATOM     13  C   UNL     1      34.313 -23.162 -17.137  0.00  0.00    +0.193 C 
ATOM     14  H   UNL     1      33.383 -22.446 -18.822  0.00  0.00    +0.145 HD
ATOM     15  H   UNL     1      32.530 -23.681 -18.012  0.00  0.00    +0.145 HD
ENDBRANCH   4   7
BRANCH   3  16
ATOM     16  O   UNL     1      38.973 -23.195 -11.722  0.00  0.00    -0.381 OA
ATOM     17  H   UNL     1      38.714 -22.351 -11.319  0.00  0.00    +0.210 HD
ENDBRANCH   3  16
BRANCH   2  19
ATOM     18  N   UNL     1      34.346 -23.933 -12.303  0.00  0.00    -0.196 NA
ATOM     19  C   UNL     1      35.435 -23.597 -12.518  0.00  0.00    +0.079 C 
ENDBRANCH   2  19
BRANCH   5  20
ATOM     20  C   UNL     1      37.426 -26.446 -12.503  0.00  0.00    +0.169 C 
BRANCH  20  21
ATOM     21  O   UNL     1      36.812 -26.964 -13.672  0.00  0.00    -0.379 OA
ATOM     22  H   UNL     1      37.475 -27.432 -14.205  0.00  0.00    +0.211 HD
ENDBRANCH  20  21
ENDBRANCH   5  20
TORSDOF 5
ENDMDL
MODEL 9
REMARK VINA RESULT:      -6.5      9.024     11.314
REMARK  Name = 119184
REMARK  5 active torsions:
REMARK  status: ('A' for Active; 'I' for Inactive)
REMARK    1  A    between atoms: C_2  and  C_19
REMARK    2  A    between atoms: C_3  and  O_16
REMARK    3  A    between atoms: C_4  and  N_7
REMARK    4  A    between atoms: C_5  and  C_20
REMARK    5  A    between atoms: C_20  and  O_21
REMARK                            x       y       z     vdW  Elec       q    Type
REMARK                         _______ _______ _______ _____ _____    ______ ____
ROOT
ATOM      1  O   UNL     1      34.460 -18.980 -22.993  0.00  0.00    -0.333 OA
ATOM      2  C   UNL     1      35.165 -17.251 -21.511  0.00  0.00    +0.168 C 
ATOM      3  C   UNL     1      35.199 -18.571 -20.756  0.00  0.00    +0.158 C 
ATOM      4  C   UNL     1      35.157 -17.727 -22.963  0.00  0.00    +0.223 C 
ATOM      5  C   UNL     1      34.477 -19.557 -21.674  0.00  0.00    +0.174 C 
ENDROOT
BRANCH   4   7
ATOM      6  O   UNL     1      34.378 -18.387 -25.585  0.00  0.00    -0.193 OA
ATOM      7  N   UNL     1      34.559 -16.821 -23.899  0.00  0.00    -0.179 N 
ATOM      8  N   UNL     1      33.619 -16.301 -26.056  0.00  0.00    -0.306 NA
ATOM      9  N   UNL     1      32.846 -14.160 -26.533  0.00  0.00    -0.332 N 
ATOM     10  C   UNL     1      34.338 -15.513 -23.505  0.00  0.00    +0.083 C 
ATOM     11  C   UNL     1      34.193 -17.229 -25.204  0.00  0.00    +0.275 C 
ATOM     12  C   UNL     1      33.790 -14.604 -24.309  0.00  0.00    +0.065 C 
ATOM     13  C   UNL     1      33.417 -15.068 -25.671  0.00  0.00    +0.193 C 
ATOM     14  H   UNL     1      32.588 -14.439 -27.442  0.00  0.00    +0.145 HD
ATOM     15  H   UNL     1      32.694 -13.232 -26.240  0.00  0.00    +0.145 HD
ENDBRANCH   4   7
BRANCH   3  16
ATOM     16  O   UNL     1      36.559 -18.981 -20.591  0.00  0.00    -0.381 OA
ATOM     17  H   UNL     1      36.860 -18.750 -19.697  0.00  0.00    +0.210 HD
ENDBRANCH   3  16
BRANCH   2  19
ATOM     18  N   UNL     1      33.029 -15.857 -20.855  0.00  0.00    -0.196 NA
ATOM     19  C   UNL     1      33.970 -16.471 -21.145  0.00  0.00    +0.079 C 
ENDBRANCH   2  19
BRANCH   5  20
ATOM     20  C   UNL     1      33.035 -19.816 -21.262  0.00  0.00    +0.169 C 
BRANCH  20  21
ATOM     21  O   UNL     1      33.006 -20.903 -20.351  0.00  0.00    -0.379 OA
ATOM     22  H   UNL     1      33.346 -20.612 -19.490  0.00  0.00    +0.211 HD
ENDBRANCH  20  21
ENDBRANCH   5  20
TORSDOF 5
ENDMDL
