MODEL 1
REMARK VINA RESULT:     -12.3      0.000      0.000
REMARK  Name = 24779676
REMARK  4 active torsions:
REMARK  status: ('A' for Active; 'I' for Inactive)
REMARK    1  A    between atoms: N_2  and  C_22
REMARK    2  A    between atoms: N_3  and  C_14
REMARK    3  A    between atoms: C_10  and  C_21
REMARK    4  A    between atoms: C_22  and  C_24
REMARK                            x       y       z     vdW  Elec       q    Type
REMARK                         _______ _______ _______ _____ _____    ______ ____
ROOT
ATOM      1  N   UNL     1      32.388 -24.310 -14.202  0.00  0.00    -0.123 N 
ATOM      2  N   UNL     1      34.133 -22.901 -17.518  0.00  0.00    -0.254 N 
ATOM      3  N   UNL     1      34.464 -24.601 -13.115  0.00  0.00    -0.274 N 
ATOM      4  N   UNL     1      34.305 -23.749 -15.321  0.00  0.00    -0.295 NA
ATOM      5  N   UNL     1      32.186 -23.469 -16.390  0.00  0.00    -0.314 NA
ATOM      6  N   UNL     1      31.697 -24.768 -13.144  0.00  0.00    -0.170 NA
ATOM      7  C   UNL     1      33.770 -24.210 -14.228  0.00  0.00    +0.279 C 
ATOM      8  C   UNL     1      31.611 -23.946 -15.264  0.00  0.00    +0.219 C 
ATOM      9  C   UNL     1      33.498 -23.382 -16.397  0.00  0.00    +0.203 C 
ATOM     10  C   UNL     1      30.314 -24.185 -14.869  0.00  0.00    +0.203 C 
ATOM     11  C   UNL     1      30.428 -24.689 -13.558  0.00  0.00    +0.116 C 
ATOM     12  H   UNL     1      35.116 -22.837 -17.519  0.00  0.00    +0.161 HD
ATOM     13  H   UNL     1      33.930 -24.931 -12.357  0.00  0.00    +0.156 HD
ENDROOT
BRANCH   3  14
ATOM     14  C   UNL     1      35.849 -24.582 -12.941  0.00  0.00    +0.051 C 
ATOM     15  C   UNL     1      36.643 -25.543 -13.565  0.00  0.00    +0.015 C 
ATOM     16  C   UNL     1      36.437 -23.603 -12.140  0.00  0.00    +0.015 C 
ATOM     17  C   UNL     1      38.028 -25.524 -13.391  0.00  0.00    +0.001 C 
ATOM     18  C   UNL     1      37.821 -23.583 -11.967  0.00  0.00    +0.001 C 
ATOM     19  C   UNL     1      38.616 -24.544 -12.591  0.00  0.00    +0.000 C 
ENDBRANCH   3  14
BRANCH  10  21
ATOM     20  N   UNL     1      28.176 -23.782 -16.259  0.00  0.00    -0.195 NA
ATOM     21  C   UNL     1      29.138 -23.964 -15.634  0.00  0.00    +0.087 C 
ENDBRANCH  10  21
BRANCH   2  22
ATOM     22  C   UNL     1      33.413 -22.493 -18.682  0.00  0.00    +0.125 C 
BRANCH  22  24
ATOM     23 CL   UNL     1      36.585 -18.462 -21.822  0.00  0.00    -0.082 Cl
ATOM     24  C   UNL     1      34.206 -21.485 -19.466  0.00  0.00    -0.002 C 
ATOM     25  C   UNL     1      35.600 -21.493 -19.406  0.00  0.00    -0.002 C 
ATOM     26  C   UNL     1      33.548 -20.542 -20.257  0.00  0.00    -0.002 C 
ATOM     27  C   UNL     1      36.335 -20.558 -20.134  0.00  0.00    +0.011 C 
ATOM     28  C   UNL     1      34.284 -19.607 -20.985  0.00  0.00    +0.011 C 
ATOM     29  C   UNL     1      35.677 -19.616 -20.924  0.00  0.00    +0.058 C 
ENDBRANCH  22  24
ENDBRANCH   2  22
TORSDOF 4
ENDMDL
MODEL 2
REMARK VINA RESULT:     -11.9      1.657      5.619
REMARK  Name = 24779676
REMARK  4 active torsions:
REMARK  status: ('A' for Active; 'I' for Inactive)
REMARK    1  A    between atoms: N_2  and  C_22
REMARK    2  A    between atoms: N_3  and  C_14
REMARK    3  A    between atoms: C_10  and  C_21
REMARK    4  A    between atoms: C_22  and  C_24
REMARK                            x       y       z     vdW  Elec       q    Type
REMARK                         _______ _______ _______ _____ _____    ______ ____
ROOT
ATOM      1  N   UNL     1      34.101 -23.854 -15.032  0.00  0.00    -0.123 N 
ATOM      2  N   UNL     1      34.101 -22.365 -18.748  0.00  0.00    -0.254 N 
ATOM      3  N   UNL     1      31.743 -23.836 -14.919  0.00  0.00    -0.274 N 
ATOM      4  N   UNL     1      32.918 -23.097 -16.840  0.00  0.00    -0.295 NA
ATOM      5  N   UNL     1      35.306 -23.129 -16.918  0.00  0.00    -0.314 NA
ATOM      6  N   UNL     1      34.221 -24.356 -13.791  0.00  0.00    -0.170 NA
ATOM      7  C   UNL     1      32.882 -23.581 -15.632  0.00  0.00    +0.279 C 
ATOM      8  C   UNL     1      35.291 -23.632 -15.664  0.00  0.00    +0.219 C 
ATOM      9  C   UNL     1      34.140 -22.876 -17.472  0.00  0.00    +0.203 C 
ATOM     10  C   UNL     1      36.261 -24.016 -14.766  0.00  0.00    +0.203 C 
ATOM     11  C   UNL     1      35.545 -24.453 -13.633  0.00  0.00    +0.116 C 
ATOM     12  H   UNL     1      33.226 -22.176 -19.159  0.00  0.00    +0.161 HD
ATOM     13  H   UNL     1      31.863 -24.203 -14.013  0.00  0.00    +0.156 HD
ENDROOT
BRANCH   3  14
ATOM     14  C   UNL     1      30.427 -23.630 -15.338  0.00  0.00    +0.051 C 
ATOM     15  C   UNL     1      29.767 -22.447 -15.007  0.00  0.00    +0.015 C 
ATOM     16  C   UNL     1      29.773 -24.608 -16.087  0.00  0.00    +0.015 C 
ATOM     17  C   UNL     1      28.452 -22.242 -15.427  0.00  0.00    +0.001 C 
ATOM     18  C   UNL     1      28.459 -24.402 -16.507  0.00  0.00    +0.001 C 
ATOM     19  C   UNL     1      27.798 -23.219 -16.176  0.00  0.00    +0.000 C 
ENDBRANCH   3  14
BRANCH  10  21
ATOM     20  N   UNL     1      38.816 -23.939 -15.124  0.00  0.00    -0.195 NA
ATOM     21  C   UNL     1      37.667 -23.974 -14.963  0.00  0.00    +0.087 C 
ENDBRANCH  10  21
BRANCH   2  22
ATOM     22  C   UNL     1      35.288 -22.097 -19.496  0.00  0.00    +0.125 C 
BRANCH  22  24
ATOM     23 CL   UNL     1      34.927 -16.721 -22.169  0.00  0.00    -0.082 Cl
ATOM     24  C   UNL     1      35.197 -20.754 -20.165  0.00  0.00    -0.002 C 
ATOM     25  C   UNL     1      33.950 -20.212 -20.479  0.00  0.00    -0.002 C 
ATOM     26  C   UNL     1      36.361 -20.046 -20.469  0.00  0.00    -0.002 C 
ATOM     27  C   UNL     1      33.867 -18.966 -21.099  0.00  0.00    +0.011 C 
ATOM     28  C   UNL     1      36.277 -18.799 -21.089  0.00  0.00    +0.011 C 
ATOM     29  C   UNL     1      35.030 -18.259 -21.404  0.00  0.00    +0.058 C 
ENDBRANCH  22  24
ENDBRANCH   2  22
TORSDOF 4
ENDMDL
MODEL 3
REMARK VINA RESULT:      -9.7      3.053      7.481
REMARK  Name = 24779676
REMARK  4 active torsions:
REMARK  status: ('A' for Active; 'I' for Inactive)
REMARK    1  A    between atoms: N_2  and  C_22
REMARK    2  A    between atoms: N_3  and  C_14
REMARK    3  A    between atoms: C_10  and  C_21
REMARK    4  A    between atoms: C_22  and  C_24
REMARK                            x       y       z     vdW  Elec       q    Type
REMARK                         _______ _______ _______ _____ _____    ______ ____
ROOT
ATOM      1  N   UNL     1      36.428 -22.856 -16.475  0.00  0.00    -0.123 N 
ATOM      2  N   UNL     1      32.466 -23.292 -16.842  0.00  0.00    -0.254 N 
ATOM      3  N   UNL     1      36.550 -21.465 -18.379  0.00  0.00    -0.274 N 
ATOM      4  N   UNL     1      34.501 -22.378 -17.614  0.00  0.00    -0.295 NA
ATOM      5  N   UNL     1      34.416 -23.783 -15.684  0.00  0.00    -0.314 NA
ATOM      6  N   UNL     1      37.753 -22.780 -16.256  0.00  0.00    -0.170 NA
ATOM      7  C   UNL     1      35.789 -22.214 -17.524  0.00  0.00    +0.279 C 
ATOM      8  C   UNL     1      35.754 -23.626 -15.572  0.00  0.00    +0.219 C 
ATOM      9  C   UNL     1      33.826 -23.167 -16.685  0.00  0.00    +0.203 C 
ATOM     10  C   UNL     1      36.710 -24.089 -14.697  0.00  0.00    +0.203 C 
ATOM     11  C   UNL     1      37.919 -23.536 -15.166  0.00  0.00    +0.116 C 
ATOM     12  H   UNL     1      32.028 -22.830 -17.592  0.00  0.00    +0.161 HD
ATOM     13  H   UNL     1      37.516 -21.428 -18.192  0.00  0.00    +0.156 HD
ENDROOT
BRANCH   3  14
ATOM     14  C   UNL     1      36.103 -20.747 -19.490  0.00  0.00    +0.051 C 
ATOM     15  C   UNL     1      36.973 -19.887 -20.160  0.00  0.00    +0.015 C 
ATOM     16  C   UNL     1      34.787 -20.890 -19.929  0.00  0.00    +0.015 C 
ATOM     17  C   UNL     1      36.526 -19.170 -21.271  0.00  0.00    +0.001 C 
ATOM     18  C   UNL     1      34.340 -20.174 -21.040  0.00  0.00    +0.001 C 
ATOM     19  C   UNL     1      35.210 -19.314 -21.710  0.00  0.00    +0.000 C 
ENDBRANCH   3  14
BRANCH  10  21
ATOM     20  N   UNL     1      36.327 -25.626 -12.659  0.00  0.00    -0.195 NA
ATOM     21  C   UNL     1      36.499 -24.935 -13.576  0.00  0.00    +0.087 C 
ENDBRANCH  10  21
BRANCH   2  22
ATOM     22  C   UNL     1      31.668 -24.074 -15.951  0.00  0.00    +0.125 C 
BRANCH  22  24
ATOM     23 CL   UNL     1      26.043 -21.954 -15.755  0.00  0.00    -0.082 Cl
ATOM     24  C   UNL     1      30.262 -23.545 -15.901  0.00  0.00    -0.002 C 
ATOM     25  C   UNL     1      29.927 -22.536 -14.997  0.00  0.00    -0.002 C 
ATOM     26  C   UNL     1      29.291 -24.060 -16.762  0.00  0.00    -0.002 C 
ATOM     27  C   UNL     1      28.622 -22.045 -14.952  0.00  0.00    +0.011 C 
ATOM     28  C   UNL     1      27.987 -23.568 -16.716  0.00  0.00    +0.011 C 
ATOM     29  C   UNL     1      27.653 -22.561 -15.812  0.00  0.00    +0.058 C 
ENDBRANCH  22  24
ENDBRANCH   2  22
TORSDOF 4
ENDMDL
MODEL 4
REMARK VINA RESULT:      -9.7      2.647      6.861
REMARK  Name = 24779676
REMARK  4 active torsions:
REMARK  status: ('A' for Active; 'I' for Inactive)
REMARK    1  A    between atoms: N_2  and  C_22
REMARK    2  A    between atoms: N_3  and  C_14
REMARK    3  A    between atoms: C_10  and  C_21
REMARK    4  A    between atoms: C_22  and  C_24
REMARK                            x       y       z     vdW  Elec       q    Type
REMARK                         _______ _______ _______ _____ _____    ______ ____
ROOT
ATOM      1  N   UNL     1      31.861 -22.974 -16.659  0.00  0.00    -0.123 N 
ATOM      2  N   UNL     1      35.555 -23.023 -15.117  0.00  0.00    -0.254 N 
ATOM      3  N   UNL     1      32.595 -21.914 -18.637  0.00  0.00    -0.274 N 
ATOM      4  N   UNL     1      34.082 -22.466 -16.877  0.00  0.00    -0.295 NA
ATOM      5  N   UNL     1      33.304 -23.538 -14.889  0.00  0.00    -0.314 NA
ATOM      6  N   UNL     1      30.584 -23.011 -17.077  0.00  0.00    -0.170 NA
ATOM      7  C   UNL     1      32.895 -22.435 -17.409  0.00  0.00    +0.279 C 
ATOM      8  C   UNL     1      32.062 -23.515 -15.422  0.00  0.00    +0.219 C 
ATOM      9  C   UNL     1      34.272 -23.022 -15.613  0.00  0.00    +0.203 C 
ATOM     10  C   UNL     1      30.822 -23.937 -15.000  0.00  0.00    +0.203 C 
ATOM     11  C   UNL     1      29.953 -23.602 -16.058  0.00  0.00    +0.116 C 
ATOM     12  H   UNL     1      36.278 -22.636 -15.663  0.00  0.00    +0.161 HD
ATOM     13  H   UNL     1      31.651 -21.957 -18.916  0.00  0.00    +0.156 HD
ENDROOT
BRANCH   3  14
ATOM     14  C   UNL     1      33.484 -21.327 -19.540  0.00  0.00    +0.051 C 
ATOM     15  C   UNL     1      33.033 -20.352 -20.429  0.00  0.00    +0.015 C 
ATOM     16  C   UNL     1      34.824 -21.718 -19.552  0.00  0.00    +0.015 C 
ATOM     17  C   UNL     1      33.922 -19.766 -21.330  0.00  0.00    +0.001 C 
ATOM     18  C   UNL     1      35.713 -21.130 -20.453  0.00  0.00    +0.001 C 
ATOM     19  C   UNL     1      35.262 -20.155 -21.342  0.00  0.00    +0.000 C 
ENDBRANCH   3  14
BRANCH  10  21
ATOM     20  N   UNL     1      30.261 -25.086 -12.758  0.00  0.00    -0.195 NA
ATOM     21  C   UNL     1      30.513 -24.569 -13.766  0.00  0.00    +0.087 C 
ENDBRANCH  10  21
BRANCH   2  22
ATOM     22  C   UNL     1      35.872 -23.565 -13.834  0.00  0.00    +0.125 C 
BRANCH  22  24
ATOM     23 CL   UNL     1      41.088 -26.552 -14.038  0.00  0.00    -0.082 Cl
ATOM     24  C   UNL     1      37.175 -24.312 -13.886  0.00  0.00    -0.002 C 
ATOM     25  C   UNL     1      37.982 -24.233 -15.022  0.00  0.00    -0.002 C 
ATOM     26  C   UNL     1      37.581 -25.084 -12.796  0.00  0.00    -0.002 C 
ATOM     27  C   UNL     1      39.191 -24.926 -15.069  0.00  0.00    +0.011 C 
ATOM     28  C   UNL     1      38.791 -25.777 -12.843  0.00  0.00    +0.011 C 
ATOM     29  C   UNL     1      39.595 -25.697 -13.980  0.00  0.00    +0.058 C 
ENDBRANCH  22  24
ENDBRANCH   2  22
TORSDOF 4
ENDMDL
