MODEL 1
REMARK VINA RESULT:      -7.8      0.000      0.000
REMARK  Name = 5311304
REMARK  5 active torsions:
REMARK  status: ('A' for Active; 'I' for Inactive)
REMARK    1  A    between atoms: N_2  and  C_26
REMARK    2  A    between atoms: C_4  and  O_20
REMARK    3  A    between atoms: C_10  and  O_22
REMARK    4  A    between atoms: C_17  and  O_24
REMARK    5  A    between atoms: C_26  and  C_27
REMARK                            x       y       z     vdW  Elec       q    Type
REMARK                         _______ _______ _______ _____ _____    ______ ____
ROOT
ATOM      1  O   UNL     1      31.017 -10.977 -22.126  0.00  0.00    -0.474 OA
ATOM      2  N   UNL     1      32.202  -6.300 -24.019  0.00  0.00    +0.390 N 
ATOM      3  C   UNL     1      31.585  -8.644 -22.418  0.00  0.00    +0.079 C 
ATOM      4  C   UNL     1      32.270  -7.406 -21.823  0.00  0.00    +0.078 C 
ATOM      5  C   UNL     1      33.138  -6.785 -22.969  0.00  0.00    -0.028 C 
ATOM      6  C   UNL     1      30.952  -9.668 -21.453  0.00  0.00    +0.198 C 
ATOM      7  C   UNL     1      30.626  -8.203 -23.554  0.00  0.00    -0.013 C 
ATOM      8  C   UNL     1      32.589  -9.569 -23.010  0.00  0.00    +0.016 C 
ATOM      9  C   UNL     1      33.043  -7.732 -20.537  0.00  0.00    +0.028 C 
ATOM     10  C   UNL     1      31.617  -9.774 -20.053  0.00  0.00    +0.151 C 
ATOM     11  C   UNL     1      34.239  -7.775 -23.488  0.00  0.00    +0.008 C 
ATOM     12  C   UNL     1      31.342  -7.333 -24.607  0.00  0.00    -0.077 C 
ATOM     13  C   UNL     1      32.122  -8.434 -19.522  0.00  0.00    +0.035 C 
ATOM     14  C   UNL     1      33.796  -9.212 -23.578  0.00  0.00    -0.025 C 
ATOM     15  C   UNL     1      32.157 -10.876 -22.895  0.00  0.00    +0.168 C 
ATOM     16  C   UNL     1      34.560 -10.244 -24.123  0.00  0.00    -0.001 C 
ATOM     17  C   UNL     1      32.886 -11.906 -23.442  0.00  0.00    +0.167 C 
ATOM     18  C   UNL     1      34.096 -11.577 -24.069  0.00  0.00    +0.039 C 
ATOM     19  H   UNL     1      31.575  -5.685 -23.499  0.00  0.00    -0.080 HD
ENDROOT
BRANCH   4  20
ATOM     20  O   UNL     1      31.284  -6.440 -21.411  0.00  0.00    -0.388 OA
ATOM     21  H   UNL     1      31.525  -6.082 -20.543  0.00  0.00    +0.210 HD
ENDBRANCH   4  20
BRANCH  10  22
ATOM     22  O   UNL     1      32.737 -10.664 -20.053  0.00  0.00    -0.381 OA
ATOM     23  H   UNL     1      32.432 -11.567 -20.232  0.00  0.00    +0.210 HD
ENDBRANCH  10  22
BRANCH  17  24
ATOM     24  O   UNL     1      32.480 -13.196 -23.347  0.00  0.00    -0.503 OA
ATOM     25  H   UNL     1      32.224 -13.665 -24.116  0.00  0.00    +0.292 HD
ENDBRANCH  17  24
BRANCH   2  26
ATOM     26  C   UNL     1      32.846  -5.490 -25.046  0.00  0.00    -0.077 C 
BRANCH  26  27
ATOM     27  C   UNL     1      31.883  -4.493 -25.652  0.00  0.00    -0.021 C 
ATOM     28  C   UNL     1      32.530  -3.190 -26.162  0.00  0.00    -0.002 C 
ATOM     29  C   UNL     1      31.121  -3.625 -24.628  0.00  0.00    -0.002 C 
ATOM     30  C   UNL     1      31.292  -2.450 -25.615  0.00  0.00    -0.000 C 
ENDBRANCH  26  27
ENDBRANCH   2  26
TORSDOF 5
ENDMDL
MODEL 2
REMARK VINA RESULT:      -7.4     17.303     19.071
REMARK  Name = 5311304
REMARK  5 active torsions:
REMARK  status: ('A' for Active; 'I' for Inactive)
REMARK    1  A    between atoms: N_2  and  C_26
REMARK    2  A    between atoms: C_4  and  O_20
REMARK    3  A    between atoms: C_10  and  O_22
REMARK    4  A    between atoms: C_17  and  O_24
REMARK    5  A    between atoms: C_26  and  C_27
REMARK                            x       y       z     vdW  Elec       q    Type
REMARK                         _______ _______ _______ _____ _____    ______ ____
ROOT
ATOM      1  O   UNL     1      38.262 -26.376 -13.510  0.00  0.00    -0.474 OA
ATOM      2  N   UNL     1      33.982 -24.075 -15.311  0.00  0.00    +0.390 N 
ATOM      3  C   UNL     1      36.188 -25.157 -13.763  0.00  0.00    +0.079 C 
ATOM      4  C   UNL     1      35.281 -24.042 -13.223  0.00  0.00    +0.078 C 
ATOM      5  C   UNL     1      34.832 -23.197 -14.463  0.00  0.00    -0.028 C 
ATOM      6  C   UNL     1      37.072 -25.932 -12.764  0.00  0.00    +0.198 C 
ATOM      7  C   UNL     1      35.364 -26.082 -14.694  0.00  0.00    -0.013 C 
ATOM      8  C   UNL     1      37.304 -24.587 -14.566  0.00  0.00    +0.016 C 
ATOM      9  C   UNL     1      35.957 -23.234 -12.106  0.00  0.00    +0.028 C 
ATOM     10  C   UNL     1      37.519 -25.141 -11.504  0.00  0.00    +0.151 C 
ATOM     11  C   UNL     1      36.045 -22.546 -15.214  0.00  0.00    +0.008 C 
ATOM     12  C   UNL     1      34.643 -25.290 -15.803  0.00  0.00    -0.077 C 
ATOM     13  C   UNL     1      36.454 -24.172 -10.992  0.00  0.00    +0.035 C 
ATOM     14  C   UNL     1      37.266 -23.423 -15.309  0.00  0.00    -0.025 C 
ATOM     15  C   UNL     1      38.426 -25.384 -14.454  0.00  0.00    +0.168 C 
ATOM     16  C   UNL     1      38.416 -23.105 -16.031  0.00  0.00    -0.001 C 
ATOM     17  C   UNL     1      39.564 -25.099 -15.172  0.00  0.00    +0.167 C 
ATOM     18  C   UNL     1      39.548 -23.949 -15.975  0.00  0.00    +0.039 C 
ATOM     19  H   UNL     1      33.265 -24.398 -14.660  0.00  0.00    -0.080 HD
ENDROOT
BRANCH   4  20
ATOM     20  O   UNL     1      34.114 -24.608 -12.599  0.00  0.00    -0.388 OA
ATOM     21  H   UNL     1      34.349 -25.446 -12.173  0.00  0.00    +0.210 HD
ENDBRANCH   4  20
BRANCH  10  22
ATOM     22  O   UNL     1      38.697 -24.366 -11.742  0.00  0.00    -0.381 OA
ATOM     23  H   UNL     1      38.449 -23.512 -12.129  0.00  0.00    +0.210 HD
ENDBRANCH  10  22
BRANCH  17  24
ATOM     24  O   UNL     1      40.675 -25.869 -15.082  0.00  0.00    -0.503 OA
ATOM     25  H   UNL     1      41.504 -25.531 -15.361  0.00  0.00    +0.292 HD
ENDBRANCH  17  24
BRANCH   2  26
ATOM     26  C   UNL     1      33.298 -23.364 -16.386  0.00  0.00    -0.077 C 
BRANCH  26  27
ATOM     27  C   UNL     1      31.875 -23.018 -16.004  0.00  0.00    -0.021 C 
ATOM     28  C   UNL     1      31.660 -22.713 -14.508  0.00  0.00    -0.002 C 
ATOM     29  C   UNL     1      30.943 -24.233 -15.813  0.00  0.00    -0.002 C 
ATOM     30  C   UNL     1      30.319 -23.469 -14.625  0.00  0.00    -0.000 C 
ENDBRANCH  26  27
ENDBRANCH   2  26
TORSDOF 5
ENDMDL
MODEL 3
REMARK VINA RESULT:      -7.2     17.074     19.205
REMARK  Name = 5311304
REMARK  5 active torsions:
REMARK  status: ('A' for Active; 'I' for Inactive)
REMARK    1  A    between atoms: N_2  and  C_26
REMARK    2  A    between atoms: C_4  and  O_20
REMARK    3  A    between atoms: C_10  and  O_22
REMARK    4  A    between atoms: C_17  and  O_24
REMARK    5  A    between atoms: C_26  and  C_27
REMARK                            x       y       z     vdW  Elec       q    Type
REMARK                         _______ _______ _______ _____ _____    ______ ____
ROOT
ATOM      1  O   UNL     1      38.510 -23.719 -14.195  0.00  0.00    -0.474 OA
ATOM      2  N   UNL     1      33.429 -23.457 -15.188  0.00  0.00    +0.390 N 
ATOM      3  C   UNL     1      36.236 -24.148 -14.902  0.00  0.00    +0.079 C 
ATOM      4  C   UNL     1      35.161 -25.204 -15.194  0.00  0.00    +0.078 C 
ATOM      5  C   UNL     1      33.850 -24.706 -14.498  0.00  0.00    -0.028 C 
ATOM      6  C   UNL     1      37.714 -24.520 -15.143  0.00  0.00    +0.198 C 
ATOM      7  C   UNL     1      35.829 -22.806 -15.561  0.00  0.00    -0.013 C 
ATOM      8  C   UNL     1      36.359 -23.912 -13.438  0.00  0.00    +0.016 C 
ATOM      9  C   UNL     1      35.608 -26.616 -14.788  0.00  0.00    +0.028 C 
ATOM     10  C   UNL     1      38.068 -26.023 -14.973  0.00  0.00    +0.151 C 
ATOM     11  C   UNL     1      34.014 -24.566 -12.944  0.00  0.00    +0.008 C 
ATOM     12  C   UNL     1      34.410 -22.366 -15.146  0.00  0.00    -0.077 C 
ATOM     13  C   UNL     1      36.957 -26.960 -15.444  0.00  0.00    +0.035 C 
ATOM     14  C   UNL     1      35.349 -24.024 -12.503  0.00  0.00    -0.025 C 
ATOM     15  C   UNL     1      37.660 -23.578 -13.118  0.00  0.00    +0.168 C 
ATOM     16  C   UNL     1      35.676 -23.701 -11.186  0.00  0.00    -0.001 C 
ATOM     17  C   UNL     1      38.001 -23.239 -11.829  0.00  0.00    +0.167 C 
ATOM     18  C   UNL     1      36.989 -23.295 -10.859  0.00  0.00    +0.039 C 
ATOM     19  H   UNL     1      33.379 -23.743 -16.167  0.00  0.00    -0.080 HD
ENDROOT
BRANCH   4  20
ATOM     20  O   UNL     1      34.927 -25.298 -16.612  0.00  0.00    -0.388 OA
ATOM     21  H   UNL     1      34.990 -26.225 -16.889  0.00  0.00    +0.210 HD
ENDBRANCH   4  20
BRANCH  10  22
ATOM     22  O   UNL     1      38.341 -26.363 -13.611  0.00  0.00    -0.381 OA
ATOM     23  H   UNL     1      38.962 -27.107 -13.583  0.00  0.00    +0.210 HD
ENDBRANCH  10  22
BRANCH  17  24
ATOM     24  O   UNL     1      39.270 -22.903 -11.492  0.00  0.00    -0.503 OA
ATOM     25  H   UNL     1      39.467 -22.028 -11.220  0.00  0.00    +0.292 HD
ENDBRANCH  17  24
BRANCH   2  26
ATOM     26  C   UNL     1      32.099 -22.997 -14.805  0.00  0.00    -0.077 C 
BRANCH  26  27
ATOM     27  C   UNL     1      31.017 -23.745 -15.553  0.00  0.00    -0.021 C 
ATOM     28  C   UNL     1      29.717 -22.949 -15.783  0.00  0.00    -0.002 C 
ATOM     29  C   UNL     1      30.183 -24.712 -14.687  0.00  0.00    -0.002 C 
ATOM     30  C   UNL     1      28.954 -24.262 -15.505  0.00  0.00    -0.000 C 
ENDBRANCH  26  27
ENDBRANCH   2  26
TORSDOF 5
ENDMDL
MODEL 4
REMARK VINA RESULT:      -7.1     15.802     18.707
REMARK  Name = 5311304
REMARK  5 active torsions:
REMARK  status: ('A' for Active; 'I' for Inactive)
REMARK    1  A    between atoms: N_2  and  C_26
REMARK    2  A    between atoms: C_4  and  O_20
REMARK    3  A    between atoms: C_10  and  O_22
REMARK    4  A    between atoms: C_17  and  O_24
REMARK    5  A    between atoms: C_26  and  C_27
REMARK                            x       y       z     vdW  Elec       q    Type
REMARK                         _______ _______ _______ _____ _____    ______ ____
ROOT
ATOM      1  O   UNL     1      38.024 -26.642 -13.660  0.00  0.00    -0.474 OA
ATOM      2  N   UNL     1      34.173 -23.731 -15.548  0.00  0.00    +0.390 N 
ATOM      3  C   UNL     1      36.115 -25.184 -13.949  0.00  0.00    +0.079 C 
ATOM      4  C   UNL     1      35.284 -24.028 -13.373  0.00  0.00    +0.078 C 
ATOM      5  C   UNL     1      35.032 -23.032 -14.554  0.00  0.00    -0.028 C 
ATOM      6  C   UNL     1      36.825 -26.138 -12.966  0.00  0.00    +0.198 C 
ATOM      7  C   UNL     1      35.284 -25.925 -15.027  0.00  0.00    -0.013 C 
ATOM      8  C   UNL     1      37.348 -24.670 -14.605  0.00  0.00    +0.016 C 
ATOM      9  C   UNL     1      35.940 -23.403 -12.134  0.00  0.00    +0.028 C 
ATOM     10  C   UNL     1      37.240 -25.516 -11.604  0.00  0.00    +0.151 C 
ATOM     11  C   UNL     1      36.367 -22.453 -15.143  0.00  0.00    +0.008 C 
ATOM     12  C   UNL     1      34.747 -24.962 -16.104  0.00  0.00    -0.077 C 
ATOM     13  C   UNL     1      36.239 -24.486 -11.082  0.00  0.00    +0.035 C 
ATOM     14  C   UNL     1      37.495 -23.447 -15.230  0.00  0.00    -0.025 C 
ATOM     15  C   UNL     1      38.369 -25.593 -14.486  0.00  0.00    +0.168 C 
ATOM     16  C   UNL     1      38.729 -23.194 -15.828  0.00  0.00    -0.001 C 
ATOM     17  C   UNL     1      39.589 -25.371 -15.083  0.00  0.00    +0.167 C 
ATOM     18  C   UNL     1      39.760 -24.159 -15.768  0.00  0.00    +0.039 C 
ATOM     19  H   UNL     1      33.374 -24.030 -14.988  0.00  0.00    -0.080 HD
ENDROOT
BRANCH   4  20
ATOM     20  O   UNL     1      34.015 -24.516 -12.898  0.00  0.00    -0.388 OA
ATOM     21  H   UNL     1      33.346 -24.404 -13.591  0.00  0.00    +0.210 HD
ENDBRANCH   4  20
BRANCH  10  22
ATOM     22  O   UNL     1      38.507 -24.858 -11.675  0.00  0.00    -0.381 OA
ATOM     23  H   UNL     1      39.107 -25.242 -11.016  0.00  0.00    +0.210 HD
ENDBRANCH  10  22
BRANCH  17  24
ATOM     24  O   UNL     1      40.603 -26.264 -14.985  0.00  0.00    -0.503 OA
ATOM     25  H   UNL     1      41.264 -26.299 -15.648  0.00  0.00    +0.292 HD
ENDBRANCH  17  24
BRANCH   2  26
ATOM     26  C   UNL     1      33.661 -22.856 -16.596  0.00  0.00    -0.077 C 
BRANCH  26  27
ATOM     27  C   UNL     1      34.405 -23.056 -17.898  0.00  0.00    -0.021 C 
ATOM     28  C   UNL     1      35.532 -22.038 -18.166  0.00  0.00    -0.002 C 
ATOM     29  C   UNL     1      33.696 -22.484 -19.144  0.00  0.00    -0.002 C 
ATOM     30  C   UNL     1      35.090 -22.053 -19.645  0.00  0.00    -0.000 C 
ENDBRANCH  26  27
ENDBRANCH   2  26
TORSDOF 5
ENDMDL
MODEL 5
REMARK VINA RESULT:      -6.9     16.218     18.890
REMARK  Name = 5311304
REMARK  5 active torsions:
REMARK  status: ('A' for Active; 'I' for Inactive)
REMARK    1  A    between atoms: N_2  and  C_26
REMARK    2  A    between atoms: C_4  and  O_20
REMARK    3  A    between atoms: C_10  and  O_22
REMARK    4  A    between atoms: C_17  and  O_24
REMARK    5  A    between atoms: C_26  and  C_27
REMARK                            x       y       z     vdW  Elec       q    Type
REMARK                         _______ _______ _______ _____ _____    ______ ____
ROOT
ATOM      1  O   UNL     1      38.437 -23.589 -13.684  0.00  0.00    -0.474 OA
ATOM      2  N   UNL     1      33.299 -24.236 -13.896  0.00  0.00    +0.390 N 
ATOM      3  C   UNL     1      36.077 -23.444 -14.197  0.00  0.00    +0.079 C 
ATOM      4  C   UNL     1      35.011 -23.097 -15.246  0.00  0.00    +0.078 C 
ATOM      5  C   UNL     1      33.970 -24.267 -15.223  0.00  0.00    -0.028 C 
ATOM      6  C   UNL     1      37.415 -22.677 -14.230  0.00  0.00    +0.198 C 
ATOM      7  C   UNL     1      35.424 -23.472 -12.791  0.00  0.00    -0.013 C 
ATOM      8  C   UNL     1      36.650 -24.793 -14.454  0.00  0.00    +0.016 C 
ATOM      9  C   UNL     1      35.624 -22.809 -16.623  0.00  0.00    +0.028 C 
ATOM     10  C   UNL     1      37.869 -22.172 -15.627  0.00  0.00    +0.151 C 
ATOM     11  C   UNL     1      34.615 -25.648 -15.593  0.00  0.00    +0.008 C 
ATOM     12  C   UNL     1      34.195 -24.401 -12.745  0.00  0.00    -0.077 C 
ATOM     13  C   UNL     1      36.707 -21.721 -16.511  0.00  0.00    +0.035 C 
ATOM     14  C   UNL     1      35.996 -25.864 -15.031  0.00  0.00    -0.025 C 
ATOM     15  C   UNL     1      37.970 -24.834 -14.049  0.00  0.00    +0.168 C 
ATOM     16  C   UNL     1      36.713 -27.057 -15.126  0.00  0.00    -0.001 C 
ATOM     17  C   UNL     1      38.689 -26.005 -14.117  0.00  0.00    +0.167 C 
ATOM     18  C   UNL     1      38.043 -27.127 -14.655  0.00  0.00    +0.039 C 
ATOM     19  H   UNL     1      32.952 -23.278 -13.838  0.00  0.00    -0.080 HD
ENDROOT
BRANCH   4  20
ATOM     20  O   UNL     1      34.341 -21.873 -14.889  0.00  0.00    -0.388 OA
ATOM     21  H   UNL     1      34.763 -21.491 -14.104  0.00  0.00    +0.210 HD
ENDBRANCH   4  20
BRANCH  10  22
ATOM     22  O   UNL     1      38.576 -23.175 -16.361  0.00  0.00    -0.381 OA
ATOM     23  H   UNL     1      39.400 -22.800 -16.708  0.00  0.00    +0.210 HD
ENDBRANCH  10  22
BRANCH  17  24
ATOM     24  O   UNL     1      39.983 -26.070 -13.722  0.00  0.00    -0.503 OA
ATOM     25  H   UNL     1      40.362 -26.895 -13.489  0.00  0.00    +0.292 HD
ENDBRANCH  17  24
BRANCH   2  26
ATOM     26  C   UNL     1      32.142 -25.120 -13.805  0.00  0.00    -0.077 C 
BRANCH  26  27
ATOM     27  C   UNL     1      30.845 -24.348 -13.914  0.00  0.00    -0.021 C 
ATOM     28  C   UNL     1      30.030 -24.625 -15.194  0.00  0.00    -0.002 C 
ATOM     29  C   UNL     1      30.996 -22.896 -14.416  0.00  0.00    -0.002 C 
ATOM     30  C   UNL     1      29.694 -23.118 -15.215  0.00  0.00    -0.000 C 
ENDBRANCH  26  27
ENDBRANCH   2  26
TORSDOF 5
ENDMDL
MODEL 6
REMARK VINA RESULT:      -5.9     15.646     18.708
REMARK  Name = 5311304
REMARK  5 active torsions:
REMARK  status: ('A' for Active; 'I' for Inactive)
REMARK    1  A    between atoms: N_2  and  C_26
REMARK    2  A    between atoms: C_4  and  O_20
REMARK    3  A    between atoms: C_10  and  O_22
REMARK    4  A    between atoms: C_17  and  O_24
REMARK    5  A    between atoms: C_26  and  C_27
REMARK                            x       y       z     vdW  Elec       q    Type
REMARK                         _______ _______ _______ _____ _____    ______ ____
ROOT
ATOM      1  O   UNL     1      38.172 -23.530 -11.791  0.00  0.00    -0.474 OA
ATOM      2  N   UNL     1      35.729 -22.984 -16.330  0.00  0.00    +0.390 N 
ATOM      3  C   UNL     1      37.433 -23.700 -14.088  0.00  0.00    +0.079 C 
ATOM      4  C   UNL     1      37.303 -24.590 -15.332  0.00  0.00    +0.078 C 
ATOM      5  C   UNL     1      35.845 -24.394 -15.868  0.00  0.00    -0.028 C 
ATOM      6  C   UNL     1      38.620 -23.941 -13.133  0.00  0.00    +0.198 C 
ATOM      7  C   UNL     1      37.275 -22.214 -14.503  0.00  0.00    -0.013 C 
ATOM      8  C   UNL     1      36.360 -24.008 -13.104  0.00  0.00    +0.016 C 
ATOM      9  C   UNL     1      37.691 -26.048 -15.045  0.00  0.00    +0.028 C 
ATOM     10  C   UNL     1      39.152 -25.399 -13.075  0.00  0.00    +0.151 C 
ATOM     11  C   UNL     1      34.759 -24.824 -14.820  0.00  0.00    +0.008 C 
ATOM     12  C   UNL     1      35.975 -21.971 -15.296  0.00  0.00    -0.077 C 
ATOM     13  C   UNL     1      39.097 -26.115 -14.424  0.00  0.00    +0.035 C 
ATOM     14  C   UNL     1      35.089 -24.463 -13.394  0.00  0.00    -0.025 C 
ATOM     15  C   UNL     1      36.819 -23.798 -11.819  0.00  0.00    +0.168 C 
ATOM     16  C   UNL     1      34.224 -24.636 -12.314  0.00  0.00    -0.001 C 
ATOM     17  C   UNL     1      35.978 -23.945 -10.740  0.00  0.00    +0.167 C 
ATOM     18  C   UNL     1      34.664 -24.360 -11.000  0.00  0.00    +0.039 C 
ATOM     19  H   UNL     1      36.503 -22.896 -16.989  0.00  0.00    -0.080 HD
ENDROOT
BRANCH   4  20
ATOM     20  O   UNL     1      38.232 -24.166 -16.348  0.00  0.00    -0.388 OA
ATOM     21  H   UNL     1      37.871 -24.377 -17.223  0.00  0.00    +0.210 HD
ENDBRANCH   4  20
BRANCH  10  22
ATOM     22  O   UNL     1      38.416 -26.207 -12.152  0.00  0.00    -0.381 OA
ATOM     23  H   UNL     1      38.443 -27.133 -12.440  0.00  0.00    +0.210 HD
ENDBRANCH  10  22
BRANCH  17  24
ATOM     24  O   UNL     1      36.404 -23.739  -9.471  0.00  0.00    -0.503 OA
ATOM     25  H   UNL     1      37.322 -23.693  -9.286  0.00  0.00    +0.292 HD
ENDBRANCH  17  24
BRANCH   2  26
ATOM     26  C   UNL     1      34.502 -22.709 -17.068  0.00  0.00    -0.077 C 
BRANCH  26  27
ATOM     27  C   UNL     1      34.773 -22.518 -18.544  0.00  0.00    -0.021 C 
ATOM     28  C   UNL     1      35.916 -21.537 -18.873  0.00  0.00    -0.002 C 
ATOM     29  C   UNL     1      33.823 -21.530 -19.253  0.00  0.00    -0.002 C 
ATOM     30  C   UNL     1      35.052 -21.042 -20.051  0.00  0.00    -0.000 C 
ENDBRANCH  26  27
ENDBRANCH   2  26
TORSDOF 5
ENDMDL
MODEL 7
REMARK VINA RESULT:      -5.5      6.226      9.599
REMARK  Name = 5311304
REMARK  5 active torsions:
REMARK  status: ('A' for Active; 'I' for Inactive)
REMARK    1  A    between atoms: N_2  and  C_26
REMARK    2  A    between atoms: C_4  and  O_20
REMARK    3  A    between atoms: C_10  and  O_22
REMARK    4  A    between atoms: C_17  and  O_24
REMARK    5  A    between atoms: C_26  and  C_27
REMARK                            x       y       z     vdW  Elec       q    Type
REMARK                         _______ _______ _______ _____ _____    ______ ____
ROOT
ATOM      1  O   UNL     1      36.138 -19.158 -21.575  0.00  0.00    -0.474 OA
ATOM      2  N   UNL     1      33.480 -14.761 -20.893  0.00  0.00    +0.390 N 
ATOM      3  C   UNL     1      34.967 -17.061 -21.862  0.00  0.00    +0.079 C 
ATOM      4  C   UNL     1      34.134 -16.174 -22.798  0.00  0.00    +0.078 C 
ATOM      5  C   UNL     1      32.926 -15.648 -21.951  0.00  0.00    -0.028 C 
ATOM      6  C   UNL     1      36.014 -18.006 -22.486  0.00  0.00    +0.198 C 
ATOM      7  C   UNL     1      35.536 -16.196 -20.708  0.00  0.00    -0.013 C 
ATOM      8  C   UNL     1      34.123 -18.124 -21.252  0.00  0.00    +0.016 C 
ATOM      9  C   UNL     1      33.743 -16.902 -24.091  0.00  0.00    +0.028 C 
ATOM     10  C   UNL     1      35.694 -18.514 -23.918  0.00  0.00    +0.151 C 
ATOM     11  C   UNL     1      32.020 -16.811 -21.415  0.00  0.00    +0.008 C 
ATOM     12  C   UNL     1      34.430 -15.406 -19.979  0.00  0.00    -0.077 C 
ATOM     13  C   UNL     1      34.994 -17.469 -24.786  0.00  0.00    +0.035 C 
ATOM     14  C   UNL     1      32.775 -18.034 -20.963  0.00  0.00    -0.025 C 
ATOM     15  C   UNL     1      34.877 -19.259 -21.027  0.00  0.00    +0.168 C 
ATOM     16  C   UNL     1      32.194 -19.139 -20.340  0.00  0.00    -0.001 C 
ATOM     17  C   UNL     1      34.328 -20.353 -20.398  0.00  0.00    +0.167 C 
ATOM     18  C   UNL     1      32.972 -20.280 -20.045  0.00  0.00    +0.039 C 
ATOM     19  H   UNL     1      34.028 -14.085 -21.426  0.00  0.00    -0.080 HD
ENDROOT
BRANCH   4  20
ATOM     20  O   UNL     1      34.914 -15.048 -23.243  0.00  0.00    -0.388 OA
ATOM     21  H   UNL     1      35.100 -14.467 -22.490  0.00  0.00    +0.210 HD
ENDBRANCH   4  20
BRANCH  10  22
ATOM     22  O   UNL     1      34.852 -19.669 -23.907  0.00  0.00    -0.381 OA
ATOM     23  H   UNL     1      34.371 -19.710 -23.065  0.00  0.00    +0.210 HD
ENDBRANCH  10  22
BRANCH  17  24
ATOM     24  O   UNL     1      35.049 -21.475 -20.162  0.00  0.00    -0.503 OA
ATOM     25  H   UNL     1      34.619 -22.260 -19.885  0.00  0.00    +0.292 HD
ENDBRANCH  17  24
BRANCH   2  26
ATOM     26  C   UNL     1      32.462 -14.011 -20.166  0.00  0.00    -0.077 C 
BRANCH  26  27
ATOM     27  C   UNL     1      32.452 -12.554 -20.570  0.00  0.00    -0.021 C 
ATOM     28  C   UNL     1      31.528 -11.651 -19.726  0.00  0.00    -0.002 C 
ATOM     29  C   UNL     1      31.547 -12.223 -21.776  0.00  0.00    -0.002 C 
ATOM     30  C   UNL     1      31.171 -10.920 -21.038  0.00  0.00    -0.000 C 
ENDBRANCH  26  27
ENDBRANCH   2  26
TORSDOF 5
ENDMDL
MODEL 8
REMARK VINA RESULT:      -5.0      2.421      6.517
REMARK  Name = 5311304
REMARK  5 active torsions:
REMARK  status: ('A' for Active; 'I' for Inactive)
REMARK    1  A    between atoms: N_2  and  C_26
REMARK    2  A    between atoms: C_4  and  O_20
REMARK    3  A    between atoms: C_10  and  O_22
REMARK    4  A    between atoms: C_17  and  O_24
REMARK    5  A    between atoms: C_26  and  C_27
REMARK                            x       y       z     vdW  Elec       q    Type
REMARK                         _______ _______ _______ _____ _____    ______ ____
ROOT
ATOM      1  O   UNL     1      30.972  -5.957 -24.410  0.00  0.00    -0.474 OA
ATOM      2  N   UNL     1      31.940 -10.470 -22.052  0.00  0.00    +0.390 N 
ATOM      3  C   UNL     1      31.936  -8.038 -23.640  0.00  0.00    +0.079 C 
ATOM      4  C   UNL     1      33.221  -8.835 -23.370  0.00  0.00    +0.078 C 
ATOM      5  C   UNL     1      33.050  -9.484 -21.956  0.00  0.00    -0.028 C 
ATOM      6  C   UNL     1      31.943  -7.001 -24.783  0.00  0.00    +0.198 C 
ATOM      7  C   UNL     1      30.733  -9.012 -23.707  0.00  0.00    -0.013 C 
ATOM      8  C   UNL     1      31.674  -7.072 -22.539  0.00  0.00    +0.016 C 
ATOM      9  C   UNL     1      34.482  -7.976 -23.535  0.00  0.00    +0.028 C 
ATOM     10  C   UNL     1      33.316  -6.344 -25.089  0.00  0.00    +0.151 C 
ATOM     11  C   UNL     1      32.871  -8.412 -20.824  0.00  0.00    +0.008 C 
ATOM     12  C   UNL     1      30.646  -9.907 -22.454  0.00  0.00    -0.077 C 
ATOM     13  C   UNL     1      34.494  -7.302 -24.919  0.00  0.00    +0.035 C 
ATOM     14  C   UNL     1      32.023  -7.229 -21.212  0.00  0.00    -0.025 C 
ATOM     15  C   UNL     1      31.036  -5.951 -23.032  0.00  0.00    +0.168 C 
ATOM     16  C   UNL     1      31.627  -6.217 -20.337  0.00  0.00    -0.001 C 
ATOM     17  C   UNL     1      30.622  -4.949 -22.184  0.00  0.00    +0.167 C 
ATOM     18  C   UNL     1      30.916  -5.096 -20.821  0.00  0.00    +0.039 C 
ATOM     19  H   UNL     1      32.232 -11.067 -22.827  0.00  0.00    -0.080 HD
ENDROOT
BRANCH   4  20
ATOM     20  O   UNL     1      33.372  -9.883 -24.347  0.00  0.00    -0.388 OA
ATOM     21  H   UNL     1      32.497 -10.208 -24.609  0.00  0.00    +0.210 HD
ENDBRANCH   4  20
BRANCH  10  22
ATOM     22  O   UNL     1      33.577  -5.220 -24.245  0.00  0.00    -0.381 OA
ATOM     23  H   UNL     1      34.236  -5.464 -23.576  0.00  0.00    +0.210 HD
ENDBRANCH  10  22
BRANCH  17  24
ATOM     24  O   UNL     1      29.990  -3.843 -22.644  0.00  0.00    -0.503 OA
ATOM     25  H   UNL     1      29.885  -3.711 -23.566  0.00  0.00    +0.292 HD
ENDBRANCH  17  24
BRANCH   2  26
ATOM     26  C   UNL     1      31.812 -11.323 -20.876  0.00  0.00    -0.077 C 
BRANCH  26  27
ATOM     27  C   UNL     1      31.680 -12.780 -21.259  0.00  0.00    -0.021 C 
ATOM     28  C   UNL     1      32.696 -13.725 -20.586  0.00  0.00    -0.002 C 
ATOM     29  C   UNL     1      32.335 -13.158 -22.604  0.00  0.00    -0.002 C 
ATOM     30  C   UNL     1      32.776 -14.476 -21.932  0.00  0.00    -0.000 C 
ENDBRANCH  26  27
ENDBRANCH   2  26
TORSDOF 5
ENDMDL
MODEL 9
REMARK VINA RESULT:      -4.9      2.364      6.512
REMARK  Name = 5311304
REMARK  5 active torsions:
REMARK  status: ('A' for Active; 'I' for Inactive)
REMARK    1  A    between atoms: N_2  and  C_26
REMARK    2  A    between atoms: C_4  and  O_20
REMARK    3  A    between atoms: C_10  and  O_22
REMARK    4  A    between atoms: C_17  and  O_24
REMARK    5  A    between atoms: C_26  and  C_27
REMARK                            x       y       z     vdW  Elec       q    Type
REMARK                         _______ _______ _______ _____ _____    ______ ____
ROOT
ATOM      1  O   UNL     1      31.450  -5.669 -25.375  0.00  0.00    -0.474 OA
ATOM      2  N   UNL     1      31.867  -9.552 -21.968  0.00  0.00    +0.390 N 
ATOM      3  C   UNL     1      32.209  -7.520 -24.015  0.00  0.00    +0.079 C 
ATOM      4  C   UNL     1      33.403  -8.221 -23.352  0.00  0.00    +0.078 C 
ATOM      5  C   UNL     1      32.965  -8.552 -21.886  0.00  0.00    -0.028 C 
ATOM      6  C   UNL     1      32.446  -6.755 -25.333  0.00  0.00    +0.198 C 
ATOM      7  C   UNL     1      31.013  -8.504 -24.088  0.00  0.00    -0.013 C 
ATOM      8  C   UNL     1      31.776  -6.344 -23.214  0.00  0.00    +0.016 C 
ATOM      9  C   UNL     1      34.695  -7.398 -23.467  0.00  0.00    +0.028 C 
ATOM     10  C   UNL     1      33.868  -6.158 -25.519  0.00  0.00    +0.151 C 
ATOM     11  C   UNL     1      32.610  -7.264 -21.063  0.00  0.00    +0.008 C 
ATOM     12  C   UNL     1      30.680  -9.109 -22.709  0.00  0.00    -0.077 C 
ATOM     13  C   UNL     1      34.973  -7.039 -24.937  0.00  0.00    +0.035 C 
ATOM     14  C   UNL     1      31.876  -6.206 -21.843  0.00  0.00    -0.025 C 
ATOM     15  C   UNL     1      31.265  -5.365 -24.043  0.00  0.00    +0.168 C 
ATOM     16  C   UNL     1      31.354  -5.035 -21.293  0.00  0.00    -0.001 C 
ATOM     17  C   UNL     1      30.729  -4.211 -23.520  0.00  0.00    +0.167 C 
ATOM     18  C   UNL     1      30.770  -4.056 -22.127  0.00  0.00    +0.039 C 
ATOM     19  H   UNL     1      32.278 -10.298 -22.530  0.00  0.00    -0.080 HD
ENDROOT
BRANCH   4  20
ATOM     20  O   UNL     1      33.702  -9.452 -24.037  0.00  0.00    -0.388 OA
ATOM     21  H   UNL     1      34.470  -9.322 -24.614  0.00  0.00    +0.210 HD
ENDBRANCH   4  20
BRANCH  10  22
ATOM     22  O   UNL     1      34.000  -4.874 -24.903  0.00  0.00    -0.381 OA
ATOM     23  H   UNL     1      34.385  -4.978 -24.019  0.00  0.00    +0.210 HD
ENDBRANCH  10  22
BRANCH  17  24
ATOM     24  O   UNL     1      30.218  -3.239 -24.314  0.00  0.00    -0.503 OA
ATOM     25  H   UNL     1      30.392  -3.245 -25.234  0.00  0.00    +0.292 HD
ENDBRANCH  17  24
BRANCH   2  26
ATOM     26  C   UNL     1      31.508 -10.133 -20.679  0.00  0.00    -0.077 C 
BRANCH  26  27
ATOM     27  C   UNL     1      31.258 -11.621 -20.791  0.00  0.00    -0.021 C 
ATOM     28  C   UNL     1      32.172 -12.501 -19.915  0.00  0.00    -0.002 C 
ATOM     29  C   UNL     1      31.910 -12.296 -22.016  0.00  0.00    -0.002 C 
ATOM     30  C   UNL     1      32.218 -13.495 -21.095  0.00  0.00    -0.000 C 
ENDBRANCH  26  27
ENDBRANCH   2  26
TORSDOF 5
ENDMDL
