MODEL 1
REMARK VINA RESULT:      -3.8      0.000      0.000
REMARK  Name = 19660
REMARK  0 active torsions:
REMARK  status: ('A' for Active; 'I' for Inactive)
REMARK                            x       y       z     vdW  Elec       q    Type
REMARK                         _______ _______ _______ _____ _____    ______ ____
ROOT
ATOM      1  O   UNL     1      26.135 -20.259 -17.976  0.00  0.00    -0.197 OA
ATOM      2  O   UNL     1      26.990 -22.317 -18.063  0.00  0.00    -0.197 OA
ATOM      3  O   UNL     1      25.570 -21.768 -16.434  0.00  0.00    -0.197 OA
ATOM      4  C   UNL     1      26.231 -21.448 -17.491  0.00  0.00    +0.592 C 
ENDROOT
TORSDOF 0
ENDMDL
MODEL 2
REMARK VINA RESULT:      -3.5     14.790     15.393
REMARK  Name = 19660
REMARK  0 active torsions:
REMARK  status: ('A' for Active; 'I' for Inactive)
REMARK                            x       y       z     vdW  Elec       q    Type
REMARK                         _______ _______ _______ _____ _____    ______ ____
ROOT
ATOM      1  O   UNL     1      40.924 -24.913 -14.670  0.00  0.00    -0.197 OA
ATOM      2  O   UNL     1      41.347 -26.943 -13.851  0.00  0.00    -0.197 OA
ATOM      3  O   UNL     1      39.353 -26.494 -14.742  0.00  0.00    -0.197 OA
ATOM      4  C   UNL     1      40.541 -26.117 -14.421  0.00  0.00    +0.592 C 
ENDROOT
TORSDOF 0
ENDMDL
MODEL 3
REMARK VINA RESULT:      -3.5     14.791     15.486
REMARK  Name = 19660
REMARK  0 active torsions:
REMARK  status: ('A' for Active; 'I' for Inactive)
REMARK                            x       y       z     vdW  Elec       q    Type
REMARK                         _______ _______ _______ _____ _____    ______ ____
ROOT
ATOM      1  O   UNL     1      41.348 -26.942 -13.849  0.00  0.00    -0.197 OA
ATOM      2  O   UNL     1      39.354 -26.495 -14.743  0.00  0.00    -0.197 OA
ATOM      3  O   UNL     1      40.924 -24.912 -14.672  0.00  0.00    -0.197 OA
ATOM      4  C   UNL     1      40.542 -26.116 -14.421  0.00  0.00    +0.592 C 
ENDROOT
TORSDOF 0
ENDMDL
MODEL 4
REMARK VINA RESULT:      -3.5      2.190      2.588
REMARK  Name = 19660
REMARK  0 active torsions:
REMARK  status: ('A' for Active; 'I' for Inactive)
REMARK                            x       y       z     vdW  Elec       q    Type
REMARK                         _______ _______ _______ _____ _____    ______ ____
ROOT
ATOM      1  O   UNL     1      26.777 -22.554 -15.969  0.00  0.00    -0.197 OA
ATOM      2  O   UNL     1      27.620 -23.831 -17.591  0.00  0.00    -0.197 OA
ATOM      3  O   UNL     1      28.658 -21.947 -17.002  0.00  0.00    -0.197 OA
ATOM      4  C   UNL     1      27.685 -22.777 -16.854  0.00  0.00    +0.592 C 
ENDROOT
TORSDOF 0
ENDMDL
MODEL 5
REMARK VINA RESULT:      -3.5      2.156      2.499
REMARK  Name = 19660
REMARK  0 active torsions:
REMARK  status: ('A' for Active; 'I' for Inactive)
REMARK                            x       y       z     vdW  Elec       q    Type
REMARK                         _______ _______ _______ _____ _____    ______ ____
ROOT
ATOM      1  O   UNL     1      27.583 -23.755 -17.672  0.00  0.00    -0.197 OA
ATOM      2  O   UNL     1      28.675 -21.939 -16.979  0.00  0.00    -0.197 OA
ATOM      3  O   UNL     1      26.775 -22.545 -15.981  0.00  0.00    -0.197 OA
ATOM      4  C   UNL     1      27.678 -22.746 -16.878  0.00  0.00    +0.592 C 
ENDROOT
TORSDOF 0
ENDMDL
MODEL 6
REMARK VINA RESULT:      -3.4      1.656      2.509
REMARK  Name = 19660
REMARK  0 active torsions:
REMARK  status: ('A' for Active; 'I' for Inactive)
REMARK                            x       y       z     vdW  Elec       q    Type
REMARK                         _______ _______ _______ _____ _____    ______ ____
ROOT
ATOM      1  O   UNL     1      28.771 -21.966 -16.960  0.00  0.00    -0.197 OA
ATOM      2  O   UNL     1      26.566 -21.901 -16.631  0.00  0.00    -0.197 OA
ATOM      3  O   UNL     1      27.483 -23.627 -17.706  0.00  0.00    -0.197 OA
ATOM      4  C   UNL     1      27.606 -22.498 -17.099  0.00  0.00    +0.592 C 
ENDROOT
TORSDOF 0
ENDMDL
MODEL 7
REMARK VINA RESULT:      -3.3     11.732     12.132
REMARK  Name = 19660
REMARK  0 active torsions:
REMARK  status: ('A' for Active; 'I' for Inactive)
REMARK                            x       y       z     vdW  Elec       q    Type
REMARK                         _______ _______ _______ _____ _____    ______ ____
ROOT
ATOM      1  O   UNL     1      34.977 -24.262 -11.825  0.00  0.00    -0.197 OA
ATOM      2  O   UNL     1      35.319 -24.573  -9.644  0.00  0.00    -0.197 OA
ATOM      3  O   UNL     1      37.050 -24.218 -11.004  0.00  0.00    -0.197 OA
ATOM      4  C   UNL     1      35.782 -24.351 -10.824  0.00  0.00    +0.592 C 
ENDROOT
TORSDOF 0
ENDMDL
MODEL 8
REMARK VINA RESULT:      -3.3     11.695     12.084
REMARK  Name = 19660
REMARK  0 active torsions:
REMARK  status: ('A' for Active; 'I' for Inactive)
REMARK                            x       y       z     vdW  Elec       q    Type
REMARK                         _______ _______ _______ _____ _____    ______ ____
ROOT
ATOM      1  O   UNL     1      37.033 -24.059 -10.902  0.00  0.00    -0.197 OA
ATOM      2  O   UNL     1      35.268 -24.908  -9.837  0.00  0.00    -0.197 OA
ATOM      3  O   UNL     1      34.994 -23.854 -11.783  0.00  0.00    -0.197 OA
ATOM      4  C   UNL     1      35.765 -24.274 -10.841  0.00  0.00    +0.592 C 
ENDROOT
TORSDOF 0
ENDMDL
MODEL 9
REMARK VINA RESULT:      -3.2     11.579     12.261
REMARK  Name = 19660
REMARK  0 active torsions:
REMARK  status: ('A' for Active; 'I' for Inactive)
REMARK                            x       y       z     vdW  Elec       q    Type
REMARK                         _______ _______ _______ _____ _____    ______ ____
ROOT
ATOM      1  O   UNL     1      36.228 -25.827 -14.861  0.00  0.00    -0.197 OA
ATOM      2  O   UNL     1      36.668 -27.419 -16.359  0.00  0.00    -0.197 OA
ATOM      3  O   UNL     1      38.041 -27.105 -14.629  0.00  0.00    -0.197 OA
ATOM      4  C   UNL     1      36.979 -26.784 -15.283  0.00  0.00    +0.592 C 
ENDROOT
TORSDOF 0
ENDMDL
