MODEL 1
REMARK VINA RESULT:      -8.5      0.000      0.000
REMARK  Name = 4165
REMARK  2 active torsions:
REMARK  status: ('A' for Active; 'I' for Inactive)
REMARK    1  A    between atoms: C_11  and  S_14
REMARK    2  A    between atoms: S_14  and  N_17
REMARK                            x       y       z     vdW  Elec       q    Type
REMARK                         _______ _______ _______ _____ _____    ______ ____
ROOT
ATOM      1  S   UNL     1      31.775 -24.139 -14.238  0.00  0.00    +0.008 S 
ATOM      2  O   UNL     1      31.415 -25.480 -13.820  0.00  0.00    -0.169 OA
ATOM      3  O   UNL     1      31.389 -22.973 -13.469  0.00  0.00    -0.169 OA
ATOM      4  C   UNL     1      31.185 -23.924 -15.897  0.00  0.00    +0.156 C 
ATOM      5  C   UNL     1      32.009 -22.887 -16.632  0.00  0.00    +0.030 C 
ATOM      6  C   UNL     1      33.441 -23.376 -16.828  0.00  0.00    +0.029 C 
ATOM      7  C   UNL     1      33.532 -24.092 -14.364  0.00  0.00    +0.103 C 
ATOM      8  C   UNL     1      34.168 -23.725 -15.555  0.00  0.00    -0.005 C 
ATOM      9  C   UNL     1      34.258 -24.440 -13.220  0.00  0.00    +0.038 C 
ATOM     10  C   UNL     1      35.571 -23.738 -15.574  0.00  0.00    -0.006 C 
ATOM     11  C   UNL     1      35.649 -24.431 -13.261  0.00  0.00    +0.119 C 
ATOM     12  C   UNL     1      36.307 -24.082 -14.437  0.00  0.00    -0.003 C 
ATOM     13  C   UNL     1      37.798 -24.070 -14.519  0.00  0.00    +0.032 C 
ENDROOT
BRANCH  11  14
ATOM     14  S   UNL     1      36.539 -24.870 -11.819  0.00  0.00    +0.057 S 
ATOM     15  O   UNL     1      37.096 -26.199 -12.014  0.00  0.00    -0.153 OA
ATOM     16  O   UNL     1      37.411 -23.761 -11.463  0.00  0.00    -0.153 OA
BRANCH  14  17
ATOM     17  N   UNL     1      35.273 -24.962 -10.677  0.00  0.00    -0.203 NA
ATOM     18  H   UNL     1      34.386 -24.747 -11.134  0.00  0.00    +0.144 HD
ATOM     19  H   UNL     1      35.440 -24.291  -9.927  0.00  0.00    +0.144 HD
ENDBRANCH  14  17
ENDBRANCH  11  14
TORSDOF 2
ENDMDL
MODEL 2
REMARK VINA RESULT:      -7.8      3.529      5.858
REMARK  Name = 4165
REMARK  2 active torsions:
REMARK  status: ('A' for Active; 'I' for Inactive)
REMARK    1  A    between atoms: C_11  and  S_14
REMARK    2  A    between atoms: S_14  and  N_17
REMARK                            x       y       z     vdW  Elec       q    Type
REMARK                         _______ _______ _______ _____ _____    ______ ____
ROOT
ATOM      1  S   UNL     1      36.940 -24.095 -14.361  0.00  0.00    +0.008 S 
ATOM      2  O   UNL     1      37.512 -25.157 -15.166  0.00  0.00    -0.169 OA
ATOM      3  O   UNL     1      37.591 -22.807 -14.226  0.00  0.00    -0.169 OA
ATOM      4  C   UNL     1      36.671 -24.748 -12.734  0.00  0.00    +0.156 C 
ATOM      5  C   UNL     1      35.554 -24.003 -12.032  0.00  0.00    +0.030 C 
ATOM      6  C   UNL     1      34.221 -24.244 -12.734  0.00  0.00    +0.029 C 
ATOM      7  C   UNL     1      35.330 -23.773 -15.001  0.00  0.00    +0.103 C 
ATOM      8  C   UNL     1      34.194 -23.852 -14.189  0.00  0.00    -0.005 C 
ATOM      9  C   UNL     1      35.243 -23.437 -16.355  0.00  0.00    +0.038 C 
ATOM     10  C   UNL     1      32.948 -23.603 -14.786  0.00  0.00    -0.006 C 
ATOM     11  C   UNL     1      33.997 -23.180 -16.921  0.00  0.00    +0.119 C 
ATOM     12  C   UNL     1      32.849 -23.265 -16.138  0.00  0.00    -0.003 C 
ATOM     13  C   UNL     1      31.495 -23.005 -16.713  0.00  0.00    +0.032 C 
ENDROOT
BRANCH  11  14
ATOM     14  S   UNL     1      33.910 -22.761 -18.618  0.00  0.00    +0.057 S 
ATOM     15  O   UNL     1      33.793 -23.991 -19.385  0.00  0.00    -0.153 OA
ATOM     16  O   UNL     1      32.920 -21.707 -18.780  0.00  0.00    -0.153 OA
BRANCH  14  17
ATOM     17  N   UNL     1      35.465 -22.100 -18.865  0.00  0.00    -0.203 NA
ATOM     18  H   UNL     1      35.446 -21.481 -19.677  0.00  0.00    +0.144 HD
ATOM     19  H   UNL     1      36.134 -22.853 -19.028  0.00  0.00    +0.144 HD
ENDBRANCH  14  17
ENDBRANCH  11  14
TORSDOF 2
ENDMDL
MODEL 3
REMARK VINA RESULT:      -7.6      1.674      5.089
REMARK  Name = 4165
REMARK  2 active torsions:
REMARK  status: ('A' for Active; 'I' for Inactive)
REMARK    1  A    between atoms: C_11  and  S_14
REMARK    2  A    between atoms: S_14  and  N_17
REMARK                            x       y       z     vdW  Elec       q    Type
REMARK                         _______ _______ _______ _____ _____    ______ ____
ROOT
ATOM      1  S   UNL     1      35.897 -24.331 -12.760  0.00  0.00    +0.008 S 
ATOM      2  O   UNL     1      35.454 -23.648 -11.561  0.00  0.00    -0.169 OA
ATOM      3  O   UNL     1      36.103 -25.766 -12.786  0.00  0.00    -0.169 OA
ATOM      4  C   UNL     1      37.398 -23.551 -13.293  0.00  0.00    +0.156 C 
ATOM      5  C   UNL     1      37.595 -23.723 -14.785  0.00  0.00    +0.030 C 
ATOM      6  C   UNL     1      36.514 -22.976 -15.562  0.00  0.00    +0.029 C 
ATOM      7  C   UNL     1      34.719 -23.976 -14.022  0.00  0.00    +0.103 C 
ATOM      8  C   UNL     1      35.103 -23.388 -15.232  0.00  0.00    -0.005 C 
ATOM      9  C   UNL     1      33.387 -24.307 -13.755  0.00  0.00    +0.038 C 
ATOM     10  C   UNL     1      34.096 -23.118 -16.173  0.00  0.00    -0.006 C 
ATOM     11  C   UNL     1      32.410 -24.042 -14.710  0.00  0.00    +0.119 C 
ATOM     12  C   UNL     1      32.762 -23.446 -15.917  0.00  0.00    -0.003 C 
ATOM     13  C   UNL     1      31.738 -23.139 -16.961  0.00  0.00    +0.032 C 
ENDROOT
BRANCH  11  14
ATOM     14  S   UNL     1      30.748 -24.464 -14.357  0.00  0.00    +0.057 S 
ATOM     15  O   UNL     1      29.931 -23.272 -14.520  0.00  0.00    -0.153 OA
ATOM     16  O   UNL     1      30.418 -25.678 -15.088  0.00  0.00    -0.153 OA
BRANCH  14  17
ATOM     17  N   UNL     1      30.858 -24.836 -12.694  0.00  0.00    -0.203 NA
ATOM     18  H   UNL     1      31.612 -24.292 -12.273  0.00  0.00    +0.144 HD
ATOM     19  H   UNL     1      31.053 -25.831 -12.579  0.00  0.00    +0.144 HD
ENDBRANCH  14  17
ENDBRANCH  11  14
TORSDOF 2
ENDMDL
MODEL 4
REMARK VINA RESULT:      -7.6     11.406     12.756
REMARK  Name = 4165
REMARK  2 active torsions:
REMARK  status: ('A' for Active; 'I' for Inactive)
REMARK    1  A    between atoms: C_11  and  S_14
REMARK    2  A    between atoms: S_14  and  N_17
REMARK                            x       y       z     vdW  Elec       q    Type
REMARK                         _______ _______ _______ _____ _____    ______ ____
ROOT
ATOM      1  S   UNL     1      33.183 -13.686 -23.755  0.00  0.00    +0.008 S 
ATOM      2  O   UNL     1      32.152 -13.696 -22.737  0.00  0.00    -0.169 OA
ATOM      3  O   UNL     1      34.370 -12.863 -23.628  0.00  0.00    -0.169 OA
ATOM      4  C   UNL     1      32.402 -13.289 -25.298  0.00  0.00    +0.156 C 
ATOM      5  C   UNL     1      33.192 -13.852 -26.462  0.00  0.00    +0.030 C 
ATOM      6  C   UNL     1      33.173 -15.377 -26.439  0.00  0.00    +0.029 C 
ATOM      7  C   UNL     1      33.746 -15.345 -23.936  0.00  0.00    +0.103 C 
ATOM      8  C   UNL     1      33.711 -15.996 -25.175  0.00  0.00    -0.005 C 
ATOM      9  C   UNL     1      34.225 -15.980 -22.787  0.00  0.00    +0.038 C 
ATOM     10  C   UNL     1      34.157 -17.326 -25.225  0.00  0.00    -0.006 C 
ATOM     11  C   UNL     1      34.675 -17.295 -22.865  0.00  0.00    +0.119 C 
ATOM     12  C   UNL     1      34.639 -17.970 -24.082  0.00  0.00    -0.003 C 
ATOM     13  C   UNL     1      35.106 -19.384 -24.201  0.00  0.00    +0.032 C 
ENDROOT
BRANCH  11  14
ATOM     14  S   UNL     1      35.271 -18.071 -21.414  0.00  0.00    +0.057 S 
ATOM     15  O   UNL     1      34.283 -19.046 -20.979  0.00  0.00    -0.153 OA
ATOM     16  O   UNL     1      36.647 -18.486 -21.647  0.00  0.00    -0.153 OA
BRANCH  14  17
ATOM     17  N   UNL     1      35.270 -16.757 -20.323  0.00  0.00    -0.203 NA
ATOM     18  H   UNL     1      34.486 -16.854 -19.676  0.00  0.00    +0.144 HD
ATOM     19  H   UNL     1      35.176 -15.884 -20.842  0.00  0.00    +0.144 HD
ENDBRANCH  14  17
ENDBRANCH  11  14
TORSDOF 2
ENDMDL
MODEL 5
REMARK VINA RESULT:      -7.4      2.393      3.092
REMARK  Name = 4165
REMARK  2 active torsions:
REMARK  status: ('A' for Active; 'I' for Inactive)
REMARK    1  A    between atoms: C_11  and  S_14
REMARK    2  A    between atoms: S_14  and  N_17
REMARK                            x       y       z     vdW  Elec       q    Type
REMARK                         _______ _______ _______ _____ _____    ______ ____
ROOT
ATOM      1  S   UNL     1      31.188 -24.264 -13.631  0.00  0.00    +0.008 S 
ATOM      2  O   UNL     1      31.665 -25.561 -13.194  0.00  0.00    -0.169 OA
ATOM      3  O   UNL     1      31.091 -23.142 -12.719  0.00  0.00    -0.169 OA
ATOM      4  C   UNL     1      29.594 -24.508 -14.373  0.00  0.00    +0.156 C 
ATOM      5  C   UNL     1      29.300 -23.421 -15.385  0.00  0.00    +0.030 C 
ATOM      6  C   UNL     1      30.258 -23.511 -16.569  0.00  0.00    +0.029 C 
ATOM      7  C   UNL     1      32.235 -23.745 -14.949  0.00  0.00    +0.103 C 
ATOM      8  C   UNL     1      31.718 -23.421 -16.208  0.00  0.00    -0.005 C 
ATOM      9  C   UNL     1      33.605 -23.675 -14.678  0.00  0.00    +0.038 C 
ATOM     10  C   UNL     1      32.626 -23.039 -17.207  0.00  0.00    -0.006 C 
ATOM     11  C   UNL     1      34.485 -23.281 -15.682  0.00  0.00    +0.119 C 
ATOM     12  C   UNL     1      33.997 -22.965 -16.947  0.00  0.00    -0.003 C 
ATOM     13  C   UNL     1      34.913 -22.546 -18.050  0.00  0.00    +0.032 C 
ENDROOT
BRANCH  11  14
ATOM     14  S   UNL     1      36.196 -23.200 -15.322  0.00  0.00    +0.057 S 
ATOM     15  O   UNL     1      36.798 -24.474 -15.683  0.00  0.00    -0.153 OA
ATOM     16  O   UNL     1      36.724 -21.963 -15.878  0.00  0.00    -0.153 OA
BRANCH  14  17
ATOM     17  N   UNL     1      36.160 -23.068 -13.620  0.00  0.00    -0.203 NA
ATOM     18  H   UNL     1      35.329 -22.545 -13.337  0.00  0.00    +0.144 HD
ATOM     19  H   UNL     1      36.995 -22.578 -13.298  0.00  0.00    +0.144 HD
ENDBRANCH  14  17
ENDBRANCH  11  14
TORSDOF 2
ENDMDL
MODEL 6
REMARK VINA RESULT:      -7.4      4.464      5.175
REMARK  Name = 4165
REMARK  2 active torsions:
REMARK  status: ('A' for Active; 'I' for Inactive)
REMARK    1  A    between atoms: C_11  and  S_14
REMARK    2  A    between atoms: S_14  and  N_17
REMARK                            x       y       z     vdW  Elec       q    Type
REMARK                         _______ _______ _______ _____ _____    ______ ____
ROOT
ATOM      1  S   UNL     1      30.323 -23.869 -15.660  0.00  0.00    +0.008 S 
ATOM      2  O   UNL     1      29.592 -22.687 -16.075  0.00  0.00    -0.169 OA
ATOM      3  O   UNL     1      30.064 -25.169 -16.247  0.00  0.00    -0.169 OA
ATOM      4  C   UNL     1      30.142 -24.015 -13.901  0.00  0.00    +0.156 C 
ATOM      5  C   UNL     1      31.310 -24.770 -13.301  0.00  0.00    +0.030 C 
ATOM      6  C   UNL     1      32.603 -23.977 -13.458  0.00  0.00    +0.029 C 
ATOM      7  C   UNL     1      32.033 -23.537 -15.922  0.00  0.00    +0.103 C 
ATOM      8  C   UNL     1      32.961 -23.629 -14.879  0.00  0.00    -0.005 C 
ATOM      9  C   UNL     1      32.416 -23.176 -17.217  0.00  0.00    +0.038 C 
ATOM     10  C   UNL     1      34.300 -23.324 -15.171  0.00  0.00    -0.006 C 
ATOM     11  C   UNL     1      33.753 -22.893 -17.484  0.00  0.00    +0.119 C 
ATOM     12  C   UNL     1      34.695 -22.965 -16.462  0.00  0.00    -0.003 C 
ATOM     13  C   UNL     1      36.136 -22.659 -16.711  0.00  0.00    +0.032 C 
ENDROOT
BRANCH  11  14
ATOM     14  S   UNL     1      34.212 -22.444 -19.112  0.00  0.00    +0.057 S 
ATOM     15  O   UNL     1      35.313 -21.498 -19.030  0.00  0.00    -0.153 OA
ATOM     16  O   UNL     1      34.355 -23.659 -19.900  0.00  0.00    -0.153 OA
BRANCH  14  17
ATOM     17  N   UNL     1      32.809 -21.617 -19.625  0.00  0.00    -0.203 NA
ATOM     18  H   UNL     1      32.015 -22.259 -19.619  0.00  0.00    +0.144 HD
ATOM     19  H   UNL     1      32.949 -21.260 -20.570  0.00  0.00    +0.144 HD
ENDBRANCH  14  17
ENDBRANCH  11  14
TORSDOF 2
ENDMDL
MODEL 7
REMARK VINA RESULT:      -7.2      2.793      3.405
REMARK  Name = 4165
REMARK  2 active torsions:
REMARK  status: ('A' for Active; 'I' for Inactive)
REMARK    1  A    between atoms: C_11  and  S_14
REMARK    2  A    between atoms: S_14  and  N_17
REMARK                            x       y       z     vdW  Elec       q    Type
REMARK                         _______ _______ _______ _____ _____    ______ ____
ROOT
ATOM      1  S   UNL     1      33.703 -23.107 -17.560  0.00  0.00    +0.008 S 
ATOM      2  O   UNL     1      34.520 -21.989 -17.989  0.00  0.00    -0.169 OA
ATOM      3  O   UNL     1      33.670 -24.353 -18.299  0.00  0.00    -0.169 OA
ATOM      4  C   UNL     1      32.036 -22.517 -17.405  0.00  0.00    +0.156 C 
ATOM      5  C   UNL     1      31.261 -23.350 -16.406  0.00  0.00    +0.030 C 
ATOM      6  C   UNL     1      31.829 -23.176 -15.001  0.00  0.00    +0.029 C 
ATOM      7  C   UNL     1      34.202 -23.513 -15.921  0.00  0.00    +0.103 C 
ATOM      8  C   UNL     1      33.288 -23.529 -14.862  0.00  0.00    -0.005 C 
ATOM      9  C   UNL     1      35.554 -23.817 -15.728  0.00  0.00    +0.038 C 
ATOM     10  C   UNL     1      33.776 -23.841 -13.584  0.00  0.00    -0.006 C 
ATOM     11  C   UNL     1      36.010 -24.137 -14.453  0.00  0.00    +0.119 C 
ATOM     12  C   UNL     1      35.124 -24.147 -13.380  0.00  0.00    -0.003 C 
ATOM     13  C   UNL     1      35.581 -24.478 -11.997  0.00  0.00    +0.032 C 
ENDROOT
BRANCH  11  14
ATOM     14  S   UNL     1      37.706 -24.515 -14.233  0.00  0.00    +0.057 S 
ATOM     15  O   UNL     1      38.191 -23.774 -13.080  0.00  0.00    -0.153 OA
ATOM     16  O   UNL     1      37.865 -25.960 -14.288  0.00  0.00    -0.153 OA
BRANCH  14  17
ATOM     17  N   UNL     1      38.372 -23.833 -15.650  0.00  0.00    -0.203 NA
ATOM     18  H   UNL     1      39.070 -24.470 -16.037  0.00  0.00    +0.144 HD
ATOM     19  H   UNL     1      38.813 -22.941 -15.424  0.00  0.00    +0.144 HD
ENDBRANCH  14  17
ENDBRANCH  11  14
TORSDOF 2
ENDMDL
MODEL 8
REMARK VINA RESULT:      -6.7      3.939      5.641
REMARK  Name = 4165
REMARK  2 active torsions:
REMARK  status: ('A' for Active; 'I' for Inactive)
REMARK    1  A    between atoms: C_11  and  S_14
REMARK    2  A    between atoms: S_14  and  N_17
REMARK                            x       y       z     vdW  Elec       q    Type
REMARK                         _______ _______ _______ _____ _____    ______ ____
ROOT
ATOM      1  S   UNL     1      34.680 -24.186 -14.008  0.00  0.00    +0.008 S 
ATOM      2  O   UNL     1      33.476 -23.485 -13.604  0.00  0.00    -0.169 OA
ATOM      3  O   UNL     1      34.662 -25.594 -14.351  0.00  0.00    -0.169 OA
ATOM      4  C   UNL     1      35.887 -23.947 -12.729  0.00  0.00    +0.156 C 
ATOM      5  C   UNL     1      37.291 -24.061 -13.286  0.00  0.00    +0.030 C 
ATOM      6  C   UNL     1      37.579 -22.922 -14.259  0.00  0.00    +0.029 C 
ATOM      7  C   UNL     1      35.323 -23.339 -15.412  0.00  0.00    +0.103 C 
ATOM      8  C   UNL     1      36.627 -22.832 -15.424  0.00  0.00    -0.005 C 
ATOM      9  C   UNL     1      34.470 -23.198 -16.511  0.00  0.00    +0.038 C 
ATOM     10  C   UNL     1      37.051 -22.151 -16.576  0.00  0.00    -0.006 C 
ATOM     11  C   UNL     1      34.919 -22.530 -17.647  0.00  0.00    +0.119 C 
ATOM     12  C   UNL     1      36.208 -22.005 -17.680  0.00  0.00    -0.003 C 
ATOM     13  C   UNL     1      36.719 -21.276 -18.880  0.00  0.00    +0.032 C 
ENDROOT
BRANCH  11  14
ATOM     14  S   UNL     1      33.835 -22.364 -19.012  0.00  0.00    +0.057 S 
ATOM     15  O   UNL     1      34.030 -21.043 -19.590  0.00  0.00    -0.153 OA
ATOM     16  O   UNL     1      33.964 -23.549 -19.847  0.00  0.00    -0.153 OA
BRANCH  14  17
ATOM     17  N   UNL     1      32.320 -22.407 -18.226  0.00  0.00    -0.203 NA
ATOM     18  H   UNL     1      32.385 -21.911 -17.336  0.00  0.00    +0.144 HD
ATOM     19  H   UNL     1      32.051 -23.376 -18.056  0.00  0.00    +0.144 HD
ENDBRANCH  14  17
ENDBRANCH  11  14
TORSDOF 2
ENDMDL
MODEL 9
REMARK VINA RESULT:      -6.6     11.257     13.114
REMARK  Name = 4165
REMARK  2 active torsions:
REMARK  status: ('A' for Active; 'I' for Inactive)
REMARK    1  A    between atoms: C_11  and  S_14
REMARK    2  A    between atoms: S_14  and  N_17
REMARK                            x       y       z     vdW  Elec       q    Type
REMARK                         _______ _______ _______ _____ _____    ______ ____
ROOT
ATOM      1  S   UNL     1      34.577 -17.800 -21.374  0.00  0.00    +0.008 S 
ATOM      2  O   UNL     1      35.510 -17.110 -20.504  0.00  0.00    -0.169 OA
ATOM      3  O   UNL     1      33.312 -18.309 -20.881  0.00  0.00    -0.169 OA
ATOM      4  C   UNL     1      35.452 -19.145 -22.131  0.00  0.00    +0.156 C 
ATOM      5  C   UNL     1      34.827 -19.514 -23.460  0.00  0.00    +0.030 C 
ATOM      6  C   UNL     1      34.986 -18.378 -24.466  0.00  0.00    +0.029 C 
ATOM      7  C   UNL     1      34.191 -16.699 -22.693  0.00  0.00    +0.103 C 
ATOM      8  C   UNL     1      34.397 -17.062 -24.029  0.00  0.00    -0.005 C 
ATOM      9  C   UNL     1      33.671 -15.449 -22.343  0.00  0.00    +0.038 C 
ATOM     10  C   UNL     1      34.083 -16.115 -25.017  0.00  0.00    -0.006 C 
ATOM     11  C   UNL     1      33.355 -14.532 -23.342  0.00  0.00    +0.119 C 
ATOM     12  C   UNL     1      33.563 -14.863 -24.678  0.00  0.00    -0.003 C 
ATOM     13  C   UNL     1      33.243 -13.901 -25.775  0.00  0.00    +0.032 C 
ENDROOT
BRANCH  11  14
ATOM     14  S   UNL     1      32.707 -12.973 -22.882  0.00  0.00    +0.057 S 
ATOM     15  O   UNL     1      33.722 -11.964 -23.140  0.00  0.00    -0.153 OA
ATOM     16  O   UNL     1      31.381 -12.837 -23.468  0.00  0.00    -0.153 OA
BRANCH  14  17
ATOM     17  N   UNL     1      32.544 -13.178 -21.195  0.00  0.00    -0.203 NA
ATOM     18  H   UNL     1      31.632 -13.588 -20.989  0.00  0.00    +0.144 HD
ATOM     19  H   UNL     1      32.622 -12.272 -20.733  0.00  0.00    +0.144 HD
ENDBRANCH  14  17
ENDBRANCH  11  14
TORSDOF 2
ENDMDL
