MODEL 1
REMARK VINA RESULT:     -10.1      0.000      0.000
REMARK  Name = 6918191
REMARK  3 active torsions:
REMARK  status: ('A' for Active; 'I' for Inactive)
REMARK    1  A    between atoms: C_1  and  C_5
REMARK    2  A    between atoms: C_1  and  C_13
REMARK    3  A    between atoms: C_1  and  N_19
REMARK                            x       y       z     vdW  Elec       q    Type
REMARK                         _______ _______ _______ _____ _____    ______ ____
ROOT
ATOM      1  C   UNL     1      34.740 -17.982 -21.820  0.00  0.00    +0.142 C 
ENDROOT
BRANCH   1   5
ATOM      2  N   UNL     1      35.515 -21.859 -18.739  0.00  0.00    -0.200 N 
ATOM      3  N   UNL     1      33.492 -22.594 -18.850  0.00  0.00    -0.146 NA
ATOM      4  N   UNL     1      34.683 -22.819 -18.304  0.00  0.00    -0.045 NA
ATOM      5  C   UNL     1      34.353 -19.204 -21.052  0.00  0.00    -0.001 C 
ATOM      6  C   UNL     1      35.314 -19.854 -20.270  0.00  0.00    +0.015 C 
ATOM      7  C   UNL     1      34.887 -20.986 -19.579  0.00  0.00    +0.084 C 
ATOM      8  C   UNL     1      33.038 -19.674 -21.128  0.00  0.00    -0.022 C 
ATOM      9  C   UNL     1      33.590 -21.476 -19.635  0.00  0.00    +0.099 C 
ATOM     10  C   UNL     1      32.636 -20.816 -20.423  0.00  0.00    +0.075 C 
ATOM     11  C   UNL     1      36.892 -21.844 -18.310  0.00  0.00    +0.139 C 
ENDBRANCH   1   5
BRANCH   1  13
ATOM     12 CL   UNL     1      32.182 -12.778 -20.273  0.00  0.00    -0.082 Cl
ATOM     13  C   UNL     1      34.085 -16.648 -21.425  0.00  0.00    +0.002 C 
ATOM     14  C   UNL     1      34.841 -15.505 -21.496  0.00  0.00    -0.001 C 
ATOM     15  C   UNL     1      32.775 -16.663 -21.018  0.00  0.00    -0.001 C 
ATOM     16  C   UNL     1      34.246 -14.295 -21.136  0.00  0.00    +0.011 C 
ATOM     17  C   UNL     1      32.180 -15.453 -20.658  0.00  0.00    +0.011 C 
ATOM     18  C   UNL     1      32.916 -14.270 -20.717  0.00  0.00    +0.058 C 
ENDBRANCH   1  13
BRANCH   1  19
ATOM     19  N   UNL     1      34.692 -18.207 -23.300  0.00  0.00    -0.184 N 
ATOM     20  N   UNL     1      34.847 -19.429 -23.757  0.00  0.00    -0.153 NA
ATOM     21  N   UNL     1      34.524 -17.866 -25.396  0.00  0.00    -0.203 NA
ATOM     22  C   UNL     1      34.504 -17.275 -24.224  0.00  0.00    +0.186 C 
ATOM     23  C   UNL     1      34.736 -19.173 -25.063  0.00  0.00    +0.218 C 
ENDBRANCH   1  19
TORSDOF 3
ENDMDL
MODEL 2
REMARK VINA RESULT:      -9.6      6.506      8.969
REMARK  Name = 6918191
REMARK  3 active torsions:
REMARK  status: ('A' for Active; 'I' for Inactive)
REMARK    1  A    between atoms: C_1  and  C_5
REMARK    2  A    between atoms: C_1  and  C_13
REMARK    3  A    between atoms: C_1  and  N_19
REMARK                            x       y       z     vdW  Elec       q    Type
REMARK                         _______ _______ _______ _____ _____    ______ ____
ROOT
ATOM      1  C   UNL     1      34.652 -23.498 -15.115  0.00  0.00    +0.142 C 
ENDROOT
BRANCH   1   5
ATOM      2  N   UNL     1      29.698 -23.488 -15.875  0.00  0.00    -0.200 N 
ATOM      3  N   UNL     1      29.266 -24.914 -14.318  0.00  0.00    -0.146 NA
ATOM      4  N   UNL     1      28.710 -24.160 -15.260  0.00  0.00    -0.045 NA
ATOM      5  C   UNL     1      33.239 -23.910 -14.858  0.00  0.00    -0.001 C 
ATOM      6  C   UNL     1      32.214 -23.361 -15.637  0.00  0.00    +0.015 C 
ATOM      7  C   UNL     1      30.920 -23.788 -15.347  0.00  0.00    +0.084 C 
ATOM      8  C   UNL     1      32.967 -24.837 -13.847  0.00  0.00    -0.022 C 
ATOM      9  C   UNL     1      30.620 -24.705 -14.350  0.00  0.00    +0.099 C 
ATOM     10  C   UNL     1      31.655 -25.248 -13.577  0.00  0.00    +0.075 C 
ATOM     11  C   UNL     1      29.395 -22.580 -16.954  0.00  0.00    +0.139 C 
ENDBRANCH   1   5
BRANCH   1  13
ATOM     12 CL   UNL     1      35.948 -21.095 -20.461  0.00  0.00    -0.082 Cl
ATOM     13  C   UNL     1      34.982 -22.881 -16.484  0.00  0.00    +0.002 C 
ATOM     14  C   UNL     1      34.043 -22.965 -17.481  0.00  0.00    -0.001 C 
ATOM     15  C   UNL     1      36.203 -22.277 -16.647  0.00  0.00    -0.001 C 
ATOM     16  C   UNL     1      34.344 -22.407 -18.723  0.00  0.00    +0.011 C 
ATOM     17  C   UNL     1      36.505 -21.718 -17.890  0.00  0.00    +0.011 C 
ATOM     18  C   UNL     1      35.576 -21.783 -18.927  0.00  0.00    +0.058 C 
ENDBRANCH   1  13
BRANCH   1  19
ATOM     19  N   UNL     1      35.629 -24.569 -14.739  0.00  0.00    -0.184 N 
ATOM     20  N   UNL     1      35.805 -25.579 -15.560  0.00  0.00    -0.153 NA
ATOM     21  N   UNL     1      37.086 -25.697 -13.669  0.00  0.00    -0.203 NA
ATOM     22  C   UNL     1      36.356 -24.607 -13.630  0.00  0.00    +0.186 C 
ATOM     23  C   UNL     1      36.717 -26.256 -14.859  0.00  0.00    +0.218 C 
ENDBRANCH   1  19
TORSDOF 3
ENDMDL
MODEL 3
REMARK VINA RESULT:      -9.3      1.006      1.966
REMARK  Name = 6918191
REMARK  3 active torsions:
REMARK  status: ('A' for Active; 'I' for Inactive)
REMARK    1  A    between atoms: C_1  and  C_5
REMARK    2  A    between atoms: C_1  and  C_13
REMARK    3  A    between atoms: C_1  and  N_19
REMARK                            x       y       z     vdW  Elec       q    Type
REMARK                         _______ _______ _______ _____ _____    ______ ____
ROOT
ATOM      1  C   UNL     1      35.224 -17.260 -22.489  0.00  0.00    +0.142 C 
ENDROOT
BRANCH   1   5
ATOM      2  N   UNL     1      34.071 -21.157 -19.557  0.00  0.00    -0.200 N 
ATOM      3  N   UNL     1      36.117 -21.676 -19.121  0.00  0.00    -0.146 NA
ATOM      4  N   UNL     1      34.855 -22.019 -18.887  0.00  0.00    -0.045 NA
ATOM      5  C   UNL     1      35.520 -18.423 -21.600  0.00  0.00    -0.001 C 
ATOM      6  C   UNL     1      34.460 -19.160 -21.062  0.00  0.00    +0.015 C 
ATOM      7  C   UNL     1      34.804 -20.232 -20.242  0.00  0.00    +0.084 C 
ATOM      8  C   UNL     1      36.850 -18.754 -21.322  0.00  0.00    -0.022 C 
ATOM      9  C   UNL     1      36.114 -20.584 -19.949  0.00  0.00    +0.099 C 
ATOM     10  C   UNL     1      37.168 -19.837 -20.493  0.00  0.00    +0.075 C 
ATOM     11  C   UNL     1      32.636 -21.282 -19.492  0.00  0.00    +0.139 C 
ENDBRANCH   1   5
BRANCH   1  13
ATOM     12 CL   UNL     1      31.990 -12.746 -20.209  0.00  0.00    -0.082 Cl
ATOM     13  C   UNL     1      34.395 -16.103 -21.907  0.00  0.00    +0.002 C 
ATOM     14  C   UNL     1      34.603 -14.839 -22.399  0.00  0.00    -0.001 C 
ATOM     15  C   UNL     1      33.485 -16.388 -20.920  0.00  0.00    -0.001 C 
ATOM     16  C   UNL     1      33.852 -13.790 -21.869  0.00  0.00    +0.011 C 
ATOM     17  C   UNL     1      32.733 -15.339 -20.389  0.00  0.00    +0.011 C 
ATOM     18  C   UNL     1      32.917 -14.041 -20.864  0.00  0.00    +0.058 C 
ENDBRANCH   1  13
BRANCH   1  19
ATOM     19  N   UNL     1      34.710 -17.691 -23.829  0.00  0.00    -0.184 N 
ATOM     20  N   UNL     1      34.652 -18.975 -24.099  0.00  0.00    -0.153 NA
ATOM     21  N   UNL     1      33.923 -17.641 -25.808  0.00  0.00    -0.203 NA
ATOM     22  C   UNL     1      34.295 -16.888 -24.800  0.00  0.00    +0.186 C 
ATOM     23  C   UNL     1      34.157 -18.901 -25.337  0.00  0.00    +0.218 C 
ENDBRANCH   1  19
TORSDOF 3
ENDMDL
MODEL 4
REMARK VINA RESULT:      -9.3      6.349      9.046
REMARK  Name = 6918191
REMARK  3 active torsions:
REMARK  status: ('A' for Active; 'I' for Inactive)
REMARK    1  A    between atoms: C_1  and  C_5
REMARK    2  A    between atoms: C_1  and  C_13
REMARK    3  A    between atoms: C_1  and  N_19
REMARK                            x       y       z     vdW  Elec       q    Type
REMARK                         _______ _______ _______ _____ _____    ______ ____
ROOT
ATOM      1  C   UNL     1      33.721 -24.195 -15.541  0.00  0.00    +0.142 C 
ENDROOT
BRANCH   1   5
ATOM      2  N   UNL     1      37.995 -25.572 -13.314  0.00  0.00    -0.200 N 
ATOM      3  N   UNL     1      37.413 -24.893 -11.354  0.00  0.00    -0.146 NA
ATOM      4  N   UNL     1      38.397 -25.469 -12.037  0.00  0.00    -0.045 NA
ATOM      5  C   UNL     1      34.662 -24.356 -14.391  0.00  0.00    -0.001 C 
ATOM      6  C   UNL     1      35.911 -24.947 -14.607  0.00  0.00    +0.015 C 
ATOM      7  C   UNL     1      36.741 -25.066 -13.494  0.00  0.00    +0.084 C 
ATOM      8  C   UNL     1      34.277 -23.912 -13.122  0.00  0.00    -0.022 C 
ATOM      9  C   UNL     1      36.387 -24.635 -12.224  0.00  0.00    +0.099 C 
ATOM     10  C   UNL     1      35.132 -24.045 -12.019  0.00  0.00    +0.075 C 
ATOM     11  C   UNL     1      38.863 -26.164 -14.302  0.00  0.00    +0.139 C 
ENDBRANCH   1   5
BRANCH   1  13
ATOM     12 CL   UNL     1      35.533 -20.870 -20.197  0.00  0.00    -0.082 Cl
ATOM     13  C   UNL     1      34.184 -23.342 -16.733  0.00  0.00    +0.002 C 
ATOM     14  C   UNL     1      33.350 -23.230 -17.817  0.00  0.00    -0.001 C 
ATOM     15  C   UNL     1      35.412 -22.733 -16.660  0.00  0.00    -0.001 C 
ATOM     16  C   UNL     1      33.771 -22.457 -18.899  0.00  0.00    +0.011 C 
ATOM     17  C   UNL     1      35.833 -21.960 -17.742  0.00  0.00    +0.011 C 
ATOM     18  C   UNL     1      35.013 -21.823 -18.861  0.00  0.00    +0.058 C 
ENDBRANCH   1  13
BRANCH   1  19
ATOM     19  N   UNL     1      32.342 -23.820 -15.092  0.00  0.00    -0.184 N 
ATOM     20  N   UNL     1      32.076 -22.554 -14.863  0.00  0.00    -0.153 NA
ATOM     21  N   UNL     1      30.296 -23.947 -14.511  0.00  0.00    -0.203 NA
ATOM     22  C   UNL     1      31.332 -24.656 -14.897  0.00  0.00    +0.186 C 
ATOM     23  C   UNL     1      30.796 -22.677 -14.505  0.00  0.00    +0.218 C 
ENDBRANCH   1  19
TORSDOF 3
ENDMDL
MODEL 5
REMARK VINA RESULT:      -9.3      6.038      8.911
REMARK  Name = 6918191
REMARK  3 active torsions:
REMARK  status: ('A' for Active; 'I' for Inactive)
REMARK    1  A    between atoms: C_1  and  C_5
REMARK    2  A    between atoms: C_1  and  C_13
REMARK    3  A    between atoms: C_1  and  N_19
REMARK                            x       y       z     vdW  Elec       q    Type
REMARK                         _______ _______ _______ _____ _____    ______ ____
ROOT
ATOM      1  C   UNL     1      31.606 -10.206 -22.390  0.00  0.00    +0.142 C 
ENDROOT
BRANCH   1   5
ATOM      2  N   UNL     1      33.085 -14.986 -22.109  0.00  0.00    -0.200 N 
ATOM      3  N   UNL     1      34.356 -14.892 -23.847  0.00  0.00    -0.146 NA
ATOM      4  N   UNL     1      33.919 -15.698 -22.885  0.00  0.00    -0.045 NA
ATOM      5  C   UNL     1      32.361 -11.420 -22.822  0.00  0.00    -0.001 C 
ATOM      6  C   UNL     1      32.230 -12.604 -22.089  0.00  0.00    +0.015 C 
ATOM      7  C   UNL     1      32.959 -13.699 -22.546  0.00  0.00    +0.084 C 
ATOM      8  C   UNL     1      33.183 -11.351 -23.952  0.00  0.00    -0.022 C 
ATOM      9  C   UNL     1      33.783 -13.662 -23.663  0.00  0.00    +0.099 C 
ATOM     10  C   UNL     1      33.906 -12.469 -24.389  0.00  0.00    +0.075 C 
ATOM     11  C   UNL     1      32.449 -15.603 -20.971  0.00  0.00    +0.139 C 
ENDBRANCH   1   5
BRANCH   1  13
ATOM     12 CL   UNL     1      32.766  -5.029 -25.197  0.00  0.00    -0.082 Cl
ATOM     13  C   UNL     1      31.904  -8.880 -23.110  0.00  0.00    +0.002 C 
ATOM     14  C   UNL     1      33.210  -8.470 -23.206  0.00  0.00    -0.001 C 
ATOM     15  C   UNL     1      30.850  -8.168 -23.623  0.00  0.00    -0.001 C 
ATOM     16  C   UNL     1      33.480  -7.267 -23.858  0.00  0.00    +0.011 C 
ATOM     17  C   UNL     1      31.119  -6.964 -24.276  0.00  0.00    +0.011 C 
ATOM     18  C   UNL     1      32.433  -6.514 -24.393  0.00  0.00    +0.058 C 
ENDBRANCH   1  13
BRANCH   1  19
ATOM     19  N   UNL     1      31.609 -10.041 -20.901  0.00  0.00    -0.184 N 
ATOM     20  N   UNL     1      30.858 -10.838 -20.176  0.00  0.00    -0.153 NA
ATOM     21  N   UNL     1      32.047  -9.321 -18.944  0.00  0.00    -0.203 NA
ATOM     22  C   UNL     1      32.312  -9.148 -20.217  0.00  0.00    +0.186 C 
ATOM     23  C   UNL     1      31.159 -10.358 -18.967  0.00  0.00    +0.218 C 
ENDBRANCH   1  19
TORSDOF 3
ENDMDL
MODEL 6
REMARK VINA RESULT:      -9.2      6.168      9.110
REMARK  Name = 6918191
REMARK  3 active torsions:
REMARK  status: ('A' for Active; 'I' for Inactive)
REMARK    1  A    between atoms: C_1  and  C_5
REMARK    2  A    between atoms: C_1  and  C_13
REMARK    3  A    between atoms: C_1  and  N_19
REMARK                            x       y       z     vdW  Elec       q    Type
REMARK                         _______ _______ _______ _____ _____    ______ ____
ROOT
ATOM      1  C   UNL     1      34.093 -24.387 -15.751  0.00  0.00    +0.142 C 
ENDROOT
BRANCH   1   5
ATOM      2  N   UNL     1      37.392 -24.059 -11.993  0.00  0.00    -0.200 N 
ATOM      3  N   UNL     1      38.445 -25.867 -12.508  0.00  0.00    -0.146 NA
ATOM      4  N   UNL     1      38.411 -24.861 -11.641  0.00  0.00    -0.045 NA
ATOM      5  C   UNL     1      35.257 -24.828 -14.926  0.00  0.00    -0.001 C 
ATOM      6  C   UNL     1      35.647 -24.056 -13.825  0.00  0.00    +0.015 C 
ATOM      7  C   UNL     1      36.738 -24.523 -13.097  0.00  0.00    +0.084 C 
ATOM      8  C   UNL     1      35.935 -26.003 -15.266  0.00  0.00    -0.022 C 
ATOM      9  C   UNL     1      37.430 -25.685 -13.411  0.00  0.00    +0.099 C 
ATOM     10  C   UNL     1      37.030 -26.449 -14.516  0.00  0.00    +0.075 C 
ATOM     11  C   UNL     1      37.107 -22.871 -11.227  0.00  0.00    +0.139 C 
ENDBRANCH   1   5
BRANCH   1  13
ATOM     12 CL   UNL     1      35.149 -20.585 -20.274  0.00  0.00    -0.082 Cl
ATOM     13  C   UNL     1      34.362 -23.412 -16.909  0.00  0.00    +0.002 C 
ATOM     14  C   UNL     1      33.396 -23.260 -17.872  0.00  0.00    -0.001 C 
ATOM     15  C   UNL     1      35.558 -22.739 -16.928  0.00  0.00    -0.001 C 
ATOM     16  C   UNL     1      33.641 -22.377 -18.923  0.00  0.00    +0.011 C 
ATOM     17  C   UNL     1      35.804 -21.855 -17.980  0.00  0.00    +0.011 C 
ATOM     18  C   UNL     1      34.846 -21.675 -18.976  0.00  0.00    +0.058 C 
ENDBRANCH   1  13
BRANCH   1  19
ATOM     19  N   UNL     1      32.940 -23.940 -14.907  0.00  0.00    -0.184 N 
ATOM     20  N   UNL     1      32.539 -22.693 -14.995  0.00  0.00    -0.153 NA
ATOM     21  N   UNL     1      31.330 -23.943 -13.510  0.00  0.00    -0.203 NA
ATOM     22  C   UNL     1      32.260 -24.694 -14.053  0.00  0.00    +0.186 C 
ATOM     23  C   UNL     1      31.538 -22.736 -14.113  0.00  0.00    +0.218 C 
ENDBRANCH   1  19
TORSDOF 3
ENDMDL
MODEL 7
REMARK VINA RESULT:      -8.9      3.644      5.685
REMARK  Name = 6918191
REMARK  3 active torsions:
REMARK  status: ('A' for Active; 'I' for Inactive)
REMARK    1  A    between atoms: C_1  and  C_5
REMARK    2  A    between atoms: C_1  and  C_13
REMARK    3  A    between atoms: C_1  and  N_19
REMARK                            x       y       z     vdW  Elec       q    Type
REMARK                         _______ _______ _______ _____ _____    ______ ____
ROOT
ATOM      1  C   UNL     1      34.088 -12.990 -24.079  0.00  0.00    +0.142 C 
ENDROOT
BRANCH   1   5
ATOM      2  N   UNL     1      35.091 -17.725 -22.777  0.00  0.00    -0.200 N 
ATOM      3  N   UNL     1      34.945 -17.372 -20.656  0.00  0.00    -0.146 NA
ATOM      4  N   UNL     1      35.181 -18.308 -21.570  0.00  0.00    -0.045 NA
ATOM      5  C   UNL     1      34.305 -14.118 -23.123  0.00  0.00    -0.001 C 
ATOM      6  C   UNL     1      34.601 -15.391 -23.623  0.00  0.00    +0.015 C 
ATOM      7  C   UNL     1      34.794 -16.397 -22.679  0.00  0.00    +0.084 C 
ATOM      8  C   UNL     1      34.210 -13.880 -21.748  0.00  0.00    -0.022 C 
ATOM      9  C   UNL     1      34.706 -16.192 -21.309  0.00  0.00    +0.099 C 
ATOM     10  C   UNL     1      34.408 -14.911 -20.821  0.00  0.00    +0.075 C 
ATOM     11  C   UNL     1      35.300 -18.502 -23.974  0.00  0.00    +0.139 C 
ENDBRANCH   1   5
BRANCH   1  13
ATOM     12 CL   UNL     1      31.499  -7.995 -21.987  0.00  0.00    -0.082 Cl
ATOM     13  C   UNL     1      33.425 -11.711 -23.541  0.00  0.00    +0.002 C 
ATOM     14  C   UNL     1      32.286 -11.835 -22.785  0.00  0.00    -0.001 C 
ATOM     15  C   UNL     1      34.002 -10.504 -23.844  0.00  0.00    -0.001 C 
ATOM     16  C   UNL     1      31.685 -10.674 -22.300  0.00  0.00    +0.011 C 
ATOM     17  C   UNL     1      33.401  -9.342 -23.358  0.00  0.00    +0.011 C 
ATOM     18  C   UNL     1      32.242  -9.428 -22.586  0.00  0.00    +0.058 C 
ENDBRANCH   1  13
BRANCH   1  19
ATOM     19  N   UNL     1      33.454 -13.449 -25.356  0.00  0.00    -0.184 N 
ATOM     20  N   UNL     1      33.602 -12.713 -26.434  0.00  0.00    -0.153 NA
ATOM     21  N   UNL     1      32.360 -14.603 -26.775  0.00  0.00    -0.203 NA
ATOM     22  C   UNL     1      32.738 -14.553 -25.519  0.00  0.00    +0.186 C 
ATOM     23  C   UNL     1      32.909 -13.464 -27.292  0.00  0.00    +0.218 C 
ENDBRANCH   1  19
TORSDOF 3
ENDMDL
MODEL 8
REMARK VINA RESULT:      -8.8      6.230      8.847
REMARK  Name = 6918191
REMARK  3 active torsions:
REMARK  status: ('A' for Active; 'I' for Inactive)
REMARK    1  A    between atoms: C_1  and  C_5
REMARK    2  A    between atoms: C_1  and  C_13
REMARK    3  A    between atoms: C_1  and  N_19
REMARK                            x       y       z     vdW  Elec       q    Type
REMARK                         _______ _______ _______ _____ _____    ______ ____
ROOT
ATOM      1  C   UNL     1      34.044 -23.160 -15.795  0.00  0.00    +0.142 C 
ENDROOT
BRANCH   1   5
ATOM      2  N   UNL     1      37.310 -24.199 -12.138  0.00  0.00    -0.200 N 
ATOM      3  N   UNL     1      37.955 -26.072 -12.987  0.00  0.00    -0.146 NA
ATOM      4  N   UNL     1      38.131 -25.247 -11.960  0.00  0.00    -0.045 NA
ATOM      5  C   UNL     1      35.081 -23.975 -15.093  0.00  0.00    -0.001 C 
ATOM      6  C   UNL     1      35.619 -23.507 -13.889  0.00  0.00    +0.015 C 
ATOM      7  C   UNL     1      36.580 -24.315 -13.285  0.00  0.00    +0.084 C 
ATOM      8  C   UNL     1      35.493 -25.190 -15.650  0.00  0.00    -0.022 C 
ATOM      9  C   UNL     1      37.009 -25.524 -13.814  0.00  0.00    +0.099 C 
ATOM     10  C   UNL     1      36.463 -25.982 -15.021  0.00  0.00    +0.075 C 
ATOM     11  C   UNL     1      37.281 -23.129 -11.172  0.00  0.00    +0.139 C 
ENDBRANCH   1   5
BRANCH   1  13
ATOM     12 CL   UNL     1      28.290 -24.700 -15.053  0.00  0.00    -0.082 Cl
ATOM     13  C   UNL     1      32.570 -23.554 -15.603  0.00  0.00    +0.002 C 
ATOM     14  C   UNL     1      32.268 -24.514 -14.670  0.00  0.00    -0.001 C 
ATOM     15  C   UNL     1      31.624 -22.929 -16.375  0.00  0.00    -0.001 C 
ATOM     16  C   UNL     1      30.931 -24.873 -14.498  0.00  0.00    +0.011 C 
ATOM     17  C   UNL     1      30.286 -23.286 -16.203  0.00  0.00    +0.011 C 
ATOM     18  C   UNL     1      29.941 -24.258 -15.265  0.00  0.00    +0.058 C 
ENDBRANCH   1  13
BRANCH   1  19
ATOM     19  N   UNL     1      34.378 -22.947 -17.239  0.00  0.00    -0.184 N 
ATOM     20  N   UNL     1      33.643 -23.542 -18.151  0.00  0.00    -0.153 NA
ATOM     21  N   UNL     1      35.331 -22.264 -19.019  0.00  0.00    -0.203 NA
ATOM     22  C   UNL     1      35.367 -22.198 -17.708  0.00  0.00    +0.186 C 
ATOM     23  C   UNL     1      34.268 -23.092 -19.242  0.00  0.00    +0.218 C 
ENDBRANCH   1  19
TORSDOF 3
ENDMDL
MODEL 9
REMARK VINA RESULT:      -8.8      5.144      7.728
REMARK  Name = 6918191
REMARK  3 active torsions:
REMARK  status: ('A' for Active; 'I' for Inactive)
REMARK    1  A    between atoms: C_1  and  C_5
REMARK    2  A    between atoms: C_1  and  C_13
REMARK    3  A    between atoms: C_1  and  N_19
REMARK                            x       y       z     vdW  Elec       q    Type
REMARK                         _______ _______ _______ _____ _____    ______ ____
ROOT
ATOM      1  C   UNL     1      34.078 -23.411 -16.962  0.00  0.00    +0.142 C 
ENDROOT
BRANCH   1   5
ATOM      2  N   UNL     1      37.370 -25.870 -14.092  0.00  0.00    -0.200 N 
ATOM      3  N   UNL     1      38.440 -24.103 -13.477  0.00  0.00    -0.146 NA
ATOM      4  N   UNL     1      38.396 -25.425 -13.348  0.00  0.00    -0.045 NA
ATOM      5  C   UNL     1      35.244 -23.535 -16.037  0.00  0.00    -0.001 C 
ATOM      6  C   UNL     1      35.625 -24.803 -15.582  0.00  0.00    +0.015 C 
ATOM      7  C   UNL     1      36.721 -24.849 -14.723  0.00  0.00    +0.084 C 
ATOM      8  C   UNL     1      35.934 -22.384 -15.643  0.00  0.00    -0.022 C 
ATOM      9  C   UNL     1      37.425 -23.725 -14.315  0.00  0.00    +0.099 C 
ATOM     10  C   UNL     1      37.033 -22.460 -14.777  0.00  0.00    +0.075 C 
ATOM     11  C   UNL     1      37.073 -27.280 -14.148  0.00  0.00    +0.139 C 
ENDBRANCH   1   5
BRANCH   1  13
ATOM     12 CL   UNL     1      34.536 -19.567 -21.549  0.00  0.00    -0.082 Cl
ATOM     13  C   UNL     1      34.196 -22.428 -18.138  0.00  0.00    +0.002 C 
ATOM     14  C   UNL     1      35.450 -22.093 -18.584  0.00  0.00    -0.001 C 
ATOM     15  C   UNL     1      33.042 -21.928 -18.686  0.00  0.00    -0.001 C 
ATOM     16  C   UNL     1      35.557 -21.200 -19.650  0.00  0.00    +0.011 C 
ATOM     17  C   UNL     1      33.148 -21.034 -19.753  0.00  0.00    +0.011 C 
ATOM     18  C   UNL     1      34.405 -20.671 -20.234  0.00  0.00    +0.058 C 
ENDBRANCH   1  13
BRANCH   1  19
ATOM     19  N   UNL     1      32.788 -23.238 -16.222  0.00  0.00    -0.184 N 
ATOM     20  N   UNL     1      31.662 -23.493 -16.848  0.00  0.00    -0.153 NA
ATOM     21  N   UNL     1      31.376 -22.818 -14.682  0.00  0.00    -0.203 NA
ATOM     22  C   UNL     1      32.658 -22.843 -14.962  0.00  0.00    +0.186 C 
ATOM     23  C   UNL     1      30.810 -23.220 -15.857  0.00  0.00    +0.218 C 
ENDBRANCH   1  19
TORSDOF 3
ENDMDL
