MODEL 1
REMARK VINA RESULT:      -9.0      0.000      0.000
REMARK  Name = 46936196
REMARK  9 active torsions:
REMARK  status: ('A' for Active; 'I' for Inactive)
REMARK    1  A    between atoms: N_2  and  C_21
REMARK    2  A    between atoms: C_3  and  C_7
REMARK    3  A    between atoms: N_6  and  S_11
REMARK    4  A    between atoms: S_11  and  C_14
REMARK    5  A    between atoms: C_21  and  C_23
REMARK    6  A    between atoms: C_21  and  C_27
REMARK    7  A    between atoms: C_23  and  O_24
REMARK    8  A    between atoms: O_24  and  C_25
REMARK    9  A    between atoms: C_27  and  C_28
REMARK                            x       y       z     vdW  Elec       q    Type
REMARK                         _______ _______ _______ _____ _____    ______ ____
ROOT
ATOM      1  O   UNL     1      34.464 -22.006 -14.833  0.00  0.00    -0.274 OA
ATOM      2  N   UNL     1      33.051 -23.788 -15.330  0.00  0.00    -0.295 N 
ATOM      3  C   UNL     1      34.185 -23.009 -15.485  0.00  0.00    +0.240 C 
ATOM      4  H   UNL     1      32.938 -24.571 -15.915  0.00  0.00    +0.150 HD
ENDROOT
BRANCH   3   7
ATOM      5  S   UNL     1      37.480 -22.358 -15.602  0.00  0.00    -0.137 S 
ATOM      6  N   UNL     1      35.046 -22.521 -17.637  0.00  0.00    -0.146 NA
ATOM      7  C   UNL     1      35.095 -23.537 -16.549  0.00  0.00    +0.166 C 
ATOM      8  C   UNL     1      36.362 -22.059 -18.148  0.00  0.00    +0.108 C 
ATOM      9  C   UNL     1      36.490 -23.829 -16.011  0.00  0.00    +0.085 C 
ATOM     10  C   UNL     1      37.114 -21.323 -17.051  0.00  0.00    +0.077 C 
BRANCH   6  11
ATOM     11  S   UNL     1      33.811 -22.717 -18.808  0.00  0.00    +0.064 S 
ATOM     12  O   UNL     1      32.533 -22.613 -18.147  0.00  0.00    -0.153 OA
ATOM     13  O   UNL     1      34.146 -23.849 -19.637  0.00  0.00    -0.153 OA
BRANCH  11  14
ATOM     14  C   UNL     1      34.064 -21.249 -19.750  0.00  0.00    +0.122 C 
ATOM     15  C   UNL     1      32.986 -20.411 -20.037  0.00  0.00    +0.020 C 
ATOM     16  C   UNL     1      35.341 -20.926 -20.210  0.00  0.00    +0.020 C 
ATOM     17  C   UNL     1      33.186 -19.251 -20.785  0.00  0.00    -0.003 C 
ATOM     18  C   UNL     1      35.539 -19.766 -20.958  0.00  0.00    -0.003 C 
ATOM     19  C   UNL     1      34.462 -18.927 -21.246  0.00  0.00    -0.022 C 
ATOM     20  C   UNL     1      34.674 -17.687 -22.045  0.00  0.00    +0.031 C 
ENDBRANCH  11  14
ENDBRANCH   6  11
ENDBRANCH   3   7
BRANCH   2  21
ATOM     21  C   UNL     1      32.026 -23.505 -14.351  0.00  0.00    +0.176 C 
BRANCH  21  23
ATOM     22  O   UNL     1      32.197 -22.704 -12.078  0.00  0.00    -0.248 OA
ATOM     23  C   UNL     1      32.566 -23.509 -12.927  0.00  0.00    +0.335 C 
BRANCH  23  24
ATOM     24  O   UNL     1      33.497 -24.484 -12.734  0.00  0.00    -0.447 OA
BRANCH  24  25
ATOM     25  C   UNL     1      34.680 -24.083 -12.034  0.00  0.00    +0.209 C 
ATOM     26  C   UNL     1      35.872 -24.800 -12.630  0.00  0.00    +0.051 C 
ENDBRANCH  24  25
ENDBRANCH  23  24
ENDBRANCH  21  23
BRANCH  21  27
ATOM     27  C   UNL     1      30.825 -24.449 -14.513  0.00  0.00    +0.057 C 
BRANCH  27  28
ATOM     28  C   UNL     1      29.676 -23.877 -15.314  0.00  0.00    -0.020 C 
ATOM     29  C   UNL     1      29.106 -24.621 -16.347  0.00  0.00    -0.004 C 
ATOM     30  C   UNL     1      29.187 -22.605 -15.019  0.00  0.00    -0.004 C 
ATOM     31  C   UNL     1      28.046 -24.094 -17.085  0.00  0.00    -0.000 C 
ATOM     32  C   UNL     1      28.127 -22.077 -15.757  0.00  0.00    -0.000 C 
ATOM     33  C   UNL     1      27.557 -22.821 -16.789  0.00  0.00    -0.000 C 
ENDBRANCH  27  28
ENDBRANCH  21  27
ENDBRANCH   2  21
TORSDOF 9
ENDMDL
MODEL 2
REMARK VINA RESULT:      -8.7      5.637     10.807
REMARK  Name = 46936196
REMARK  9 active torsions:
REMARK  status: ('A' for Active; 'I' for Inactive)
REMARK    1  A    between atoms: N_2  and  C_21
REMARK    2  A    between atoms: C_3  and  C_7
REMARK    3  A    between atoms: N_6  and  S_11
REMARK    4  A    between atoms: S_11  and  C_14
REMARK    5  A    between atoms: C_21  and  C_23
REMARK    6  A    between atoms: C_21  and  C_27
REMARK    7  A    between atoms: C_23  and  O_24
REMARK    8  A    between atoms: O_24  and  C_25
REMARK    9  A    between atoms: C_27  and  C_28
REMARK                            x       y       z     vdW  Elec       q    Type
REMARK                         _______ _______ _______ _____ _____    ______ ____
ROOT
ATOM      1  O   UNL     1      33.148 -16.554 -22.496  0.00  0.00    -0.274 OA
ATOM      2  N   UNL     1      34.574 -14.742 -22.818  0.00  0.00    -0.295 N 
ATOM      3  C   UNL     1      34.222 -16.081 -22.860  0.00  0.00    +0.240 C 
ATOM      4  H   UNL     1      35.468 -14.483 -23.139  0.00  0.00    +0.150 HD
ENDROOT
BRANCH   3   7
ATOM      5  S   UNL     1      33.802 -18.039 -25.558  0.00  0.00    -0.137 S 
ATOM      6  N   UNL     1      35.204 -18.231 -22.713  0.00  0.00    -0.146 NA
ATOM      7  C   UNL     1      35.307 -16.934 -23.438  0.00  0.00    +0.166 C 
ATOM      8  C   UNL     1      35.173 -19.447 -23.567  0.00  0.00    +0.108 C 
ATOM      9  C   UNL     1      35.198 -17.040 -24.954  0.00  0.00    +0.085 C 
ATOM     10  C   UNL     1      33.912 -19.450 -24.416  0.00  0.00    +0.077 C 
BRANCH   6  11
ATOM     11  S   UNL     1      36.091 -18.359 -21.254  0.00  0.00    +0.064 S 
ATOM     12  O   UNL     1      35.787 -17.215 -20.431  0.00  0.00    -0.153 OA
ATOM     13  O   UNL     1      37.449 -18.721 -21.576  0.00  0.00    -0.153 OA
BRANCH  11  14
ATOM     14  C   UNL     1      35.298 -19.768 -20.551  0.00  0.00    +0.122 C 
ATOM     15  C   UNL     1      33.904 -19.839 -20.518  0.00  0.00    +0.020 C 
ATOM     16  C   UNL     1      36.062 -20.810 -20.026  0.00  0.00    +0.020 C 
ATOM     17  C   UNL     1      33.277 -20.952 -19.959  0.00  0.00    -0.003 C 
ATOM     18  C   UNL     1      35.434 -21.922 -19.467  0.00  0.00    -0.003 C 
ATOM     19  C   UNL     1      34.041 -21.995 -19.434  0.00  0.00    -0.022 C 
ATOM     20  C   UNL     1      33.369 -23.184 -18.836  0.00  0.00    +0.031 C 
ENDBRANCH  11  14
ENDBRANCH   6  11
ENDBRANCH   3   7
BRANCH   2  21
ATOM     21  C   UNL     1      33.693 -13.708 -22.324  0.00  0.00    +0.176 C 
BRANCH  21  23
ATOM     22  O   UNL     1      33.810 -14.671 -20.111  0.00  0.00    -0.248 OA
ATOM     23  C   UNL     1      33.173 -14.008 -20.925  0.00  0.00    +0.335 C 
BRANCH  23  24
ATOM     24  O   UNL     1      31.940 -13.472 -20.709  0.00  0.00    -0.447 OA
BRANCH  24  25
ATOM     25  C   UNL     1      31.921 -12.198 -20.057  0.00  0.00    +0.209 C 
ATOM     26  C   UNL     1      30.922 -11.301 -20.756  0.00  0.00    +0.051 C 
ENDBRANCH  24  25
ENDBRANCH  23  24
ENDBRANCH  21  23
BRANCH  21  27
ATOM     27  C   UNL     1      32.552 -13.429 -23.315  0.00  0.00    +0.057 C 
BRANCH  27  28
ATOM     28  C   UNL     1      32.986 -13.290 -24.756  0.00  0.00    -0.020 C 
ATOM     29  C   UNL     1      33.645 -12.135 -25.180  0.00  0.00    -0.004 C 
ATOM     30  C   UNL     1      32.728 -14.317 -25.664  0.00  0.00    -0.004 C 
ATOM     31  C   UNL     1      34.045 -12.008 -26.509  0.00  0.00    -0.000 C 
ATOM     32  C   UNL     1      33.129 -14.191 -26.994  0.00  0.00    -0.000 C 
ATOM     33  C   UNL     1      33.788 -13.036 -27.416  0.00  0.00    -0.000 C 
ENDBRANCH  27  28
ENDBRANCH  21  27
ENDBRANCH   2  21
TORSDOF 9
ENDMDL
MODEL 3
REMARK VINA RESULT:      -8.7      1.265      4.657
REMARK  Name = 46936196
REMARK  9 active torsions:
REMARK  status: ('A' for Active; 'I' for Inactive)
REMARK    1  A    between atoms: N_2  and  C_21
REMARK    2  A    between atoms: C_3  and  C_7
REMARK    3  A    between atoms: N_6  and  S_11
REMARK    4  A    between atoms: S_11  and  C_14
REMARK    5  A    between atoms: C_21  and  C_23
REMARK    6  A    between atoms: C_21  and  C_27
REMARK    7  A    between atoms: C_23  and  O_24
REMARK    8  A    between atoms: O_24  and  C_25
REMARK    9  A    between atoms: C_27  and  C_28
REMARK                            x       y       z     vdW  Elec       q    Type
REMARK                         _______ _______ _______ _____ _____    ______ ____
ROOT
ATOM      1  O   UNL     1      33.938 -22.480 -14.996  0.00  0.00    -0.274 OA
ATOM      2  N   UNL     1      34.274 -24.726 -14.485  0.00  0.00    -0.295 N 
ATOM      3  C   UNL     1      34.420 -23.580 -15.250  0.00  0.00    +0.240 C 
ATOM      4  H   UNL     1      34.710 -25.553 -14.793  0.00  0.00    +0.150 HD
ENDROOT
BRANCH   3   7
ATOM      5  S   UNL     1      37.570 -22.446 -15.527  0.00  0.00    -0.137 S 
ATOM      6  N   UNL     1      34.984 -22.662 -17.359  0.00  0.00    -0.146 NA
ATOM      7  C   UNL     1      35.277 -23.809 -16.455  0.00  0.00    +0.166 C 
ATOM      8  C   UNL     1      36.168 -21.943 -17.895  0.00  0.00    +0.108 C 
ATOM      9  C   UNL     1      36.746 -23.970 -16.084  0.00  0.00    +0.085 C 
ATOM     10  C   UNL     1      36.925 -21.274 -16.759  0.00  0.00    +0.077 C 
BRANCH   6  11
ATOM     11  S   UNL     1      33.672 -22.864 -18.443  0.00  0.00    +0.064 S 
ATOM     12  O   UNL     1      32.444 -22.626 -17.724  0.00  0.00    -0.153 OA
ATOM     13  O   UNL     1      33.887 -24.073 -19.198  0.00  0.00    -0.153 OA
BRANCH  11  14
ATOM     14  C   UNL     1      33.960 -21.490 -19.509  0.00  0.00    +0.122 C 
ATOM     15  C   UNL     1      32.910 -20.630 -19.837  0.00  0.00    +0.020 C 
ATOM     16  C   UNL     1      35.235 -21.263 -20.026  0.00  0.00    +0.020 C 
ATOM     17  C   UNL     1      33.137 -19.545 -20.683  0.00  0.00    -0.003 C 
ATOM     18  C   UNL     1      35.461 -20.178 -20.873  0.00  0.00    -0.003 C 
ATOM     19  C   UNL     1      34.412 -19.318 -21.201  0.00  0.00    -0.022 C 
ATOM     20  C   UNL     1      34.654 -18.158 -22.106  0.00  0.00    +0.031 C 
ENDBRANCH  11  14
ENDBRANCH   6  11
ENDBRANCH   3   7
BRANCH   2  21
ATOM     21  C   UNL     1      33.513 -24.765 -13.257  0.00  0.00    +0.176 C 
BRANCH  21  23
ATOM     22  O   UNL     1      31.665 -23.263 -12.848  0.00  0.00    -0.248 OA
ATOM     23  C   UNL     1      32.092 -24.250 -13.439  0.00  0.00    +0.335 C 
BRANCH  23  24
ATOM     24  O   UNL     1      31.374 -25.017 -14.306  0.00  0.00    -0.447 OA
BRANCH  24  25
ATOM     25  C   UNL     1      30.380 -24.328 -15.070  0.00  0.00    +0.209 C 
ATOM     26  C   UNL     1      29.060 -25.058 -14.935  0.00  0.00    +0.051 C 
ENDBRANCH  24  25
ENDBRANCH  23  24
ENDBRANCH  21  23
BRANCH  21  27
ATOM     27  C   UNL     1      34.248 -24.036 -12.122  0.00  0.00    +0.057 C 
BRANCH  27  28
ATOM     28  C   UNL     1      35.752 -24.189 -12.143  0.00  0.00    -0.020 C 
ATOM     29  C   UNL     1      36.571 -23.093 -11.871  0.00  0.00    -0.004 C 
ATOM     30  C   UNL     1      36.323 -25.429 -12.434  0.00  0.00    -0.004 C 
ATOM     31  C   UNL     1      37.958 -23.235 -11.891  0.00  0.00    -0.000 C 
ATOM     32  C   UNL     1      37.710 -25.572 -12.453  0.00  0.00    -0.000 C 
ATOM     33  C   UNL     1      38.527 -24.474 -12.182  0.00  0.00    -0.000 C 
ENDBRANCH  27  28
ENDBRANCH  21  27
ENDBRANCH   2  21
TORSDOF 9
ENDMDL
MODEL 4
REMARK VINA RESULT:      -8.6      6.812     12.340
REMARK  Name = 46936196
REMARK  9 active torsions:
REMARK  status: ('A' for Active; 'I' for Inactive)
REMARK    1  A    between atoms: N_2  and  C_21
REMARK    2  A    between atoms: C_3  and  C_7
REMARK    3  A    between atoms: N_6  and  S_11
REMARK    4  A    between atoms: S_11  and  C_14
REMARK    5  A    between atoms: C_21  and  C_23
REMARK    6  A    between atoms: C_21  and  C_27
REMARK    7  A    between atoms: C_23  and  O_24
REMARK    8  A    between atoms: O_24  and  C_25
REMARK    9  A    between atoms: C_27  and  C_28
REMARK                            x       y       z     vdW  Elec       q    Type
REMARK                         _______ _______ _______ _____ _____    ______ ____
ROOT
ATOM      1  O   UNL     1      34.907 -15.174 -24.032  0.00  0.00    -0.274 OA
ATOM      2  N   UNL     1      32.813 -14.172 -23.857  0.00  0.00    -0.295 N 
ATOM      3  C   UNL     1      33.782 -15.110 -23.544  0.00  0.00    +0.240 C 
ATOM      4  H   UNL     1      31.945 -14.224 -23.397  0.00  0.00    +0.150 HD
ENDROOT
BRANCH   3   7
ATOM      5  S   UNL     1      33.287 -14.246 -20.335  0.00  0.00    -0.137 S 
ATOM      6  N   UNL     1      34.570 -16.667 -21.942  0.00  0.00    -0.146 NA
ATOM      7  C   UNL     1      33.322 -16.070 -22.492  0.00  0.00    +0.166 C 
ATOM      8  C   UNL     1      34.692 -16.661 -20.462  0.00  0.00    +0.108 C 
ATOM      9  C   UNL     1      32.429 -15.393 -21.458  0.00  0.00    +0.085 C 
ATOM     10  C   UNL     1      34.767 -15.230 -19.954  0.00  0.00    +0.077 C 
BRANCH   6  11
ATOM     11  S   UNL     1      35.161 -18.063 -22.740  0.00  0.00    +0.064 S 
ATOM     12  O   UNL     1      36.602 -17.997 -22.772  0.00  0.00    -0.153 OA
ATOM     13  O   UNL     1      34.385 -18.266 -23.938  0.00  0.00    -0.153 OA
BRANCH  11  14
ATOM     14  C   UNL     1      34.693 -19.291 -21.565  0.00  0.00    +0.122 C 
ATOM     15  C   UNL     1      33.343 -19.549 -21.326  0.00  0.00    +0.020 C 
ATOM     16  C   UNL     1      35.673 -20.004 -20.873  0.00  0.00    +0.020 C 
ATOM     17  C   UNL     1      32.973 -20.519 -20.395  0.00  0.00    -0.003 C 
ATOM     18  C   UNL     1      35.302 -20.974 -19.942  0.00  0.00    -0.003 C 
ATOM     19  C   UNL     1      33.952 -21.232 -19.702  0.00  0.00    -0.022 C 
ATOM     20  C   UNL     1      33.556 -22.269 -18.706  0.00  0.00    +0.031 C 
ENDBRANCH  11  14
ENDBRANCH   6  11
ENDBRANCH   3   7
BRANCH   2  21
ATOM     21  C   UNL     1      33.017 -13.119 -24.827  0.00  0.00    +0.176 C 
BRANCH  21  23
ATOM     22  O   UNL     1      32.942 -14.836 -26.526  0.00  0.00    -0.248 OA
ATOM     23  C   UNL     1      33.121 -13.654 -26.249  0.00  0.00    +0.335 C 
BRANCH  23  24
ATOM     24  O   UNL     1      33.446 -12.678 -27.142  0.00  0.00    -0.447 OA
BRANCH  24  25
ATOM     25  C   UNL     1      34.780 -12.727 -27.657  0.00  0.00    +0.209 C 
ATOM     26  C   UNL     1      35.442 -11.383 -27.439  0.00  0.00    +0.051 C 
ENDBRANCH  24  25
ENDBRANCH  23  24
ENDBRANCH  21  23
BRANCH  21  27
ATOM     27  C   UNL     1      34.220 -12.240 -24.452  0.00  0.00    +0.057 C 
BRANCH  27  28
ATOM     28  C   UNL     1      33.863 -10.851 -23.976  0.00  0.00    -0.020 C 
ATOM     29  C   UNL     1      34.719  -9.781 -24.236  0.00  0.00    -0.004 C 
ATOM     30  C   UNL     1      32.676 -10.638 -23.275  0.00  0.00    -0.004 C 
ATOM     31  C   UNL     1      34.389  -8.499 -23.797  0.00  0.00    -0.000 C 
ATOM     32  C   UNL     1      32.344  -9.356 -22.835  0.00  0.00    -0.000 C 
ATOM     33  C   UNL     1      33.201  -8.287 -23.096  0.00  0.00    -0.000 C 
ENDBRANCH  27  28
ENDBRANCH  21  27
ENDBRANCH   2  21
TORSDOF 9
ENDMDL
MODEL 5
REMARK VINA RESULT:      -8.6      1.210      2.065
REMARK  Name = 46936196
REMARK  9 active torsions:
REMARK  status: ('A' for Active; 'I' for Inactive)
REMARK    1  A    between atoms: N_2  and  C_21
REMARK    2  A    between atoms: C_3  and  C_7
REMARK    3  A    between atoms: N_6  and  S_11
REMARK    4  A    between atoms: S_11  and  C_14
REMARK    5  A    between atoms: C_21  and  C_23
REMARK    6  A    between atoms: C_21  and  C_27
REMARK    7  A    between atoms: C_23  and  O_24
REMARK    8  A    between atoms: O_24  and  C_25
REMARK    9  A    between atoms: C_27  and  C_28
REMARK                            x       y       z     vdW  Elec       q    Type
REMARK                         _______ _______ _______ _____ _____    ______ ____
ROOT
ATOM      1  O   UNL     1      33.869 -22.201 -15.425  0.00  0.00    -0.274 OA
ATOM      2  N   UNL     1      34.656 -24.164 -14.453  0.00  0.00    -0.295 N 
ATOM      3  C   UNL     1      34.549 -23.223 -15.462  0.00  0.00    +0.240 C 
ATOM      4  H   UNL     1      35.236 -24.946 -14.601  0.00  0.00    +0.150 HD
ENDROOT
BRANCH   3   7
ATOM      5  S   UNL     1      37.731 -22.206 -15.827  0.00  0.00    -0.137 S 
ATOM      6  N   UNL     1      35.133 -22.481 -17.635  0.00  0.00    -0.146 NA
ATOM      7  C   UNL     1      35.395 -23.566 -16.648  0.00  0.00    +0.166 C 
ATOM      8  C   UNL     1      36.337 -21.840 -18.224  0.00  0.00    +0.108 C 
ATOM      9  C   UNL     1      36.860 -23.742 -16.268  0.00  0.00    +0.085 C 
ATOM     10  C   UNL     1      37.117 -21.111 -17.142  0.00  0.00    +0.077 C 
BRANCH   6  11
ATOM     11  S   UNL     1      33.813 -22.723 -18.699  0.00  0.00    +0.064 S 
ATOM     12  O   UNL     1      32.589 -22.582 -17.950  0.00  0.00    -0.153 OA
ATOM     13  O   UNL     1      34.081 -23.893 -19.499  0.00  0.00    -0.153 OA
BRANCH  11  14
ATOM     14  C   UNL     1      33.997 -21.301 -19.723  0.00  0.00    +0.122 C 
ATOM     15  C   UNL     1      35.235 -21.010 -20.297  0.00  0.00    +0.020 C 
ATOM     16  C   UNL     1      32.906 -20.464 -19.958  0.00  0.00    +0.020 C 
ATOM     17  C   UNL     1      35.381 -19.882 -21.105  0.00  0.00    -0.003 C 
ATOM     18  C   UNL     1      33.053 -19.336 -20.765  0.00  0.00    -0.003 C 
ATOM     19  C   UNL     1      34.290 -19.045 -21.340  0.00  0.00    -0.022 C 
ATOM     20  C   UNL     1      34.447 -17.840 -22.203  0.00  0.00    +0.031 C 
ENDBRANCH  11  14
ENDBRANCH   6  11
ENDBRANCH   3   7
BRANCH   2  21
ATOM     21  C   UNL     1      33.957 -24.054 -13.192  0.00  0.00    +0.176 C 
BRANCH  21  23
ATOM     22  O   UNL     1      34.753 -25.135 -11.183  0.00  0.00    -0.248 OA
ATOM     23  C   UNL     1      34.886 -24.227 -11.998  0.00  0.00    +0.335 C 
BRANCH  23  24
ATOM     24  O   UNL     1      35.843 -23.259 -11.946  0.00  0.00    -0.447 OA
BRANCH  24  25
ATOM     25  C   UNL     1      37.131 -23.683 -11.490  0.00  0.00    +0.209 C 
ATOM     26  C   UNL     1      37.867 -24.344 -12.636  0.00  0.00    +0.051 C 
ENDBRANCH  24  25
ENDBRANCH  23  24
ENDBRANCH  21  23
BRANCH  21  27
ATOM     27  C   UNL     1      32.759 -25.014 -13.133  0.00  0.00    +0.057 C 
BRANCH  27  28
ATOM     28  C   UNL     1      31.533 -24.539 -13.880  0.00  0.00    -0.020 C 
ATOM     29  C   UNL     1      31.235 -23.177 -13.941  0.00  0.00    -0.004 C 
ATOM     30  C   UNL     1      30.698 -25.463 -14.509  0.00  0.00    -0.004 C 
ATOM     31  C   UNL     1      30.104 -22.740 -14.630  0.00  0.00    -0.000 C 
ATOM     32  C   UNL     1      29.567 -25.026 -15.199  0.00  0.00    -0.000 C 
ATOM     33  C   UNL     1      29.271 -23.665 -15.259  0.00  0.00    -0.000 C 
ENDBRANCH  27  28
ENDBRANCH  21  27
ENDBRANCH   2  21
TORSDOF 9
ENDMDL
MODEL 6
REMARK VINA RESULT:      -8.4      7.597     12.932
REMARK  Name = 46936196
REMARK  9 active torsions:
REMARK  status: ('A' for Active; 'I' for Inactive)
REMARK    1  A    between atoms: N_2  and  C_21
REMARK    2  A    between atoms: C_3  and  C_7
REMARK    3  A    between atoms: N_6  and  S_11
REMARK    4  A    between atoms: S_11  and  C_14
REMARK    5  A    between atoms: C_21  and  C_23
REMARK    6  A    between atoms: C_21  and  C_27
REMARK    7  A    between atoms: C_23  and  O_24
REMARK    8  A    between atoms: O_24  and  C_25
REMARK    9  A    between atoms: C_27  and  C_28
REMARK                            x       y       z     vdW  Elec       q    Type
REMARK                         _______ _______ _______ _____ _____    ______ ____
ROOT
ATOM      1  O   UNL     1      34.918 -13.850 -23.768  0.00  0.00    -0.274 OA
ATOM      2  N   UNL     1      32.779 -12.934 -23.846  0.00  0.00    -0.295 N 
ATOM      3  C   UNL     1      33.715 -13.903 -23.524  0.00  0.00    +0.240 C 
ATOM      4  H   UNL     1      31.840 -13.090 -23.596  0.00  0.00    +0.150 HD
ENDROOT
BRANCH   3   7
ATOM      5  S   UNL     1      32.844 -13.804 -20.281  0.00  0.00    -0.137 S 
ATOM      6  N   UNL     1      34.263 -15.835 -22.269  0.00  0.00    -0.146 NA
ATOM      7  C   UNL     1      33.106 -15.060 -22.797  0.00  0.00    +0.166 C 
ATOM      8  C   UNL     1      34.199 -16.189 -20.828  0.00  0.00    +0.108 C 
ATOM      9  C   UNL     1      32.108 -14.605 -21.740  0.00  0.00    +0.085 C 
ATOM     10  C   UNL     1      34.243 -14.926 -19.982  0.00  0.00    +0.077 C 
BRANCH   6  11
ATOM     11  S   UNL     1      34.917 -17.029 -23.308  0.00  0.00    +0.064 S 
ATOM     12  O   UNL     1      36.228 -16.600 -23.731  0.00  0.00    -0.153 OA
ATOM     13  O   UNL     1      33.902 -17.412 -24.258  0.00  0.00    -0.153 OA
BRANCH  11  14
ATOM     14  C   UNL     1      35.116 -18.346 -22.153  0.00  0.00    +0.122 C 
ATOM     15  C   UNL     1      34.021 -19.135 -21.799  0.00  0.00    +0.020 C 
ATOM     16  C   UNL     1      36.368 -18.598 -21.592  0.00  0.00    +0.020 C 
ATOM     17  C   UNL     1      34.178 -20.175 -20.883  0.00  0.00    -0.003 C 
ATOM     18  C   UNL     1      36.524 -19.638 -20.675  0.00  0.00    -0.003 C 
ATOM     19  C   UNL     1      35.430 -20.427 -20.321  0.00  0.00    -0.022 C 
ATOM     20  C   UNL     1      35.597 -21.539 -19.341  0.00  0.00    +0.031 C 
ENDBRANCH  11  14
ENDBRANCH   6  11
ENDBRANCH   3   7
BRANCH   2  21
ATOM     21  C   UNL     1      33.115 -11.706 -24.529  0.00  0.00    +0.176 C 
BRANCH  21  23
ATOM     22  O   UNL     1      34.812 -11.505 -26.238  0.00  0.00    -0.248 OA
ATOM     23  C   UNL     1      33.720 -11.955 -25.905  0.00  0.00    +0.335 C 
BRANCH  23  24
ATOM     24  O   UNL     1      32.905 -12.706 -26.696  0.00  0.00    -0.447 OA
BRANCH  24  25
ATOM     25  C   UNL     1      33.492 -13.889 -27.247  0.00  0.00    +0.209 C 
ATOM     26  C   UNL     1      32.829 -15.103 -26.632  0.00  0.00    +0.051 C 
ENDBRANCH  24  25
ENDBRANCH  23  24
ENDBRANCH  21  23
BRANCH  21  27
ATOM     27  C   UNL     1      34.011 -10.811 -23.660  0.00  0.00    +0.057 C 
BRANCH  27  28
ATOM     28  C   UNL     1      33.715  -9.332 -23.761  0.00  0.00    -0.020 C 
ATOM     29  C   UNL     1      32.414  -8.865 -23.566  0.00  0.00    -0.004 C 
ATOM     30  C   UNL     1      34.741  -8.433 -24.050  0.00  0.00    -0.004 C 
ATOM     31  C   UNL     1      32.141  -7.501 -23.660  0.00  0.00    -0.000 C 
ATOM     32  C   UNL     1      34.469  -7.068 -24.144  0.00  0.00    -0.000 C 
ATOM     33  C   UNL     1      33.168  -6.602 -23.948  0.00  0.00    -0.000 C 
ENDBRANCH  27  28
ENDBRANCH  21  27
ENDBRANCH   2  21
TORSDOF 9
ENDMDL
MODEL 7
REMARK VINA RESULT:      -8.3      8.850     13.079
REMARK  Name = 46936196
REMARK  9 active torsions:
REMARK  status: ('A' for Active; 'I' for Inactive)
REMARK    1  A    between atoms: N_2  and  C_21
REMARK    2  A    between atoms: C_3  and  C_7
REMARK    3  A    between atoms: N_6  and  S_11
REMARK    4  A    between atoms: S_11  and  C_14
REMARK    5  A    between atoms: C_21  and  C_23
REMARK    6  A    between atoms: C_21  and  C_27
REMARK    7  A    between atoms: C_23  and  O_24
REMARK    8  A    between atoms: O_24  and  C_25
REMARK    9  A    between atoms: C_27  and  C_28
REMARK                            x       y       z     vdW  Elec       q    Type
REMARK                         _______ _______ _______ _____ _____    ______ ____
ROOT
ATOM      1  O   UNL     1      34.194 -12.766 -22.546  0.00  0.00    -0.274 OA
ATOM      2  N   UNL     1      33.525 -13.971 -24.421  0.00  0.00    -0.295 N 
ATOM      3  C   UNL     1      33.638 -12.835 -23.638  0.00  0.00    +0.240 C 
ATOM      4  H   UNL     1      33.053 -13.902 -25.282  0.00  0.00    +0.150 HD
ENDROOT
BRANCH   3   7
ATOM      5  S   UNL     1      35.321 -10.713 -25.627  0.00  0.00    -0.137 S 
ATOM      6  N   UNL     1      33.173 -10.538 -23.293  0.00  0.00    -0.146 NA
ATOM      7  C   UNL     1      33.014 -11.638 -24.285  0.00  0.00    +0.166 C 
ATOM      8  C   UNL     1      33.747  -9.273 -23.819  0.00  0.00    +0.108 C 
ATOM      9  C   UNL     1      33.617 -11.353 -25.655  0.00  0.00    +0.085 C 
ATOM     10  C   UNL     1      35.177  -9.504 -24.277  0.00  0.00    +0.077 C 
BRANCH   6  11
ATOM     11  S   UNL     1      31.923 -10.373 -22.133  0.00  0.00    +0.064 S 
ATOM     12  O   UNL     1      32.467 -10.663 -20.829  0.00  0.00    -0.153 OA
ATOM     13  O   UNL     1      30.748 -11.044 -22.631  0.00  0.00    -0.153 OA
BRANCH  11  14
ATOM     14  C   UNL     1      31.652  -8.634 -22.240  0.00  0.00    +0.122 C 
ATOM     15  C   UNL     1      31.027  -8.094 -23.364  0.00  0.00    +0.020 C 
ATOM     16  C   UNL     1      32.065  -7.799 -21.202  0.00  0.00    +0.020 C 
ATOM     17  C   UNL     1      30.815  -6.718 -23.450  0.00  0.00    -0.003 C 
ATOM     18  C   UNL     1      31.853  -6.423 -21.289  0.00  0.00    -0.003 C 
ATOM     19  C   UNL     1      31.228  -5.881 -22.412  0.00  0.00    -0.022 C 
ATOM     20  C   UNL     1      31.002  -4.411 -22.505  0.00  0.00    +0.031 C 
ENDBRANCH  11  14
ENDBRANCH   6  11
ENDBRANCH   3   7
BRANCH   2  21
ATOM     21  C   UNL     1      34.065 -15.255 -24.034  0.00  0.00    +0.176 C 
BRANCH  21  23
ATOM     22  O   UNL     1      33.183 -16.149 -26.098  0.00  0.00    -0.248 OA
ATOM     23  C   UNL     1      33.931 -16.297 -25.136  0.00  0.00    +0.335 C 
BRANCH  23  24
ATOM     24  O   UNL     1      34.714 -17.388 -24.910  0.00  0.00    -0.447 OA
BRANCH  24  25
ATOM     25  C   UNL     1      34.137 -18.650 -25.258  0.00  0.00    +0.209 C 
ATOM     26  C   UNL     1      34.929 -19.756 -24.594  0.00  0.00    +0.051 C 
ENDBRANCH  24  25
ENDBRANCH  23  24
ENDBRANCH  21  23
BRANCH  21  27
ATOM     27  C   UNL     1      33.459 -15.738 -22.707  0.00  0.00    +0.057 C 
BRANCH  27  28
ATOM     28  C   UNL     1      34.149 -16.938 -22.098  0.00  0.00    -0.020 C 
ATOM     29  C   UNL     1      33.393 -17.979 -21.558  0.00  0.00    -0.004 C 
ATOM     30  C   UNL     1      35.542 -17.005 -22.076  0.00  0.00    -0.004 C 
ATOM     31  C   UNL     1      34.029 -19.086 -20.997  0.00  0.00    -0.000 C 
ATOM     32  C   UNL     1      36.179 -18.112 -21.515  0.00  0.00    -0.000 C 
ATOM     33  C   UNL     1      35.422 -19.152 -20.975  0.00  0.00    -0.000 C 
ENDBRANCH  27  28
ENDBRANCH  21  27
ENDBRANCH   2  21
TORSDOF 9
ENDMDL
MODEL 8
REMARK VINA RESULT:      -8.2      9.601     13.691
REMARK  Name = 46936196
REMARK  9 active torsions:
REMARK  status: ('A' for Active; 'I' for Inactive)
REMARK    1  A    between atoms: N_2  and  C_21
REMARK    2  A    between atoms: C_3  and  C_7
REMARK    3  A    between atoms: N_6  and  S_11
REMARK    4  A    between atoms: S_11  and  C_14
REMARK    5  A    between atoms: C_21  and  C_23
REMARK    6  A    between atoms: C_21  and  C_27
REMARK    7  A    between atoms: C_23  and  O_24
REMARK    8  A    between atoms: O_24  and  C_25
REMARK    9  A    between atoms: C_27  and  C_28
REMARK                            x       y       z     vdW  Elec       q    Type
REMARK                         _______ _______ _______ _____ _____    ______ ____
ROOT
ATOM      1  O   UNL     1      34.390 -12.086 -22.771  0.00  0.00    -0.274 OA
ATOM      2  N   UNL     1      32.656 -13.266 -23.781  0.00  0.00    -0.295 N 
ATOM      3  C   UNL     1      33.427 -12.144 -23.531  0.00  0.00    +0.240 C 
ATOM      4  H   UNL     1      31.906 -13.188 -24.413  0.00  0.00    +0.150 HD
ENDROOT
BRANCH   3   7
ATOM      5  S   UNL     1      35.412 -10.474 -25.666  0.00  0.00    -0.137 S 
ATOM      6  N   UNL     1      33.244  -9.783 -23.449  0.00  0.00    -0.146 NA
ATOM      7  C   UNL     1      32.974 -10.958 -24.324  0.00  0.00    +0.166 C 
ATOM      8  C   UNL     1      33.985  -8.663 -24.083  0.00  0.00    +0.108 C 
ATOM      9  C   UNL     1      33.643 -10.901 -25.692  0.00  0.00    +0.085 C 
ATOM     10  C   UNL     1      35.387  -9.115 -24.458  0.00  0.00    +0.077 C 
BRANCH   6  11
ATOM     11  S   UNL     1      31.996  -9.341 -22.362  0.00  0.00    +0.064 S 
ATOM     12  O   UNL     1      32.546  -9.285 -21.030  0.00  0.00    -0.153 OA
ATOM     13  O   UNL     1      30.826 -10.128 -22.667  0.00  0.00    -0.153 OA
BRANCH  11  14
ATOM     14  C   UNL     1      31.706  -7.689 -22.906  0.00  0.00    +0.122 C 
ATOM     15  C   UNL     1      31.133  -7.457 -24.158  0.00  0.00    +0.020 C 
ATOM     16  C   UNL     1      32.051  -6.614 -22.087  0.00  0.00    +0.020 C 
ATOM     17  C   UNL     1      30.907  -6.151 -24.589  0.00  0.00    -0.003 C 
ATOM     18  C   UNL     1      31.824  -5.308 -22.519  0.00  0.00    -0.003 C 
ATOM     19  C   UNL     1      31.252  -5.075 -23.770  0.00  0.00    -0.022 C 
ATOM     20  C   UNL     1      31.009  -3.678 -24.232  0.00  0.00    +0.031 C 
ENDBRANCH  11  14
ENDBRANCH   6  11
ENDBRANCH   3   7
BRANCH   2  21
ATOM     21  C   UNL     1      32.901 -14.548 -23.159  0.00  0.00    +0.176 C 
BRANCH  21  23
ATOM     22  O   UNL     1      32.510 -15.599 -21.018  0.00  0.00    -0.248 OA
ATOM     23  C   UNL     1      32.429 -14.589 -21.711  0.00  0.00    +0.335 C 
BRANCH  23  24
ATOM     24  O   UNL     1      31.907 -13.398 -21.307  0.00  0.00    -0.447 OA
BRANCH  24  25
ATOM     25  C   UNL     1      32.347 -12.929 -20.028  0.00  0.00    +0.209 C 
ATOM     26  C   UNL     1      31.509 -11.734 -19.626  0.00  0.00    +0.051 C 
ENDBRANCH  24  25
ENDBRANCH  23  24
ENDBRANCH  21  23
BRANCH  21  27
ATOM     27  C   UNL     1      34.374 -14.962 -23.296  0.00  0.00    +0.057 C 
BRANCH  27  28
ATOM     28  C   UNL     1      34.593 -16.430 -23.589  0.00  0.00    -0.020 C 
ATOM     29  C   UNL     1      35.126 -17.266 -22.608  0.00  0.00    -0.004 C 
ATOM     30  C   UNL     1      34.261 -16.948 -24.841  0.00  0.00    -0.004 C 
ATOM     31  C   UNL     1      35.327 -18.619 -22.878  0.00  0.00    -0.000 C 
ATOM     32  C   UNL     1      34.461 -18.301 -25.112  0.00  0.00    -0.000 C 
ATOM     33  C   UNL     1      34.994 -19.137 -24.130  0.00  0.00    -0.000 C 
ENDBRANCH  27  28
ENDBRANCH  21  27
ENDBRANCH   2  21
TORSDOF 9
ENDMDL
MODEL 9
REMARK VINA RESULT:      -8.2      8.091     12.085
REMARK  Name = 46936196
REMARK  9 active torsions:
REMARK  status: ('A' for Active; 'I' for Inactive)
REMARK    1  A    between atoms: N_2  and  C_21
REMARK    2  A    between atoms: C_3  and  C_7
REMARK    3  A    between atoms: N_6  and  S_11
REMARK    4  A    between atoms: S_11  and  C_14
REMARK    5  A    between atoms: C_21  and  C_23
REMARK    6  A    between atoms: C_21  and  C_27
REMARK    7  A    between atoms: C_23  and  O_24
REMARK    8  A    between atoms: O_24  and  C_25
REMARK    9  A    between atoms: C_27  and  C_28
REMARK                            x       y       z     vdW  Elec       q    Type
REMARK                         _______ _______ _______ _____ _____    ______ ____
ROOT
ATOM      1  O   UNL     1      32.896 -13.684 -20.822  0.00  0.00    -0.274 OA
ATOM      2  N   UNL     1      33.413 -14.741 -22.831  0.00  0.00    -0.295 N 
ATOM      3  C   UNL     1      32.812 -13.772 -22.044  0.00  0.00    +0.240 C 
ATOM      4  H   UNL     1      33.271 -14.707 -23.804  0.00  0.00    +0.150 HD
ENDROOT
BRANCH   3   7
ATOM      5  S   UNL     1      33.849 -12.596 -25.016  0.00  0.00    -0.137 S 
ATOM      6  N   UNL     1      32.497 -11.449 -22.380  0.00  0.00    -0.146 NA
ATOM      7  C   UNL     1      32.037 -12.783 -22.857  0.00  0.00    +0.166 C 
ATOM      8  C   UNL     1      32.902 -10.489 -23.439  0.00  0.00    +0.108 C 
ATOM      9  C   UNL     1      32.208 -13.020 -24.353  0.00  0.00    +0.085 C 
ATOM     10  C   UNL     1      34.128 -11.012 -24.170  0.00  0.00    +0.077 C 
BRANCH   6  11
ATOM     11  S   UNL     1      31.651 -10.785 -21.047  0.00  0.00    +0.064 S 
ATOM     12  O   UNL     1      32.480 -10.906 -19.872  0.00  0.00    -0.153 OA
ATOM     13  O   UNL     1      30.297 -11.280 -21.073  0.00  0.00    -0.153 OA
BRANCH  11  14
ATOM     14  C   UNL     1      31.628  -9.090 -21.529  0.00  0.00    +0.122 C 
ATOM     15  C   UNL     1      31.004  -8.712 -22.719  0.00  0.00    +0.020 C 
ATOM     16  C   UNL     1      32.234  -8.126 -20.723  0.00  0.00    +0.020 C 
ATOM     17  C   UNL     1      30.989  -7.371 -23.102  0.00  0.00    -0.003 C 
ATOM     18  C   UNL     1      32.219  -6.786 -21.107  0.00  0.00    -0.003 C 
ATOM     19  C   UNL     1      31.595  -6.407 -22.296  0.00  0.00    -0.022 C 
ATOM     20  C   UNL     1      31.578  -4.974 -22.707  0.00  0.00    +0.031 C 
ENDBRANCH  11  14
ENDBRANCH   6  11
ENDBRANCH   3   7
BRANCH   2  21
ATOM     21  C   UNL     1      34.236 -15.799 -22.290  0.00  0.00    +0.176 C 
BRANCH  21  23
ATOM     22  O   UNL     1      36.171 -16.659 -23.455  0.00  0.00    -0.248 OA
ATOM     23  C   UNL     1      34.947 -16.593 -23.378  0.00  0.00    +0.335 C 
BRANCH  23  24
ATOM     24  O   UNL     1      34.073 -17.187 -24.236  0.00  0.00    -0.447 OA
BRANCH  24  25
ATOM     25  C   UNL     1      34.627 -18.191 -25.092  0.00  0.00    +0.209 C 
ATOM     26  C   UNL     1      34.701 -19.499 -24.335  0.00  0.00    +0.051 C 
ENDBRANCH  24  25
ENDBRANCH  23  24
ENDBRANCH  21  23
BRANCH  21  27
ATOM     27  C   UNL     1      33.431 -16.707 -21.348  0.00  0.00    +0.057 C 
BRANCH  27  28
ATOM     28  C   UNL     1      34.087 -18.033 -21.036  0.00  0.00    -0.020 C 
ATOM     29  C   UNL     1      33.306 -19.176 -20.864  0.00  0.00    -0.004 C 
ATOM     30  C   UNL     1      35.474 -18.114 -20.919  0.00  0.00    -0.004 C 
ATOM     31  C   UNL     1      33.911 -20.399 -20.576  0.00  0.00    -0.000 C 
ATOM     32  C   UNL     1      36.081 -19.337 -20.632  0.00  0.00    -0.000 C 
ATOM     33  C   UNL     1      35.299 -20.479 -20.460  0.00  0.00    -0.000 C 
ENDBRANCH  27  28
ENDBRANCH  21  27
ENDBRANCH   2  21
TORSDOF 9
ENDMDL
