MODEL 1
REMARK VINA RESULT:     -10.8      0.000      0.000
REMARK  Name = 2536
REMARK  10 active torsions:
REMARK  status: ('A' for Active; 'I' for Inactive)
REMARK    1  A    between atoms: O_1  and  C_5
REMARK    2  A    between atoms: O_1  and  C_19
REMARK    3  A    between atoms: C_2  and  C_8
REMARK    4  A    between atoms: C_8  and  C_10
REMARK    5  A    between atoms: C_10  and  O_11
REMARK    6  A    between atoms: O_11  and  C_12
REMARK    7  A    between atoms: C_12  and  C_15
REMARK    8  A    between atoms: C_19  and  C_20
REMARK    9  A    between atoms: C_23  and  N_26
REMARK   10  A    between atoms: N_26  and  C_29
REMARK                            x       y       z     vdW  Elec       q    Type
REMARK                         _______ _______ _______ _____ _____    ______ ____
ROOT
ATOM      1  O   UNL     1      34.114 -23.218 -18.706  0.00  0.00    -0.421 OA
ENDROOT
BRANCH   1   5
ATOM      2  C   UNL     1      34.448 -19.641 -20.786  0.00  0.00    -0.011 C 
ATOM      3  C   UNL     1      35.595 -20.354 -20.434  0.00  0.00    -0.001 C 
ATOM      4  C   UNL     1      33.189 -20.131 -20.437  0.00  0.00    -0.001 C 
ATOM      5  C   UNL     1      34.224 -22.045 -19.387  0.00  0.00    +0.149 C 
ATOM      6  C   UNL     1      35.482 -21.555 -19.736  0.00  0.00    +0.037 C 
ATOM      7  C   UNL     1      33.077 -21.333 -19.738  0.00  0.00    +0.037 C 
BRANCH   2   8
ATOM      8  C   UNL     1      34.569 -18.343 -21.541  0.00  0.00    +0.136 C 
BRANCH   8  10
ATOM      9  O   UNL     1      34.806 -19.575 -23.625  0.00  0.00    -0.250 OA
ATOM     10  C   UNL     1      34.941 -18.537 -22.992  0.00  0.00    +0.322 C 
BRANCH  10  11
ATOM     11  O   UNL     1      35.455 -17.366 -23.495  0.00  0.00    -0.438 OA
BRANCH  11  12
ATOM     12  C   UNL     1      34.590 -16.250 -23.485  0.00  0.00    +0.293 C 
BRANCH  12  15
ATOM     13  O   UNL     1      34.506 -16.683 -25.813  0.00  0.00    -0.271 OA
ATOM     14  N   UNL     1      33.353 -14.803 -25.087  0.00  0.00    -0.273 N 
ATOM     15  C   UNL     1      34.151 -15.933 -24.899  0.00  0.00    +0.270 C 
ATOM     16  C   UNL     1      32.901 -13.901 -24.030  0.00  0.00    +0.115 C 
ATOM     17  C   UNL     1      32.899 -14.462 -26.429  0.00  0.00    +0.115 C 
ENDBRANCH  12  15
ENDBRANCH  11  12
ENDBRANCH  10  11
ENDBRANCH   8  10
ENDBRANCH   2   8
ENDBRANCH   1   5
BRANCH   1  19
ATOM     18  O   UNL     1      32.670 -22.773 -16.930  0.00  0.00    -0.244 OA
ATOM     19  C   UNL     1      33.775 -23.070 -17.358  0.00  0.00    +0.346 C 
BRANCH  19  20
ATOM     20  C   UNL     1      34.951 -23.306 -16.482  0.00  0.00    +0.076 C 
ATOM     21  C   UNL     1      36.083 -22.502 -16.604  0.00  0.00    +0.008 C 
ATOM     22  C   UNL     1      34.921 -24.332 -15.537  0.00  0.00    +0.008 C 
ATOM     23  C   UNL     1      37.159 -23.749 -14.836  0.00  0.00    +0.084 C 
ATOM     24  C   UNL     1      37.187 -22.723 -15.780  0.00  0.00    +0.019 C 
ATOM     25  C   UNL     1      36.025 -24.553 -14.713  0.00  0.00    +0.019 C 
BRANCH  23  26
ATOM     26  N   UNL     1      38.266 -23.971 -14.010  0.00  0.00    -0.214 NA
BRANCH  26  29
ATOM     27  N   UNL     1      39.168 -26.111 -13.365  0.00  0.00    -0.370 N 
ATOM     28  N   UNL     1      39.729 -25.178 -15.372  0.00  0.00    -0.370 N 
ATOM     29  C   UNL     1      39.004 -25.036 -14.212  0.00  0.00    +0.193 C 
ATOM     30  H   UNL     1      38.702 -26.130 -12.499  0.00  0.00    +0.159 HD
ATOM     31  H   UNL     1      39.754 -26.858 -13.627  0.00  0.00    +0.159 HD
ATOM     32  H   UNL     1      39.697 -24.476 -16.061  0.00  0.00    +0.159 HD
ATOM     33  H   UNL     1      40.279 -25.982 -15.512  0.00  0.00    +0.159 HD
ENDBRANCH  26  29
ENDBRANCH  23  26
ENDBRANCH  19  20
ENDBRANCH   1  19
TORSDOF 10
ENDMDL
MODEL 2
REMARK VINA RESULT:     -10.7      1.299      1.916
REMARK  Name = 2536
REMARK  10 active torsions:
REMARK  status: ('A' for Active; 'I' for Inactive)
REMARK    1  A    between atoms: O_1  and  C_5
REMARK    2  A    between atoms: O_1  and  C_19
REMARK    3  A    between atoms: C_2  and  C_8
REMARK    4  A    between atoms: C_8  and  C_10
REMARK    5  A    between atoms: C_10  and  O_11
REMARK    6  A    between atoms: O_11  and  C_12
REMARK    7  A    between atoms: C_12  and  C_15
REMARK    8  A    between atoms: C_19  and  C_20
REMARK    9  A    between atoms: C_23  and  N_26
REMARK   10  A    between atoms: N_26  and  C_29
REMARK                            x       y       z     vdW  Elec       q    Type
REMARK                         _______ _______ _______ _____ _____    ______ ____
ROOT
ATOM      1  O   UNL     1      33.913 -23.271 -18.543  0.00  0.00    -0.421 OA
ENDROOT
BRANCH   1   5
ATOM      2  C   UNL     1      35.101 -19.877 -20.618  0.00  0.00    -0.011 C 
ATOM      3  C   UNL     1      33.743 -20.151 -20.446  0.00  0.00    -0.001 C 
ATOM      4  C   UNL     1      36.058 -20.746 -20.093  0.00  0.00    -0.001 C 
ATOM      5  C   UNL     1      34.302 -22.158 -19.224  0.00  0.00    +0.149 C 
ATOM      6  C   UNL     1      33.344 -21.290 -19.749  0.00  0.00    +0.037 C 
ATOM      7  C   UNL     1      35.659 -21.886 -19.395  0.00  0.00    +0.037 C 
BRANCH   2   8
ATOM      8  C   UNL     1      35.532 -18.646 -21.371  0.00  0.00    +0.136 C 
BRANCH   8  10
ATOM      9  O   UNL     1      35.036 -19.442 -23.616  0.00  0.00    -0.250 OA
ATOM     10  C   UNL     1      34.947 -18.571 -22.762  0.00  0.00    +0.322 C 
BRANCH  10  11
ATOM     11  O   UNL     1      34.296 -17.371 -22.922  0.00  0.00    -0.438 OA
BRANCH  11  12
ATOM     12  C   UNL     1      35.007 -16.362 -23.607  0.00  0.00    +0.293 C 
BRANCH  12  15
ATOM     13  O   UNL     1      34.633 -16.880 -25.889  0.00  0.00    -0.271 OA
ATOM     14  N   UNL     1      33.497 -15.030 -25.068  0.00  0.00    -0.273 N 
ATOM     15  C   UNL     1      34.367 -16.115 -24.958  0.00  0.00    +0.270 C 
ATOM     16  C   UNL     1      33.146 -14.112 -23.986  0.00  0.00    +0.115 C 
ATOM     17  C   UNL     1      32.850 -14.758 -26.345  0.00  0.00    +0.115 C 
ENDBRANCH  12  15
ENDBRANCH  11  12
ENDBRANCH  10  11
ENDBRANCH   8  10
ENDBRANCH   2   8
ENDBRANCH   1   5
BRANCH   1  19
ATOM     18  O   UNL     1      31.939 -22.597 -17.501  0.00  0.00    -0.244 OA
ATOM     19  C   UNL     1      33.086 -23.014 -17.446  0.00  0.00    +0.346 C 
BRANCH  19  20
ATOM     20  C   UNL     1      33.788 -23.297 -16.169  0.00  0.00    +0.076 C 
ATOM     21  C   UNL     1      33.076 -23.791 -15.077  0.00  0.00    +0.008 C 
ATOM     22  C   UNL     1      35.161 -23.070 -16.062  0.00  0.00    +0.008 C 
ATOM     23  C   UNL     1      35.107 -23.830 -13.769  0.00  0.00    +0.084 C 
ATOM     24  C   UNL     1      33.736 -24.058 -13.877  0.00  0.00    +0.019 C 
ATOM     25  C   UNL     1      35.821 -23.337 -14.862  0.00  0.00    +0.019 C 
BRANCH  23  26
ATOM     26  N   UNL     1      35.769 -24.098 -12.566  0.00  0.00    -0.214 NA
BRANCH  26  29
ATOM     27  N   UNL     1      36.771 -26.232 -13.065  0.00  0.00    -0.370 N 
ATOM     28  N   UNL     1      37.986 -24.600 -12.032  0.00  0.00    -0.370 N 
ATOM     29  C   UNL     1      36.768 -24.947 -12.567  0.00  0.00    +0.193 C 
ATOM     30  H   UNL     1      35.957 -26.603 -13.476  0.00  0.00    +0.159 HD
ATOM     31  H   UNL     1      37.587 -26.780 -13.009  0.00  0.00    +0.159 HD
ATOM     32  H   UNL     1      38.115 -23.705 -11.642  0.00  0.00    +0.159 HD
ATOM     33  H   UNL     1      38.729 -25.246 -12.039  0.00  0.00    +0.159 HD
ENDBRANCH  26  29
ENDBRANCH  23  26
ENDBRANCH  19  20
ENDBRANCH   1  19
TORSDOF 10
ENDMDL
MODEL 3
REMARK VINA RESULT:     -10.5      1.651     10.940
REMARK  Name = 2536
REMARK  10 active torsions:
REMARK  status: ('A' for Active; 'I' for Inactive)
REMARK    1  A    between atoms: O_1  and  C_5
REMARK    2  A    between atoms: O_1  and  C_19
REMARK    3  A    between atoms: C_2  and  C_8
REMARK    4  A    between atoms: C_8  and  C_10
REMARK    5  A    between atoms: C_10  and  O_11
REMARK    6  A    between atoms: O_11  and  C_12
REMARK    7  A    between atoms: C_12  and  C_15
REMARK    8  A    between atoms: C_19  and  C_20
REMARK    9  A    between atoms: C_23  and  N_26
REMARK   10  A    between atoms: N_26  and  C_29
REMARK                            x       y       z     vdW  Elec       q    Type
REMARK                         _______ _______ _______ _____ _____    ______ ____
ROOT
ATOM      1  O   UNL     1      35.843 -18.333 -22.181  0.00  0.00    -0.421 OA
ENDROOT
BRANCH   1   5
ATOM      2  C   UNL     1      33.925 -21.049 -19.696  0.00  0.00    -0.011 C 
ATOM      3  C   UNL     1      33.176 -20.155 -20.462  0.00  0.00    -0.001 C 
ATOM      4  C   UNL     1      35.318 -21.029 -19.765  0.00  0.00    -0.001 C 
ATOM      5  C   UNL     1      35.214 -19.223 -21.366  0.00  0.00    +0.149 C 
ATOM      6  C   UNL     1      33.821 -19.243 -21.297  0.00  0.00    +0.037 C 
ATOM      7  C   UNL     1      35.963 -20.117 -20.600  0.00  0.00    +0.037 C 
BRANCH   2   8
ATOM      8  C   UNL     1      33.229 -22.034 -18.793  0.00  0.00    +0.136 C 
BRANCH   8  10
ATOM      9  O   UNL     1      34.147 -24.003 -19.889  0.00  0.00    -0.250 OA
ATOM     10  C   UNL     1      33.826 -23.421 -18.863  0.00  0.00    +0.322 C 
BRANCH  10  11
ATOM     11  O   UNL     1      33.954 -23.929 -17.592  0.00  0.00    -0.438 OA
BRANCH  11  12
ATOM     12  C   UNL     1      34.375 -23.022 -16.596  0.00  0.00    +0.293 C 
BRANCH  12  15
ATOM     13  O   UNL     1      34.894 -24.607 -14.913  0.00  0.00    -0.271 OA
ATOM     14  N   UNL     1      36.663 -23.305 -15.663  0.00  0.00    -0.273 N 
ATOM     15  C   UNL     1      35.329 -23.715 -15.646  0.00  0.00    +0.270 C 
ATOM     16  C   UNL     1      37.219 -22.265 -16.525  0.00  0.00    +0.115 C 
ATOM     17  C   UNL     1      37.621 -23.948 -14.773  0.00  0.00    +0.115 C 
ENDBRANCH  12  15
ENDBRANCH  11  12
ENDBRANCH  10  11
ENDBRANCH   8  10
ENDBRANCH   2   8
ENDBRANCH   1   5
BRANCH   1  19
ATOM     18  O   UNL     1      35.180 -19.039 -24.301  0.00  0.00    -0.244 OA
ATOM     19  C   UNL     1      35.247 -18.181 -23.435  0.00  0.00    +0.346 C 
BRANCH  19  20
ATOM     20  C   UNL     1      34.700 -16.810 -23.604  0.00  0.00    +0.076 C 
ATOM     21  C   UNL     1      34.819 -15.880 -22.573  0.00  0.00    +0.008 C 
ATOM     22  C   UNL     1      34.067 -16.454 -24.796  0.00  0.00    +0.008 C 
ATOM     23  C   UNL     1      33.674 -14.236 -23.923  0.00  0.00    +0.084 C 
ATOM     24  C   UNL     1      34.306 -14.592 -22.732  0.00  0.00    +0.019 C 
ATOM     25  C   UNL     1      33.555 -15.167 -24.955  0.00  0.00    +0.019 C 
BRANCH  23  26
ATOM     26  N   UNL     1      33.160 -12.945 -24.083  0.00  0.00    -0.214 NA
BRANCH  26  29
ATOM     27  N   UNL     1      33.847 -11.945 -26.165  0.00  0.00    -0.370 N 
ATOM     28  N   UNL     1      34.657 -11.156 -24.182  0.00  0.00    -0.370 N 
ATOM     29  C   UNL     1      33.838 -12.076 -24.793  0.00  0.00    +0.193 C 
ATOM     30  H   UNL     1      33.302 -12.546 -26.721  0.00  0.00    +0.159 HD
ATOM     31  H   UNL     1      34.402 -11.249 -26.589  0.00  0.00    +0.159 HD
ATOM     32  H   UNL     1      34.738 -11.144 -23.201  0.00  0.00    +0.159 HD
ATOM     33  H   UNL     1      35.161 -10.508 -24.726  0.00  0.00    +0.159 HD
ENDBRANCH  26  29
ENDBRANCH  23  26
ENDBRANCH  19  20
ENDBRANCH   1  19
TORSDOF 10
ENDMDL
MODEL 4
REMARK VINA RESULT:     -10.5      3.869     10.934
REMARK  Name = 2536
REMARK  10 active torsions:
REMARK  status: ('A' for Active; 'I' for Inactive)
REMARK    1  A    between atoms: O_1  and  C_5
REMARK    2  A    between atoms: O_1  and  C_19
REMARK    3  A    between atoms: C_2  and  C_8
REMARK    4  A    between atoms: C_8  and  C_10
REMARK    5  A    between atoms: C_10  and  O_11
REMARK    6  A    between atoms: O_11  and  C_12
REMARK    7  A    between atoms: C_12  and  C_15
REMARK    8  A    between atoms: C_19  and  C_20
REMARK    9  A    between atoms: C_23  and  N_26
REMARK   10  A    between atoms: N_26  and  C_29
REMARK                            x       y       z     vdW  Elec       q    Type
REMARK                         _______ _______ _______ _____ _____    ______ ____
ROOT
ATOM      1  O   UNL     1      35.678 -17.791 -21.331  0.00  0.00    -0.421 OA
ENDROOT
BRANCH   1   5
ATOM      2  C   UNL     1      34.498 -21.520 -19.941  0.00  0.00    -0.011 C 
ATOM      3  C   UNL     1      33.541 -20.598 -20.366  0.00  0.00    -0.001 C 
ATOM      4  C   UNL     1      35.852 -21.187 -19.982  0.00  0.00    -0.001 C 
ATOM      5  C   UNL     1      35.291 -19.013 -20.875  0.00  0.00    +0.149 C 
ATOM      6  C   UNL     1      33.937 -19.346 -20.833  0.00  0.00    +0.037 C 
ATOM      7  C   UNL     1      36.249 -19.934 -20.450  0.00  0.00    +0.037 C 
BRANCH   2   8
ATOM      8  C   UNL     1      34.070 -22.873 -19.435  0.00  0.00    +0.136 C 
BRANCH   8  10
ATOM      9  O   UNL     1      34.588 -22.907 -17.058  0.00  0.00    -0.250 OA
ATOM     10  C   UNL     1      33.759 -22.879 -17.957  0.00  0.00    +0.322 C 
BRANCH  10  11
ATOM     11  O   UNL     1      32.396 -22.846 -17.775  0.00  0.00    -0.438 OA
BRANCH  11  12
ATOM     12  C   UNL     1      31.935 -23.120 -16.469  0.00  0.00    +0.293 C 
BRANCH  12  15
ATOM     13  O   UNL     1      29.840 -22.219 -17.112  0.00  0.00    -0.271 OA
ATOM     14  N   UNL     1      29.765 -24.033 -15.665  0.00  0.00    -0.273 N 
ATOM     15  C   UNL     1      30.421 -23.079 -16.444  0.00  0.00    +0.270 C 
ATOM     16  C   UNL     1      30.417 -25.074 -14.874  0.00  0.00    +0.115 C 
ATOM     17  C   UNL     1      28.308 -24.038 -15.617  0.00  0.00    +0.115 C 
ENDBRANCH  12  15
ENDBRANCH  11  12
ENDBRANCH  10  11
ENDBRANCH   8  10
ENDBRANCH   2   8
ENDBRANCH   1   5
BRANCH   1  19
ATOM     18  O   UNL     1      35.763 -18.319 -23.600  0.00  0.00    -0.244 OA
ATOM     19  C   UNL     1      35.427 -17.578 -22.689  0.00  0.00    +0.346 C 
BRANCH  19  20
ATOM     20  C   UNL     1      34.698 -16.303 -22.905  0.00  0.00    +0.076 C 
ATOM     21  C   UNL     1      34.200 -15.990 -24.169  0.00  0.00    +0.008 C 
ATOM     22  C   UNL     1      34.512 -15.417 -21.843  0.00  0.00    +0.008 C 
ATOM     23  C   UNL     1      33.328 -13.907 -23.311  0.00  0.00    +0.084 C 
ATOM     24  C   UNL     1      33.514 -14.792 -24.372  0.00  0.00    +0.019 C 
ATOM     25  C   UNL     1      33.827 -14.219 -22.046  0.00  0.00    +0.019 C 
BRANCH  23  26
ATOM     26  N   UNL     1      32.641 -12.705 -23.514  0.00  0.00    -0.214 NA
BRANCH  26  29
ATOM     27  N   UNL     1      34.525 -11.456 -24.350  0.00  0.00    -0.370 N 
ATOM     28  N   UNL     1      32.881 -10.410 -23.159  0.00  0.00    -0.370 N 
ATOM     29  C   UNL     1      33.329 -11.601 -23.679  0.00  0.00    +0.193 C 
ATOM     30  H   UNL     1      34.952 -12.236 -24.769  0.00  0.00    +0.159 HD
ATOM     31  H   UNL     1      34.951 -10.570 -24.407  0.00  0.00    +0.159 HD
ATOM     32  H   UNL     1      32.036 -10.379 -22.657  0.00  0.00    +0.159 HD
ATOM     33  H   UNL     1      33.407  -9.588 -23.290  0.00  0.00    +0.159 HD
ENDBRANCH  26  29
ENDBRANCH  23  26
ENDBRANCH  19  20
ENDBRANCH   1  19
TORSDOF 10
ENDMDL
MODEL 5
REMARK VINA RESULT:     -10.5      3.256      4.193
REMARK  Name = 2536
REMARK  10 active torsions:
REMARK  status: ('A' for Active; 'I' for Inactive)
REMARK    1  A    between atoms: O_1  and  C_5
REMARK    2  A    between atoms: O_1  and  C_19
REMARK    3  A    between atoms: C_2  and  C_8
REMARK    4  A    between atoms: C_8  and  C_10
REMARK    5  A    between atoms: C_10  and  O_11
REMARK    6  A    between atoms: O_11  and  C_12
REMARK    7  A    between atoms: C_12  and  C_15
REMARK    8  A    between atoms: C_19  and  C_20
REMARK    9  A    between atoms: C_23  and  N_26
REMARK   10  A    between atoms: N_26  and  C_29
REMARK                            x       y       z     vdW  Elec       q    Type
REMARK                         _______ _______ _______ _____ _____    ______ ____
ROOT
ATOM      1  O   UNL     1      34.742 -23.007 -18.755  0.00  0.00    -0.421 OA
ENDROOT
BRANCH   1   5
ATOM      2  C   UNL     1      34.632 -19.468 -20.921  0.00  0.00    -0.011 C 
ATOM      3  C   UNL     1      33.444 -20.066 -20.499  0.00  0.00    -0.001 C 
ATOM      4  C   UNL     1      35.857 -20.062 -20.616  0.00  0.00    -0.001 C 
ATOM      5  C   UNL     1      34.706 -21.847 -19.465  0.00  0.00    +0.149 C 
ATOM      6  C   UNL     1      33.481 -21.254 -19.771  0.00  0.00    +0.037 C 
ATOM      7  C   UNL     1      35.894 -21.251 -19.887  0.00  0.00    +0.037 C 
BRANCH   2   8
ATOM      8  C   UNL     1      34.592 -18.184 -21.708  0.00  0.00    +0.136 C 
BRANCH   8  10
ATOM      9  O   UNL     1      34.794 -19.418 -23.795  0.00  0.00    -0.250 OA
ATOM     10  C   UNL     1      34.929 -18.377 -23.168  0.00  0.00    +0.322 C 
BRANCH  10  11
ATOM     11  O   UNL     1      35.412 -17.199 -23.687  0.00  0.00    -0.438 OA
BRANCH  11  12
ATOM     12  C   UNL     1      34.546 -16.085 -23.617  0.00  0.00    +0.293 C 
BRANCH  12  15
ATOM     13  O   UNL     1      34.292 -16.520 -25.932  0.00  0.00    -0.271 OA
ATOM     14  N   UNL     1      33.268 -14.593 -25.142  0.00  0.00    -0.273 N 
ATOM     15  C   UNL     1      34.029 -15.754 -25.001  0.00  0.00    +0.270 C 
ATOM     16  C   UNL     1      32.923 -13.670 -24.063  0.00  0.00    +0.115 C 
ATOM     17  C   UNL     1      32.741 -14.237 -26.453  0.00  0.00    +0.115 C 
ENDBRANCH  12  15
ENDBRANCH  11  12
ENDBRANCH  10  11
ENDBRANCH   8  10
ENDBRANCH   2   8
ENDBRANCH   1   5
BRANCH   1  19
ATOM     18  O   UNL     1      36.119 -22.546 -16.931  0.00  0.00    -0.244 OA
ATOM     19  C   UNL     1      35.029 -22.841 -17.398  0.00  0.00    +0.346 C 
BRANCH  19  20
ATOM     20  C   UNL     1      33.827 -23.087 -16.562  0.00  0.00    +0.076 C 
ATOM     21  C   UNL     1      33.961 -23.285 -15.189  0.00  0.00    +0.008 C 
ATOM     22  C   UNL     1      32.562 -23.120 -17.152  0.00  0.00    +0.008 C 
ATOM     23  C   UNL     1      31.567 -23.548 -14.993  0.00  0.00    +0.084 C 
ATOM     24  C   UNL     1      32.831 -23.515 -14.404  0.00  0.00    +0.019 C 
ATOM     25  C   UNL     1      31.432 -23.350 -16.367  0.00  0.00    +0.019 C 
BRANCH  23  26
ATOM     26  N   UNL     1      30.434 -23.779 -14.205  0.00  0.00    -0.214 NA
BRANCH  26  29
ATOM     27  N   UNL     1      29.501 -25.987 -14.461  0.00  0.00    -0.370 N 
ATOM     28  N   UNL     1      28.436 -24.174 -15.349  0.00  0.00    -0.370 N 
ATOM     29  C   UNL     1      29.524 -24.620 -14.636  0.00  0.00    +0.193 C 
ATOM     30  H   UNL     1      30.226 -26.432 -13.966  0.00  0.00    +0.159 HD
ATOM     31  H   UNL     1      28.760 -26.518 -14.834  0.00  0.00    +0.159 HD
ATOM     32  H   UNL     1      28.334 -23.214 -15.542  0.00  0.00    +0.159 HD
ATOM     33  H   UNL     1      27.760 -24.815 -15.667  0.00  0.00    +0.159 HD
ENDBRANCH  26  29
ENDBRANCH  23  26
ENDBRANCH  19  20
ENDBRANCH   1  19
TORSDOF 10
ENDMDL
MODEL 6
REMARK VINA RESULT:     -10.5      2.349     11.166
REMARK  Name = 2536
REMARK  10 active torsions:
REMARK  status: ('A' for Active; 'I' for Inactive)
REMARK    1  A    between atoms: O_1  and  C_5
REMARK    2  A    between atoms: O_1  and  C_19
REMARK    3  A    between atoms: C_2  and  C_8
REMARK    4  A    between atoms: C_8  and  C_10
REMARK    5  A    between atoms: C_10  and  O_11
REMARK    6  A    between atoms: O_11  and  C_12
REMARK    7  A    between atoms: C_12  and  C_15
REMARK    8  A    between atoms: C_19  and  C_20
REMARK    9  A    between atoms: C_23  and  N_26
REMARK   10  A    between atoms: N_26  and  C_29
REMARK                            x       y       z     vdW  Elec       q    Type
REMARK                         _______ _______ _______ _____ _____    ______ ____
ROOT
ATOM      1  O   UNL     1      35.835 -18.228 -22.207  0.00  0.00    -0.421 OA
ENDROOT
BRANCH   1   5
ATOM      2  C   UNL     1      33.840 -20.938 -19.777  0.00  0.00    -0.011 C 
ATOM      3  C   UNL     1      35.232 -20.975 -19.867  0.00  0.00    -0.001 C 
ATOM      4  C   UNL     1      33.119 -19.990 -20.504  0.00  0.00    -0.001 C 
ATOM      5  C   UNL     1      35.181 -19.117 -21.410  0.00  0.00    +0.149 C 
ATOM      6  C   UNL     1      35.902 -20.065 -20.683  0.00  0.00    +0.037 C 
ATOM      7  C   UNL     1      33.790 -19.079 -21.320  0.00  0.00    +0.037 C 
BRANCH   2   8
ATOM      8  C   UNL     1      33.115 -21.922 -18.895  0.00  0.00    +0.136 C 
BRANCH   8  10
ATOM      9  O   UNL     1      33.920 -24.140 -19.487  0.00  0.00    -0.250 OA
ATOM     10  C   UNL     1      33.881 -23.209 -18.695  0.00  0.00    +0.322 C 
BRANCH  10  11
ATOM     11  O   UNL     1      34.530 -23.173 -17.484  0.00  0.00    -0.438 OA
BRANCH  11  12
ATOM     12  C   UNL     1      33.749 -23.475 -16.347  0.00  0.00    +0.293 C 
BRANCH  12  15
ATOM     13  O   UNL     1      35.831 -23.282 -15.233  0.00  0.00    -0.271 OA
ATOM     14  N   UNL     1      34.070 -24.100 -13.961  0.00  0.00    -0.273 N 
ATOM     15  C   UNL     1      34.646 -23.612 -15.135  0.00  0.00    +0.270 C 
ATOM     16  C   UNL     1      32.670 -24.486 -13.802  0.00  0.00    +0.115 C 
ATOM     17  C   UNL     1      34.891 -24.241 -12.765  0.00  0.00    +0.115 C 
ENDBRANCH  12  15
ENDBRANCH  11  12
ENDBRANCH  10  11
ENDBRANCH   8  10
ENDBRANCH   2   8
ENDBRANCH   1   5
BRANCH   1  19
ATOM     18  O   UNL     1      35.214 -18.903 -24.350  0.00  0.00    -0.244 OA
ATOM     19  C   UNL     1      35.262 -18.058 -23.469  0.00  0.00    +0.346 C 
BRANCH  19  20
ATOM     20  C   UNL     1      34.716 -16.686 -23.629  0.00  0.00    +0.076 C 
ATOM     21  C   UNL     1      34.045 -16.334 -24.799  0.00  0.00    +0.008 C 
ATOM     22  C   UNL     1      34.875 -15.749 -22.607  0.00  0.00    +0.008 C 
ATOM     23  C   UNL     1      33.690 -14.109 -23.928  0.00  0.00    +0.084 C 
ATOM     24  C   UNL     1      33.531 -15.046 -24.949  0.00  0.00    +0.019 C 
ATOM     25  C   UNL     1      34.361 -14.460 -22.757  0.00  0.00    +0.019 C 
BRANCH  23  26
ATOM     26  N   UNL     1      33.175 -12.817 -24.079  0.00  0.00    -0.214 NA
BRANCH  26  29
ATOM     27  N   UNL     1      33.838 -11.816 -26.168  0.00  0.00    -0.370 N 
ATOM     28  N   UNL     1      34.670 -11.027 -24.195  0.00  0.00    -0.370 N 
ATOM     29  C   UNL     1      33.844 -11.947 -24.797  0.00  0.00    +0.193 C 
ATOM     30  H   UNL     1      33.286 -12.418 -26.718  0.00  0.00    +0.159 HD
ATOM     31  H   UNL     1      34.387 -11.121 -26.599  0.00  0.00    +0.159 HD
ATOM     32  H   UNL     1      34.762 -11.015 -23.215  0.00  0.00    +0.159 HD
ATOM     33  H   UNL     1      35.167 -10.378 -24.745  0.00  0.00    +0.159 HD
ENDBRANCH  26  29
ENDBRANCH  23  26
ENDBRANCH  19  20
ENDBRANCH   1  19
TORSDOF 10
ENDMDL
MODEL 7
REMARK VINA RESULT:     -10.4      4.438      6.937
REMARK  Name = 2536
REMARK  10 active torsions:
REMARK  status: ('A' for Active; 'I' for Inactive)
REMARK    1  A    between atoms: O_1  and  C_5
REMARK    2  A    between atoms: O_1  and  C_19
REMARK    3  A    between atoms: C_2  and  C_8
REMARK    4  A    between atoms: C_8  and  C_10
REMARK    5  A    between atoms: C_10  and  O_11
REMARK    6  A    between atoms: O_11  and  C_12
REMARK    7  A    between atoms: C_12  and  C_15
REMARK    8  A    between atoms: C_19  and  C_20
REMARK    9  A    between atoms: C_23  and  N_26
REMARK   10  A    between atoms: N_26  and  C_29
REMARK                            x       y       z     vdW  Elec       q    Type
REMARK                         _______ _______ _______ _____ _____    ______ ____
ROOT
ATOM      1  O   UNL     1      35.350 -17.247 -20.616  0.00  0.00    -0.421 OA
ENDROOT
BRANCH   1   5
ATOM      2  C   UNL     1      33.080 -14.354 -22.541  0.00  0.00    -0.011 C 
ATOM      3  C   UNL     1      32.818 -14.674 -21.208  0.00  0.00    -0.001 C 
ATOM      4  C   UNL     1      34.105 -15.007 -23.226  0.00  0.00    -0.001 C 
ATOM      5  C   UNL     1      34.606 -16.298 -21.247  0.00  0.00    +0.149 C 
ATOM      6  C   UNL     1      33.581 -15.645 -20.561  0.00  0.00    +0.037 C 
ATOM      7  C   UNL     1      34.868 -15.979 -22.579  0.00  0.00    +0.037 C 
BRANCH   2   8
ATOM      8  C   UNL     1      32.256 -13.304 -23.240  0.00  0.00    +0.136 C 
BRANCH   8  10
ATOM      9  O   UNL     1      33.803 -11.482 -23.697  0.00  0.00    -0.250 OA
ATOM     10  C   UNL     1      32.829 -11.913 -23.096  0.00  0.00    +0.322 C 
BRANCH  10  11
ATOM     11  O   UNL     1      32.084 -11.203 -22.184  0.00  0.00    -0.438 OA
BRANCH  11  12
ATOM     12  C   UNL     1      31.643  -9.927 -22.598  0.00  0.00    +0.293 C 
BRANCH  12  15
ATOM     13  O   UNL     1      32.412  -9.300 -20.446  0.00  0.00    -0.271 OA
ATOM     14  N   UNL     1      31.722  -7.564 -21.824  0.00  0.00    -0.273 N 
ATOM     15  C   UNL     1      31.958  -8.906 -21.524  0.00  0.00    +0.270 C 
ATOM     16  C   UNL     1      31.201  -7.058 -23.091  0.00  0.00    +0.115 C 
ATOM     17  C   UNL     1      32.018  -6.545 -20.825  0.00  0.00    +0.115 C 
ENDBRANCH  12  15
ENDBRANCH  11  12
ENDBRANCH  10  11
ENDBRANCH   8  10
ENDBRANCH   2   8
ENDBRANCH   1   5
BRANCH   1  19
ATOM     18  O   UNL     1      36.213 -18.359 -22.474  0.00  0.00    -0.244 OA
ATOM     19  C   UNL     1      35.635 -18.369 -21.398  0.00  0.00    +0.346 C 
BRANCH  19  20
ATOM     20  C   UNL     1      35.125 -19.609 -20.760  0.00  0.00    +0.076 C 
ATOM     21  C   UNL     1      36.019 -20.543 -20.238  0.00  0.00    +0.008 C 
ATOM     22  C   UNL     1      33.751 -19.841 -20.685  0.00  0.00    +0.008 C 
ATOM     23  C   UNL     1      34.167 -21.939 -19.562  0.00  0.00    +0.084 C 
ATOM     24  C   UNL     1      35.540 -21.708 -19.638  0.00  0.00    +0.019 C 
ATOM     25  C   UNL     1      33.272 -21.006 -20.085  0.00  0.00    +0.019 C 
BRANCH  23  26
ATOM     26  N   UNL     1      33.687 -23.108 -18.961  0.00  0.00    -0.214 NA
BRANCH  26  29
ATOM     27  N   UNL     1      33.948 -23.239 -16.569  0.00  0.00    -0.370 N 
ATOM     28  N   UNL     1      31.910 -22.770 -17.484  0.00  0.00    -0.370 N 
ATOM     29  C   UNL     1      33.234 -23.048 -17.732  0.00  0.00    +0.193 C 
ATOM     30  H   UNL     1      34.909 -23.446 -16.610  0.00  0.00    +0.159 HD
ATOM     31  H   UNL     1      33.496 -23.169 -15.697  0.00  0.00    +0.159 HD
ATOM     32  H   UNL     1      31.292 -22.612 -18.233  0.00  0.00    +0.159 HD
ATOM     33  H   UNL     1      31.582 -22.727 -16.556  0.00  0.00    +0.159 HD
ENDBRANCH  26  29
ENDBRANCH  23  26
ENDBRANCH  19  20
ENDBRANCH   1  19
TORSDOF 10
ENDMDL
MODEL 8
REMARK VINA RESULT:     -10.3      3.450     11.612
REMARK  Name = 2536
REMARK  10 active torsions:
REMARK  status: ('A' for Active; 'I' for Inactive)
REMARK    1  A    between atoms: O_1  and  C_5
REMARK    2  A    between atoms: O_1  and  C_19
REMARK    3  A    between atoms: C_2  and  C_8
REMARK    4  A    between atoms: C_8  and  C_10
REMARK    5  A    between atoms: C_10  and  O_11
REMARK    6  A    between atoms: O_11  and  C_12
REMARK    7  A    between atoms: C_12  and  C_15
REMARK    8  A    between atoms: C_19  and  C_20
REMARK    9  A    between atoms: C_23  and  N_26
REMARK   10  A    between atoms: N_26  and  C_29
REMARK                            x       y       z     vdW  Elec       q    Type
REMARK                         _______ _______ _______ _____ _____    ______ ____
ROOT
ATOM      1  O   UNL     1      34.787 -14.546 -23.326  0.00  0.00    -0.421 OA
ENDROOT
BRANCH   1   5
ATOM      2  C   UNL     1      34.423 -18.384 -21.787  0.00  0.00    -0.011 C 
ATOM      3  C   UNL     1      34.048 -17.284 -21.015  0.00  0.00    -0.001 C 
ATOM      4  C   UNL     1      34.922 -18.193 -23.076  0.00  0.00    -0.001 C 
ATOM      5  C   UNL     1      34.668 -15.804 -22.821  0.00  0.00    +0.149 C 
ATOM      6  C   UNL     1      34.169 -15.995 -21.532  0.00  0.00    +0.037 C 
ATOM      7  C   UNL     1      35.044 -16.904 -23.593  0.00  0.00    +0.037 C 
BRANCH   2   8
ATOM      8  C   UNL     1      34.292 -19.777 -21.228  0.00  0.00    +0.136 C 
BRANCH   8  10
ATOM      9  O   UNL     1      36.515 -19.557 -20.265  0.00  0.00    -0.250 OA
ATOM     10  C   UNL     1      35.544 -20.252 -20.529  0.00  0.00    +0.322 C 
BRANCH  10  11
ATOM     11  O   UNL     1      35.425 -21.589 -20.233  0.00  0.00    -0.438 OA
BRANCH  11  12
ATOM     12  C   UNL     1      35.407 -21.926 -18.862  0.00  0.00    +0.293 C 
BRANCH  12  15
ATOM     13  O   UNL     1      33.127 -22.384 -19.319  0.00  0.00    -0.271 OA
ATOM     14  N   UNL     1      33.870 -22.946 -17.193  0.00  0.00    -0.273 N 
ATOM     15  C   UNL     1      34.032 -22.435 -18.481  0.00  0.00    +0.270 C 
ATOM     16  C   UNL     1      34.919 -23.038 -16.180  0.00  0.00    +0.115 C 
ATOM     17  C   UNL     1      32.568 -23.456 -16.783  0.00  0.00    +0.115 C 
ENDBRANCH  12  15
ENDBRANCH  11  12
ENDBRANCH  10  11
ENDBRANCH   8  10
ENDBRANCH   2   8
ENDBRANCH   1   5
BRANCH   1  19
ATOM     18  O   UNL     1      33.181 -14.616 -25.014  0.00  0.00    -0.244 OA
ATOM     19  C   UNL     1      33.661 -14.096 -24.019  0.00  0.00    +0.346 C 
BRANCH  19  20
ATOM     20  C   UNL     1      33.106 -12.867 -23.397  0.00  0.00    +0.076 C 
ATOM     21  C   UNL     1      33.491 -11.612 -23.869  0.00  0.00    +0.008 C 
ATOM     22  C   UNL     1      32.200 -12.967 -22.340  0.00  0.00    +0.008 C 
ATOM     23  C   UNL     1      32.064 -10.557 -22.229  0.00  0.00    +0.084 C 
ATOM     24  C   UNL     1      32.969 -10.458 -23.285  0.00  0.00    +0.019 C 
ATOM     25  C   UNL     1      31.679 -11.812 -21.756  0.00  0.00    +0.019 C 
BRANCH  23  26
ATOM     26  N   UNL     1      31.541  -9.399 -21.643  0.00  0.00    -0.214 NA
BRANCH  26  29
ATOM     27  N   UNL     1      32.997  -7.515 -21.268  0.00  0.00    -0.370 N 
ATOM     28  N   UNL     1      32.554  -8.987 -19.580  0.00  0.00    -0.370 N 
ATOM     29  C   UNL     1      32.324  -8.659 -20.895  0.00  0.00    +0.193 C 
ATOM     30  H   UNL     1      32.916  -7.174 -22.187  0.00  0.00    +0.159 HD
ATOM     31  H   UNL     1      33.560  -7.041 -20.614  0.00  0.00    +0.159 HD
ATOM     32  H   UNL     1      32.130  -9.784 -19.190  0.00  0.00    +0.159 HD
ATOM     33  H   UNL     1      33.143  -8.422 -19.028  0.00  0.00    +0.159 HD
ENDBRANCH  26  29
ENDBRANCH  23  26
ENDBRANCH  19  20
ENDBRANCH   1  19
TORSDOF 10
ENDMDL
MODEL 9
REMARK VINA RESULT:     -10.3      1.703     11.362
REMARK  Name = 2536
REMARK  10 active torsions:
REMARK  status: ('A' for Active; 'I' for Inactive)
REMARK    1  A    between atoms: O_1  and  C_5
REMARK    2  A    between atoms: O_1  and  C_19
REMARK    3  A    between atoms: C_2  and  C_8
REMARK    4  A    between atoms: C_8  and  C_10
REMARK    5  A    between atoms: C_10  and  O_11
REMARK    6  A    between atoms: O_11  and  C_12
REMARK    7  A    between atoms: C_12  and  C_15
REMARK    8  A    between atoms: C_19  and  C_20
REMARK    9  A    between atoms: C_23  and  N_26
REMARK   10  A    between atoms: N_26  and  C_29
REMARK                            x       y       z     vdW  Elec       q    Type
REMARK                         _______ _______ _______ _____ _____    ______ ____
ROOT
ATOM      1  O   UNL     1      35.440 -18.537 -21.973  0.00  0.00    -0.421 OA
ENDROOT
BRANCH   1   5
ATOM      2  C   UNL     1      34.287 -21.588 -19.406  0.00  0.00    -0.011 C 
ATOM      3  C   UNL     1      35.637 -21.398 -19.702  0.00  0.00    -0.001 C 
ATOM      4  C   UNL     1      33.325 -20.753 -19.974  0.00  0.00    -0.001 C 
ATOM      5  C   UNL     1      35.062 -19.538 -21.132  0.00  0.00    +0.149 C 
ATOM      6  C   UNL     1      36.025 -20.373 -20.564  0.00  0.00    +0.037 C 
ATOM      7  C   UNL     1      33.712 -19.727 -20.836  0.00  0.00    +0.037 C 
BRANCH   2   8
ATOM      8  C   UNL     1      33.868 -22.696 -18.474  0.00  0.00    +0.136 C 
BRANCH   8  10
ATOM      9  O   UNL     1      35.733 -22.120 -17.022  0.00  0.00    -0.250 OA
ATOM     10  C   UNL     1      34.806 -22.867 -17.303  0.00  0.00    +0.322 C 
BRANCH  10  11
ATOM     11  O   UNL     1      34.458 -23.993 -16.596  0.00  0.00    -0.438 OA
BRANCH  11  12
ATOM     12  C   UNL     1      34.897 -24.050 -15.255  0.00  0.00    +0.293 C 
BRANCH  12  15
ATOM     13  O   UNL     1      35.799 -26.190 -15.726  0.00  0.00    -0.271 OA
ATOM     14  N   UNL     1      37.036 -24.861 -14.279  0.00  0.00    -0.273 N 
ATOM     15  C   UNL     1      35.946 -25.132 -15.108  0.00  0.00    +0.270 C 
ATOM     16  C   UNL     1      37.253 -23.616 -13.545  0.00  0.00    +0.115 C 
ATOM     17  C   UNL     1      38.077 -25.867 -14.113  0.00  0.00    +0.115 C 
ENDBRANCH  12  15
ENDBRANCH  11  12
ENDBRANCH  10  11
ENDBRANCH   8  10
ENDBRANCH   2   8
ENDBRANCH   1   5
BRANCH   1  19
ATOM     18  O   UNL     1      35.323 -16.829 -20.391  0.00  0.00    -0.244 OA
ATOM     19  C   UNL     1      35.125 -17.254 -21.519  0.00  0.00    +0.346 C 
BRANCH  19  20
ATOM     20  C   UNL     1      34.489 -16.448 -22.591  0.00  0.00    +0.076 C 
ATOM     21  C   UNL     1      34.617 -16.836 -23.924  0.00  0.00    +0.008 C 
ATOM     22  C   UNL     1      33.763 -15.301 -22.264  0.00  0.00    +0.008 C 
ATOM     23  C   UNL     1      33.293 -14.932 -24.605  0.00  0.00    +0.084 C 
ATOM     24  C   UNL     1      34.018 -16.078 -24.931  0.00  0.00    +0.019 C 
ATOM     25  C   UNL     1      33.165 -14.544 -23.271  0.00  0.00    +0.019 C 
BRANCH  23  26
ATOM     26  N   UNL     1      32.693 -14.173 -25.615  0.00  0.00    -0.214 NA
BRANCH  26  29
ATOM     27  N   UNL     1      33.834 -12.050 -25.591  0.00  0.00    -0.370 N 
ATOM     28  N   UNL     1      33.742 -13.289 -27.505  0.00  0.00    -0.370 N 
ATOM     29  C   UNL     1      33.384 -13.211 -26.180  0.00  0.00    +0.193 C 
ATOM     30  H   UNL     1      33.642 -11.873 -24.642  0.00  0.00    +0.159 HD
ATOM     31  H   UNL     1      34.346 -11.396 -26.120  0.00  0.00    +0.159 HD
ATOM     32  H   UNL     1      33.481 -14.073 -28.041  0.00  0.00    +0.159 HD
ATOM     33  H   UNL     1      34.261 -12.561 -27.918  0.00  0.00    +0.159 HD
ENDBRANCH  26  29
ENDBRANCH  23  26
ENDBRANCH  19  20
ENDBRANCH   1  19
TORSDOF 10
ENDMDL
