MODEL 1
REMARK VINA RESULT:     -11.6      0.000      0.000
REMARK  Name = 6918248
REMARK  5 active torsions:
REMARK  status: ('A' for Active; 'I' for Inactive)
REMARK    1  A    between atoms: N_1  and  C_18
REMARK    2  A    between atoms: N_2  and  C_8
REMARK    3  A    between atoms: C_11  and  C_17
REMARK    4  A    between atoms: C_18  and  C_19
REMARK    5  A    between atoms: C_19  and  N_21
REMARK                            x       y       z     vdW  Elec       q    Type
REMARK                         _______ _______ _______ _____ _____    ______ ____
ROOT
ATOM      1  N   UNL     1      32.321 -12.776 -23.025  0.00  0.00    +0.391 N 
ATOM      2  N   UNL     1      32.318  -9.976 -22.457  0.00  0.00    -0.312 N 
ATOM      3  C   UNL     1      31.776 -12.276 -21.757  0.00  0.00    -0.055 C 
ATOM      4  C   UNL     1      33.440 -11.928 -23.456  0.00  0.00    -0.055 C 
ATOM      5  C   UNL     1      31.267 -10.841 -21.905  0.00  0.00    +0.068 C 
ATOM      6  C   UNL     1      32.986 -10.481 -23.660  0.00  0.00    +0.068 C 
ATOM      7  H   UNL     1      31.589 -12.740 -23.735  0.00  0.00    -0.079 HD
ENDROOT
BRANCH   2   8
ATOM      8  C   UNL     1      32.210  -8.596 -22.250  0.00  0.00    +0.048 C 
ATOM      9  C   UNL     1      32.084  -7.706 -23.335  0.00  0.00    +0.018 C 
ATOM     10  C   UNL     1      32.222  -8.056 -20.948  0.00  0.00    +0.015 C 
ATOM     11  C   UNL     1      31.976  -6.331 -23.127  0.00  0.00    +0.073 C 
ATOM     12  C   UNL     1      32.113  -6.681 -20.740  0.00  0.00    +0.001 C 
ATOM     13  C   UNL     1      31.991  -5.818 -21.829  0.00  0.00    +0.004 C 
BRANCH  11  17
ATOM     14  F   UNL     1      30.620  -5.454 -24.891  0.00  0.00    -0.166 F 
ATOM     15  F   UNL     1      32.038  -4.095 -23.971  0.00  0.00    -0.166 F 
ATOM     16  F   UNL     1      32.747  -5.680 -25.280  0.00  0.00    -0.166 F 
ATOM     17  C   UNL     1      31.846  -5.409 -24.291  0.00  0.00    +0.419 C 
ENDBRANCH  11  17
ENDBRANCH   2   8
BRANCH   1  18
ATOM     18  C   UNL     1      32.754 -14.166 -22.885  0.00  0.00    -0.052 C 
BRANCH  18  19
ATOM     19  C   UNL     1      34.099 -14.372 -23.565  0.00  0.00    +0.088 C 
BRANCH  19  21
ATOM     20  O   UNL     1      33.791 -15.633 -26.289  0.00  0.00    -0.247 OA
ATOM     21  N   UNL     1      34.277 -15.741 -23.963  0.00  0.00    -0.282 N 
ATOM     22  N   UNL     1      34.387 -17.645 -25.200  0.00  0.00    -0.305 N 
ATOM     23  C   UNL     1      34.645 -16.799 -23.114  0.00  0.00    +0.079 A 
ATOM     24  C   UNL     1      34.108 -16.251 -25.283  0.00  0.00    +0.328 A 
ATOM     25  C   UNL     1      34.710 -17.961 -23.879  0.00  0.00    +0.076 A 
ATOM     26  C   UNL     1      34.918 -16.809 -21.762  0.00  0.00    +0.019 C 
ATOM     27  C   UNL     1      35.048 -19.183 -23.340  0.00  0.00    +0.019 C 
ATOM     28  C   UNL     1      35.263 -18.039 -21.191  0.00  0.00    +0.002 C 
ATOM     29  C   UNL     1      35.327 -19.212 -21.971  0.00  0.00    +0.002 C 
ATOM     30  H   UNL     1      34.356 -18.281 -25.950  0.00  0.00    +0.170 HD
ENDBRANCH  19  21
ENDBRANCH  18  19
ENDBRANCH   1  18
TORSDOF 5
ENDMDL
MODEL 2
REMARK VINA RESULT:     -11.6      1.537      2.162
REMARK  Name = 6918248
REMARK  5 active torsions:
REMARK  status: ('A' for Active; 'I' for Inactive)
REMARK    1  A    between atoms: N_1  and  C_18
REMARK    2  A    between atoms: N_2  and  C_8
REMARK    3  A    between atoms: C_11  and  C_17
REMARK    4  A    between atoms: C_18  and  C_19
REMARK    5  A    between atoms: C_19  and  N_21
REMARK                            x       y       z     vdW  Elec       q    Type
REMARK                         _______ _______ _______ _____ _____    ______ ____
ROOT
ATOM      1  N   UNL     1      32.413 -12.865 -23.300  0.00  0.00    +0.391 N 
ATOM      2  N   UNL     1      32.421 -10.137 -22.454  0.00  0.00    -0.312 N 
ATOM      3  C   UNL     1      31.949 -12.504 -21.955  0.00  0.00    -0.055 C 
ATOM      4  C   UNL     1      33.492 -11.960 -23.716  0.00  0.00    -0.055 C 
ATOM      5  C   UNL     1      31.418 -11.070 -21.924  0.00  0.00    +0.068 C 
ATOM      6  C   UNL     1      33.012 -10.508 -23.743  0.00  0.00    +0.068 C 
ATOM      7  H   UNL     1      31.635 -12.770 -23.954  0.00  0.00    -0.079 HD
ENDROOT
BRANCH   2   8
ATOM      8  C   UNL     1      32.314  -8.787 -22.101  0.00  0.00    +0.048 C 
ATOM      9  C   UNL     1      32.135  -7.792 -23.082  0.00  0.00    +0.018 C 
ATOM     10  C   UNL     1      32.381  -8.382 -20.753  0.00  0.00    +0.015 C 
ATOM     11  C   UNL     1      32.027  -6.447 -22.730  0.00  0.00    +0.073 C 
ATOM     12  C   UNL     1      32.273  -7.037 -20.400  0.00  0.00    +0.001 C 
ATOM     13  C   UNL     1      32.097  -6.069 -21.388  0.00  0.00    +0.004 C 
BRANCH  11  17
ATOM     14  F   UNL     1      32.861  -5.361 -24.691  0.00  0.00    -0.166 F 
ATOM     15  F   UNL     1      30.711  -5.591 -24.533  0.00  0.00    -0.166 F 
ATOM     16  F   UNL     1      31.742  -4.150 -23.274  0.00  0.00    -0.166 F 
ATOM     17  C   UNL     1      31.840  -5.411 -23.786  0.00  0.00    +0.419 C 
ENDBRANCH  11  17
ENDBRANCH   2   8
BRANCH   1  18
ATOM     18  C   UNL     1      32.867 -14.255 -23.331  0.00  0.00    -0.052 C 
BRANCH  18  19
ATOM     19  C   UNL     1      34.287 -14.359 -22.795  0.00  0.00    +0.088 C 
BRANCH  19  21
ATOM     20  O   UNL     1      34.856 -15.317 -19.990  0.00  0.00    -0.247 OA
ATOM     21  N   UNL     1      34.570 -15.687 -22.323  0.00  0.00    -0.282 N 
ATOM     22  N   UNL     1      35.053 -17.456 -20.980  0.00  0.00    -0.305 N 
ATOM     23  C   UNL     1      34.636 -16.841 -23.120  0.00  0.00    +0.079 A 
ATOM     24  C   UNL     1      34.828 -16.049 -20.969  0.00  0.00    +0.328 A 
ATOM     25  C   UNL     1      34.933 -17.921 -22.290  0.00  0.00    +0.076 A 
ATOM     26  C   UNL     1      34.461 -17.004 -24.479  0.00  0.00    +0.019 C 
ATOM     27  C   UNL     1      35.068 -19.206 -22.768  0.00  0.00    +0.019 C 
ATOM     28  C   UNL     1      34.593 -18.300 -24.988  0.00  0.00    +0.002 C 
ATOM     29  C   UNL     1      34.893 -19.388 -24.143  0.00  0.00    +0.002 C 
ATOM     30  H   UNL     1      35.258 -18.009 -20.192  0.00  0.00    +0.170 HD
ENDBRANCH  19  21
ENDBRANCH  18  19
ENDBRANCH   1  18
TORSDOF 5
ENDMDL
MODEL 3
REMARK VINA RESULT:     -11.3      5.364     10.448
REMARK  Name = 6918248
REMARK  5 active torsions:
REMARK  status: ('A' for Active; 'I' for Inactive)
REMARK    1  A    between atoms: N_1  and  C_18
REMARK    2  A    between atoms: N_2  and  C_8
REMARK    3  A    between atoms: C_11  and  C_17
REMARK    4  A    between atoms: C_18  and  C_19
REMARK    5  A    between atoms: C_19  and  N_21
REMARK                            x       y       z     vdW  Elec       q    Type
REMARK                         _______ _______ _______ _____ _____    ______ ____
ROOT
ATOM      1  N   UNL     1      32.658 -12.517 -23.167  0.00  0.00    +0.391 N 
ATOM      2  N   UNL     1      33.735 -15.159 -23.318  0.00  0.00    -0.312 N 
ATOM      3  C   UNL     1      33.624 -12.866 -24.216  0.00  0.00    -0.055 C 
ATOM      4  C   UNL     1      32.957 -13.269 -21.942  0.00  0.00    -0.055 C 
ATOM      5  C   UNL     1      33.568 -14.361 -24.539  0.00  0.00    +0.068 C 
ATOM      6  C   UNL     1      32.879 -14.777 -22.190  0.00  0.00    +0.068 C 
ATOM      7  H   UNL     1      31.721 -12.767 -23.486  0.00  0.00    -0.079 HD
ENDROOT
BRANCH   2   8
ATOM      8  C   UNL     1      34.156 -16.486 -23.453  0.00  0.00    +0.048 C 
ATOM      9  C   UNL     1      34.466 -17.268 -22.322  0.00  0.00    +0.018 C 
ATOM     10  C   UNL     1      34.281 -17.082 -24.724  0.00  0.00    +0.015 C 
ATOM     11  C   UNL     1      34.885 -18.592 -22.458  0.00  0.00    +0.073 C 
ATOM     12  C   UNL     1      34.699 -18.406 -24.859  0.00  0.00    +0.001 C 
ATOM     13  C   UNL     1      35.002 -19.161 -23.726  0.00  0.00    +0.004 C 
BRANCH  11  17
ATOM     14  F   UNL     1      34.172 -19.503 -20.364  0.00  0.00    -0.166 F 
ATOM     15  F   UNL     1      35.568 -20.687 -21.528  0.00  0.00    -0.166 F 
ATOM     16  F   UNL     1      36.248 -18.878 -20.531  0.00  0.00    -0.166 F 
ATOM     17  C   UNL     1      35.209 -19.399 -21.247  0.00  0.00    +0.419 C 
ENDBRANCH  11  17
ENDBRANCH   2   8
BRANCH   1  18
ATOM     18  C   UNL     1      32.682 -11.078 -22.905  0.00  0.00    -0.052 C 
BRANCH  18  19
ATOM     19  C   UNL     1      31.597 -10.704 -21.908  0.00  0.00    +0.088 C 
BRANCH  19  21
ATOM     20  O   UNL     1      32.405  -9.868 -19.123  0.00  0.00    -0.247 OA
ATOM     21  N   UNL     1      31.811  -9.386 -21.375  0.00  0.00    -0.282 N 
ATOM     22  N   UNL     1      32.285  -7.664 -19.970  0.00  0.00    -0.305 N 
ATOM     23  C   UNL     1      31.677  -8.184 -22.090  0.00  0.00    +0.079 A 
ATOM     24  C   UNL     1      32.194  -9.084 -20.037  0.00  0.00    +0.328 A 
ATOM     25  C   UNL     1      31.969  -7.133 -21.222  0.00  0.00    +0.076 A 
ATOM     26  C   UNL     1      31.328  -7.956 -23.405  0.00  0.00    +0.019 C 
ATOM     27  C   UNL     1      31.928  -5.814 -21.617  0.00  0.00    +0.019 C 
ATOM     28  C   UNL     1      31.280  -6.625 -23.830  0.00  0.00    +0.002 C 
ATOM     29  C   UNL     1      31.576  -5.566 -22.947  0.00  0.00    +0.002 C 
ATOM     30  H   UNL     1      32.531  -7.143 -19.172  0.00  0.00    +0.170 HD
ENDBRANCH  19  21
ENDBRANCH  18  19
ENDBRANCH   1  18
TORSDOF 5
ENDMDL
MODEL 4
REMARK VINA RESULT:     -11.1      6.829     10.254
REMARK  Name = 6918248
REMARK  5 active torsions:
REMARK  status: ('A' for Active; 'I' for Inactive)
REMARK    1  A    between atoms: N_1  and  C_18
REMARK    2  A    between atoms: N_2  and  C_8
REMARK    3  A    between atoms: C_11  and  C_17
REMARK    4  A    between atoms: C_18  and  C_19
REMARK    5  A    between atoms: C_19  and  N_21
REMARK                            x       y       z     vdW  Elec       q    Type
REMARK                         _______ _______ _______ _____ _____    ______ ____
ROOT
ATOM      1  N   UNL     1      34.970 -20.963 -19.331  0.00  0.00    +0.391 N 
ATOM      2  N   UNL     1      34.726 -19.259 -21.612  0.00  0.00    -0.312 N 
ATOM      3  C   UNL     1      36.127 -20.716 -20.200  0.00  0.00    -0.055 C 
ATOM      4  C   UNL     1      33.737 -20.960 -20.130  0.00  0.00    -0.055 C 
ATOM      5  C   UNL     1      36.007 -19.360 -20.901  0.00  0.00    +0.068 C 
ATOM      6  C   UNL     1      33.538 -19.613 -20.828  0.00  0.00    +0.068 C 
ATOM      7  H   UNL     1      34.913 -20.218 -18.637  0.00  0.00    -0.079 HD
ENDROOT
BRANCH   2   8
ATOM      8  C   UNL     1      34.622 -18.326 -22.648  0.00  0.00    +0.048 C 
ATOM      9  C   UNL     1      34.374 -16.965 -22.379  0.00  0.00    +0.018 C 
ATOM     10  C   UNL     1      34.762 -18.718 -23.995  0.00  0.00    +0.015 C 
ATOM     11  C   UNL     1      34.271 -16.035 -23.413  0.00  0.00    +0.073 C 
ATOM     12  C   UNL     1      34.661 -17.788 -25.029  0.00  0.00    +0.001 C 
ATOM     13  C   UNL     1      34.414 -16.446 -24.739  0.00  0.00    +0.004 C 
BRANCH  11  17
ATOM     14  F   UNL     1      34.208 -13.765 -24.165  0.00  0.00    -0.166 F 
ATOM     15  F   UNL     1      32.728 -14.356 -22.694  0.00  0.00    -0.166 F 
ATOM     16  F   UNL     1      34.808 -14.123 -22.106  0.00  0.00    -0.166 F 
ATOM     17  C   UNL     1      34.008 -14.601 -23.103  0.00  0.00    +0.419 C 
ENDBRANCH  11  17
ENDBRANCH   2   8
BRANCH   1  18
ATOM     18  C   UNL     1      35.121 -22.235 -18.626  0.00  0.00    -0.052 C 
BRANCH  18  19
ATOM     19  C   UNL     1      33.757 -22.837 -18.323  0.00  0.00    +0.088 C 
BRANCH  19  21
ATOM     20  O   UNL     1      35.867 -23.518 -16.273  0.00  0.00    -0.247 OA
ATOM     21  N   UNL     1      33.612 -23.118 -16.920  0.00  0.00    -0.282 N 
ATOM     22  N   UNL     1      34.060 -23.632 -14.752  0.00  0.00    -0.305 N 
ATOM     23  C   UNL     1      32.400 -23.128 -16.209  0.00  0.00    +0.079 A 
ATOM     24  C   UNL     1      34.673 -23.433 -16.022  0.00  0.00    +0.328 A 
ATOM     25  C   UNL     1      32.683 -23.444 -14.882  0.00  0.00    +0.076 A 
ATOM     26  C   UNL     1      31.110 -22.888 -16.634  0.00  0.00    +0.019 C 
ATOM     27  C   UNL     1      31.703 -23.534 -13.918  0.00  0.00    +0.019 C 
ATOM     28  C   UNL     1      30.097 -22.974 -15.674  0.00  0.00    +0.002 C 
ATOM     29  C   UNL     1      30.390 -23.294 -14.331  0.00  0.00    +0.002 C 
ATOM     30  H   UNL     1      34.531 -23.863 -13.919  0.00  0.00    +0.170 HD
ENDBRANCH  19  21
ENDBRANCH  18  19
ENDBRANCH   1  18
TORSDOF 5
ENDMDL
MODEL 5
REMARK VINA RESULT:     -11.1      7.592     10.886
REMARK  Name = 6918248
REMARK  5 active torsions:
REMARK  status: ('A' for Active; 'I' for Inactive)
REMARK    1  A    between atoms: N_1  and  C_18
REMARK    2  A    between atoms: N_2  and  C_8
REMARK    3  A    between atoms: C_11  and  C_17
REMARK    4  A    between atoms: C_18  and  C_19
REMARK    5  A    between atoms: C_19  and  N_21
REMARK                            x       y       z     vdW  Elec       q    Type
REMARK                         _______ _______ _______ _____ _____    ______ ____
ROOT
ATOM      1  N   UNL     1      33.961 -22.329 -19.483  0.00  0.00    +0.391 N 
ATOM      2  N   UNL     1      34.433 -19.797 -20.719  0.00  0.00    -0.312 N 
ATOM      3  C   UNL     1      32.920 -21.295 -19.478  0.00  0.00    -0.055 C 
ATOM      4  C   UNL     1      35.287 -21.702 -19.412  0.00  0.00    -0.055 C 
ATOM      5  C   UNL     1      33.074 -20.354 -20.674  0.00  0.00    +0.068 C 
ATOM      6  C   UNL     1      35.521 -20.773 -20.605  0.00  0.00    +0.068 C 
ATOM      7  H   UNL     1      33.895 -22.860 -20.352  0.00  0.00    -0.079 HD
ENDROOT
BRANCH   2   8
ATOM      8  C   UNL     1      34.634 -18.613 -21.436  0.00  0.00    +0.048 C 
ATOM      9  C   UNL     1      34.264 -17.365 -20.895  0.00  0.00    +0.018 C 
ATOM     10  C   UNL     1      35.215 -18.631 -22.720  0.00  0.00    +0.015 C 
ATOM     11  C   UNL     1      34.466 -16.184 -21.610  0.00  0.00    +0.073 C 
ATOM     12  C   UNL     1      35.417 -17.450 -23.434  0.00  0.00    +0.001 C 
ATOM     13  C   UNL     1      35.042 -16.226 -22.880  0.00  0.00    +0.004 C 
BRANCH  11  17
ATOM     14  F   UNL     1      33.793 -13.914 -21.948  0.00  0.00    -0.166 F 
ATOM     15  F   UNL     1      32.942 -14.948 -20.242  0.00  0.00    -0.166 F 
ATOM     16  F   UNL     1      35.031 -14.345 -20.213  0.00  0.00    -0.166 F 
ATOM     17  C   UNL     1      34.064 -14.876 -21.018  0.00  0.00    +0.419 C 
ENDBRANCH  11  17
ENDBRANCH   2   8
BRANCH   1  18
ATOM     18  C   UNL     1      33.771 -23.255 -18.367  0.00  0.00    -0.052 C 
BRANCH  18  19
ATOM     19  C   UNL     1      34.427 -22.708 -17.108  0.00  0.00    +0.088 C 
BRANCH  19  21
ATOM     20  O   UNL     1      36.220 -24.553 -15.528  0.00  0.00    -0.247 OA
ATOM     21  N   UNL     1      34.120 -23.524 -15.964  0.00  0.00    -0.282 N 
ATOM     22  N   UNL     1      34.294 -24.974 -14.223  0.00  0.00    -0.305 N 
ATOM     23  C   UNL     1      32.865 -23.617 -15.340  0.00  0.00    +0.079 A 
ATOM     24  C   UNL     1      35.037 -24.370 -15.278  0.00  0.00    +0.328 A 
ATOM     25  C   UNL     1      32.980 -24.507 -14.275  0.00  0.00    +0.076 A 
ATOM     26  C   UNL     1      31.669 -22.994 -15.634  0.00  0.00    +0.019 C 
ATOM     27  C   UNL     1      31.918 -24.819 -13.454  0.00  0.00    +0.019 C 
ATOM     28  C   UNL     1      30.576 -23.295 -14.815  0.00  0.00    +0.002 C 
ATOM     29  C   UNL     1      30.699 -24.198 -13.737  0.00  0.00    +0.002 C 
ATOM     30  H   UNL     1      34.649 -25.615 -13.566  0.00  0.00    +0.170 HD
ENDBRANCH  19  21
ENDBRANCH  18  19
ENDBRANCH   1  18
TORSDOF 5
ENDMDL
MODEL 6
REMARK VINA RESULT:     -11.0      5.797     10.577
REMARK  Name = 6918248
REMARK  5 active torsions:
REMARK  status: ('A' for Active; 'I' for Inactive)
REMARK    1  A    between atoms: N_1  and  C_18
REMARK    2  A    between atoms: N_2  and  C_8
REMARK    3  A    between atoms: C_11  and  C_17
REMARK    4  A    between atoms: C_18  and  C_19
REMARK    5  A    between atoms: C_19  and  N_21
REMARK                            x       y       z     vdW  Elec       q    Type
REMARK                         _______ _______ _______ _____ _____    ______ ____
ROOT
ATOM      1  N   UNL     1      32.772 -13.651 -22.598  0.00  0.00    +0.391 N 
ATOM      2  N   UNL     1      33.949 -16.116 -21.758  0.00  0.00    -0.312 N 
ATOM      3  C   UNL     1      34.008 -14.135 -23.224  0.00  0.00    -0.055 C 
ATOM      4  C   UNL     1      32.740 -14.047 -21.184  0.00  0.00    -0.055 C 
ATOM      5  C   UNL     1      34.104 -15.660 -23.145  0.00  0.00    +0.068 C 
ATOM      6  C   UNL     1      32.794 -15.569 -21.038  0.00  0.00    +0.068 C 
ATOM      7  H   UNL     1      31.974 -14.073 -23.075  0.00  0.00    -0.079 HD
ENDROOT
BRANCH   2   8
ATOM      8  C   UNL     1      34.442 -17.381 -21.423  0.00  0.00    +0.048 C 
ATOM      9  C   UNL     1      33.573 -18.419 -21.033  0.00  0.00    +0.018 C 
ATOM     10  C   UNL     1      35.824 -17.656 -21.466  0.00  0.00    +0.015 C 
ATOM     11  C   UNL     1      34.065 -19.681 -20.700  0.00  0.00    +0.073 C 
ATOM     12  C   UNL     1      36.316 -18.918 -21.133  0.00  0.00    +0.001 C 
ATOM     13  C   UNL     1      35.437 -19.931 -20.749  0.00  0.00    +0.004 C 
BRANCH  11  17
ATOM     14  F   UNL     1      32.130 -20.997 -21.194  0.00  0.00    -0.166 F 
ATOM     15  F   UNL     1      33.732 -21.974 -20.106  0.00  0.00    -0.166 F 
ATOM     16  F   UNL     1      32.493 -20.491 -19.111  0.00  0.00    -0.166 F 
ATOM     17  C   UNL     1      33.126 -20.764 -20.289  0.00  0.00    +0.419 C 
ENDBRANCH  11  17
ENDBRANCH   2   8
BRANCH   1  18
ATOM     18  C   UNL     1      32.665 -12.199 -22.727  0.00  0.00    -0.052 C 
BRANCH  18  19
ATOM     19  C   UNL     1      31.420 -11.695 -22.012  0.00  0.00    +0.088 C 
BRANCH  19  21
ATOM     20  O   UNL     1      31.527 -11.272 -19.025  0.00  0.00    -0.247 OA
ATOM     21  N   UNL     1      31.697 -10.496 -21.268  0.00  0.00    -0.282 N 
ATOM     22  N   UNL     1      32.038  -9.028 -19.567  0.00  0.00    -0.305 N 
ATOM     23  C   UNL     1      31.983  -9.237 -21.822  0.00  0.00    +0.079 A 
ATOM     24  C   UNL     1      31.726 -10.389 -19.847  0.00  0.00    +0.328 A 
ATOM     25  C   UNL     1      32.190  -8.343 -20.773  0.00  0.00    +0.076 A 
ATOM     26  C   UNL     1      32.070  -8.836 -23.139  0.00  0.00    +0.019 C 
ATOM     27  C   UNL     1      32.493  -7.016 -20.983  0.00  0.00    +0.019 C 
ATOM     28  C   UNL     1      32.377  -7.492 -23.377  0.00  0.00    +0.002 C 
ATOM     29  C   UNL     1      32.586  -6.592 -22.311  0.00  0.00    +0.002 C 
ATOM     30  H   UNL     1      32.131  -8.635 -18.669  0.00  0.00    +0.170 HD
ENDBRANCH  19  21
ENDBRANCH  18  19
ENDBRANCH   1  18
TORSDOF 5
ENDMDL
MODEL 7
REMARK VINA RESULT:     -10.9      6.044     10.524
REMARK  Name = 6918248
REMARK  5 active torsions:
REMARK  status: ('A' for Active; 'I' for Inactive)
REMARK    1  A    between atoms: N_1  and  C_18
REMARK    2  A    between atoms: N_2  and  C_8
REMARK    3  A    between atoms: C_11  and  C_17
REMARK    4  A    between atoms: C_18  and  C_19
REMARK    5  A    between atoms: C_19  and  N_21
REMARK                            x       y       z     vdW  Elec       q    Type
REMARK                         _______ _______ _______ _____ _____    ______ ____
ROOT
ATOM      1  N   UNL     1      34.539 -14.928 -23.042  0.00  0.00    +0.391 N 
ATOM      2  N   UNL     1      34.177 -17.473 -21.795  0.00  0.00    -0.312 N 
ATOM      3  C   UNL     1      33.904 -15.024 -21.722  0.00  0.00    -0.055 C 
ATOM      4  C   UNL     1      34.199 -16.109 -23.846  0.00  0.00    -0.055 C 
ATOM      5  C   UNL     1      34.379 -16.272 -20.974  0.00  0.00    +0.068 C 
ATOM      6  C   UNL     1      34.683 -17.393 -23.169  0.00  0.00    +0.068 C 
ATOM      7  H   UNL     1      35.551 -14.894 -22.920  0.00  0.00    -0.079 HD
ENDROOT
BRANCH   2   8
ATOM      8  C   UNL     1      34.121 -18.711 -21.146  0.00  0.00    +0.048 C 
ATOM      9  C   UNL     1      35.287 -19.321 -20.643  0.00  0.00    +0.018 C 
ATOM     10  C   UNL     1      32.895 -19.386 -20.975  0.00  0.00    +0.015 C 
ATOM     11  C   UNL     1      35.230 -20.555 -19.995  0.00  0.00    +0.073 C 
ATOM     12  C   UNL     1      32.838 -20.620 -20.327  0.00  0.00    +0.001 C 
ATOM     13  C   UNL     1      34.006 -21.205 -19.837  0.00  0.00    +0.004 C 
BRANCH  11  17
ATOM     14  F   UNL     1      36.252 -22.218 -18.613  0.00  0.00    -0.166 F 
ATOM     15  F   UNL     1      37.283 -21.696 -20.448  0.00  0.00    -0.166 F 
ATOM     16  F   UNL     1      37.259 -20.299 -18.782  0.00  0.00    -0.166 F 
ATOM     17  C   UNL     1      36.478 -21.181 -19.472  0.00  0.00    +0.419 C 
ENDBRANCH  11  17
ENDBRANCH   2   8
BRANCH   1  18
ATOM     18  C   UNL     1      34.120 -13.704 -23.724  0.00  0.00    -0.052 C 
BRANCH  18  19
ATOM     19  C   UNL     1      32.719 -13.306 -23.285  0.00  0.00    +0.088 C 
BRANCH  19  21
ATOM     20  O   UNL     1      33.534 -10.879 -24.883  0.00  0.00    -0.247 OA
ATOM     21  N   UNL     1      32.661 -11.915 -22.928  0.00  0.00    -0.282 N 
ATOM     22  N   UNL     1      32.833  -9.650 -22.990  0.00  0.00    -0.305 N 
ATOM     23  C   UNL     1      32.190 -11.403 -21.707  0.00  0.00    +0.079 A 
ATOM     24  C   UNL     1      33.071 -10.828 -23.753  0.00  0.00    +0.328 A 
ATOM     25  C   UNL     1      32.299 -10.015 -21.753  0.00  0.00    +0.076 A 
ATOM     26  C   UNL     1      31.690 -12.051 -20.596  0.00  0.00    +0.019 C 
ATOM     27  C   UNL     1      31.917  -9.208 -20.703  0.00  0.00    +0.019 C 
ATOM     28  C   UNL     1      31.296 -11.253 -19.517  0.00  0.00    +0.002 C 
ATOM     29  C   UNL     1      31.408  -9.848 -19.570  0.00  0.00    +0.002 C 
ATOM     30  H   UNL     1      33.014  -8.729 -23.286  0.00  0.00    +0.170 HD
ENDBRANCH  19  21
ENDBRANCH  18  19
ENDBRANCH   1  18
TORSDOF 5
ENDMDL
MODEL 8
REMARK VINA RESULT:     -10.9      7.812     11.082
REMARK  Name = 6918248
REMARK  5 active torsions:
REMARK  status: ('A' for Active; 'I' for Inactive)
REMARK    1  A    between atoms: N_1  and  C_18
REMARK    2  A    between atoms: N_2  and  C_8
REMARK    3  A    between atoms: C_11  and  C_17
REMARK    4  A    between atoms: C_18  and  C_19
REMARK    5  A    between atoms: C_19  and  N_21
REMARK                            x       y       z     vdW  Elec       q    Type
REMARK                         _______ _______ _______ _____ _____    ______ ____
ROOT
ATOM      1  N   UNL     1      34.003 -22.266 -19.534  0.00  0.00    +0.391 N 
ATOM      2  N   UNL     1      34.364 -19.704 -20.746  0.00  0.00    -0.312 N 
ATOM      3  C   UNL     1      32.926 -21.269 -19.497  0.00  0.00    -0.055 C 
ATOM      4  C   UNL     1      35.307 -21.594 -19.479  0.00  0.00    -0.055 C 
ATOM      5  C   UNL     1      33.026 -20.308 -20.684  0.00  0.00    +0.068 C 
ATOM      6  C   UNL     1      35.487 -20.643 -20.664  0.00  0.00    +0.068 C 
ATOM      7  H   UNL     1      33.939 -22.788 -20.409  0.00  0.00    -0.079 HD
ENDROOT
BRANCH   2   8
ATOM      8  C   UNL     1      34.511 -18.505 -21.451  0.00  0.00    +0.048 C 
ATOM      9  C   UNL     1      34.447 -18.477 -22.858  0.00  0.00    +0.018 C 
ATOM     10  C   UNL     1      34.727 -17.287 -20.774  0.00  0.00    +0.015 C 
ATOM     11  C   UNL     1      34.593 -17.280 -23.560  0.00  0.00    +0.073 C 
ATOM     12  C   UNL     1      34.872 -16.091 -21.476  0.00  0.00    +0.001 C 
ATOM     13  C   UNL     1      34.806 -16.087 -22.869  0.00  0.00    +0.004 C 
BRANCH  11  17
ATOM     14  F   UNL     1      33.370 -16.733 -25.541  0.00  0.00    -0.166 F 
ATOM     15  F   UNL     1      35.530 -16.570 -25.642  0.00  0.00    -0.166 F 
ATOM     16  F   UNL     1      34.592 -18.530 -25.583  0.00  0.00    -0.166 F 
ATOM     17  C   UNL     1      34.522 -17.276 -25.049  0.00  0.00    +0.419 C 
ENDBRANCH  11  17
ENDBRANCH   2   8
BRANCH   1  18
ATOM     18  C   UNL     1      33.865 -23.212 -18.427  0.00  0.00    -0.052 C 
BRANCH  18  19
ATOM     19  C   UNL     1      34.459 -22.626 -17.155  0.00  0.00    +0.088 C 
BRANCH  19  21
ATOM     20  O   UNL     1      36.308 -24.411 -15.571  0.00  0.00    -0.247 OA
ATOM     21  N   UNL     1      34.174 -23.458 -16.017  0.00  0.00    -0.282 N 
ATOM     22  N   UNL     1      34.390 -24.909 -14.281  0.00  0.00    -0.305 N 
ATOM     23  C   UNL     1      32.919 -23.600 -15.401  0.00  0.00    +0.079 A 
ATOM     24  C   UNL     1      35.118 -24.273 -15.328  0.00  0.00    +0.328 A 
ATOM     25  C   UNL     1      33.060 -24.490 -14.339  0.00  0.00    +0.076 A 
ATOM     26  C   UNL     1      31.703 -23.021 -15.701  0.00  0.00    +0.019 C 
ATOM     27  C   UNL     1      32.005 -24.845 -13.527  0.00  0.00    +0.019 C 
ATOM     28  C   UNL     1      30.617 -23.366 -14.890  0.00  0.00    +0.002 C 
ATOM     29  C   UNL     1      30.765 -24.268 -13.816  0.00  0.00    +0.002 C 
ATOM     30  H   UNL     1      34.764 -25.539 -13.624  0.00  0.00    +0.170 HD
ENDBRANCH  19  21
ENDBRANCH  18  19
ENDBRANCH   1  18
TORSDOF 5
ENDMDL
MODEL 9
REMARK VINA RESULT:     -10.8      7.712     11.167
REMARK  Name = 6918248
REMARK  5 active torsions:
REMARK  status: ('A' for Active; 'I' for Inactive)
REMARK    1  A    between atoms: N_1  and  C_18
REMARK    2  A    between atoms: N_2  and  C_8
REMARK    3  A    between atoms: C_11  and  C_17
REMARK    4  A    between atoms: C_18  and  C_19
REMARK    5  A    between atoms: C_19  and  N_21
REMARK                            x       y       z     vdW  Elec       q    Type
REMARK                         _______ _______ _______ _____ _____    ______ ____
ROOT
ATOM      1  N   UNL     1      34.304 -22.350 -18.984  0.00  0.00    +0.391 N 
ATOM      2  N   UNL     1      34.598 -20.013 -20.601  0.00  0.00    -0.312 N 
ATOM      3  C   UNL     1      33.183 -21.417 -19.150  0.00  0.00    -0.055 C 
ATOM      4  C   UNL     1      35.574 -21.613 -19.003  0.00  0.00    -0.055 C 
ATOM      5  C   UNL     1      33.287 -20.665 -20.479  0.00  0.00    +0.068 C 
ATOM      6  C   UNL     1      35.757 -20.868 -20.327  0.00  0.00    +0.068 C 
ATOM      7  H   UNL     1      34.298 -23.014 -19.759  0.00  0.00    -0.079 HD
ENDROOT
BRANCH   2   8
ATOM      8  C   UNL     1      34.719 -18.943 -21.494  0.00  0.00    +0.048 C 
ATOM      9  C   UNL     1      34.467 -17.620 -21.081  0.00  0.00    +0.018 C 
ATOM     10  C   UNL     1      35.097 -19.157 -22.835  0.00  0.00    +0.015 C 
ATOM     11  C   UNL     1      34.589 -16.554 -21.972  0.00  0.00    +0.073 C 
ATOM     12  C   UNL     1      35.220 -18.090 -23.726  0.00  0.00    +0.001 C 
ATOM     13  C   UNL     1      34.965 -16.788 -23.295  0.00  0.00    +0.004 C 
BRANCH  11  17
ATOM     14  F   UNL     1      34.726 -14.203 -22.393  0.00  0.00    -0.166 F 
ATOM     15  F   UNL     1      32.991 -14.906 -21.298  0.00  0.00    -0.166 F 
ATOM     16  F   UNL     1      34.939 -14.867 -20.333  0.00  0.00    -0.166 F 
ATOM     17  C   UNL     1      34.316 -15.162 -21.511  0.00  0.00    +0.419 C 
ENDBRANCH  11  17
ENDBRANCH   2   8
BRANCH   1  18
ATOM     18  C   UNL     1      34.165 -23.102 -17.737  0.00  0.00    -0.052 C 
BRANCH  18  19
ATOM     19  C   UNL     1      35.166 -22.605 -16.706  0.00  0.00    +0.088 C 
BRANCH  19  21
ATOM     20  O   UNL     1      32.850 -23.400 -14.941  0.00  0.00    -0.247 OA
ATOM     21  N   UNL     1      35.155 -23.431 -15.529  0.00  0.00    -0.282 N 
ATOM     22  N   UNL     1      34.472 -24.588 -13.696  0.00  0.00    -0.305 N 
ATOM     23  C   UNL     1      36.277 -24.051 -14.955  0.00  0.00    +0.079 A 
ATOM     24  C   UNL     1      34.005 -23.755 -14.753  0.00  0.00    +0.328 A 
ATOM     25  C   UNL     1      35.851 -24.758 -13.833  0.00  0.00    +0.076 A 
ATOM     26  C   UNL     1      37.603 -24.038 -15.338  0.00  0.00    +0.019 C 
ATOM     27  C   UNL     1      36.716 -25.482 -13.042  0.00  0.00    +0.019 C 
ATOM     28  C   UNL     1      38.500 -24.766 -14.550  0.00  0.00    +0.002 C 
ATOM     29  C   UNL     1      38.062 -25.479 -13.415  0.00  0.00    +0.002 C 
ATOM     30  H   UNL     1      33.914 -24.980 -12.987  0.00  0.00    +0.170 HD
ENDBRANCH  19  21
ENDBRANCH  18  19
ENDBRANCH   1  18
TORSDOF 5
ENDMDL
