MODEL 1
REMARK VINA RESULT:      -9.7      0.000      0.000
REMARK  Name = 49837968
REMARK  3 active torsions:
REMARK  status: ('A' for Active; 'I' for Inactive)
REMARK    1  A    between atoms: C_2  and  C_12
REMARK    2  A    between atoms: C_5  and  N_21
REMARK    3  A    between atoms: C_22  and  C_26
REMARK                            x       y       z     vdW  Elec       q    Type
REMARK                         _______ _______ _______ _____ _____    ______ ____
ROOT
ATOM      1  F   UNL     1      32.915 -25.330 -12.716  0.00  0.00    -0.204 F 
ATOM      2  C   UNL     1      34.346 -23.982 -14.046  0.00  0.00    +0.029 C 
ATOM      3  C   UNL     1      34.536 -23.200 -15.186  0.00  0.00    +0.015 C 
ATOM      4  C   UNL     1      33.108 -24.578 -13.810  0.00  0.00    +0.138 C 
ATOM      5  C   UNL     1      33.489 -23.015 -16.088  0.00  0.00    +0.050 C 
ATOM      6  C   UNL     1      32.059 -24.393 -14.711  0.00  0.00    +0.031 C 
ATOM      7  C   UNL     1      32.250 -23.611 -15.851  0.00  0.00    +0.017 C 
ENDROOT
BRANCH   2  12
ATOM      8  S   UNL     1      37.481 -24.988 -15.175  0.00  0.00    -0.081 S 
ATOM      9  O   UNL     1      36.150 -23.509 -10.843  0.00  0.00    -0.351 OA
ATOM     10  N   UNL     1      35.956 -25.584 -13.042  0.00  0.00    -0.248 NA
ATOM     11  N   UNL     1      37.241 -27.307 -13.971  0.00  0.00    -0.338 N 
ATOM     12  C   UNL     1      35.495 -24.181 -13.062  0.00  0.00    +0.137 C 
ATOM     13  C   UNL     1      36.696 -23.229 -13.130  0.00  0.00    +0.068 C 
ATOM     14  C   UNL     1      35.005 -23.870 -11.632  0.00  0.00    +0.169 C 
ATOM     15  C   UNL     1      37.268 -23.330 -11.719  0.00  0.00    +0.145 C 
ATOM     16  C   UNL     1      37.749 -23.482 -14.207  0.00  0.00    +0.070 C 
ATOM     17  C   UNL     1      36.799 -26.013 -13.920  0.00  0.00    +0.148 C 
ATOM     18  H   UNL     1      37.885 -27.579 -14.664  0.00  0.00    +0.144 HD
ATOM     19  H   UNL     1      36.917 -27.964 -13.316  0.00  0.00    +0.144 HD
ENDBRANCH   2  12
BRANCH   5  21
ATOM     20  O   UNL     1      33.814 -23.818 -18.958  0.00  0.00    -0.268 OA
ATOM     21  N   UNL     1      33.679 -22.232 -17.228  0.00  0.00    -0.279 N 
ATOM     22  C   UNL     1      33.826 -22.661 -18.554  0.00  0.00    +0.267 C 
ATOM     23  H   UNL     1      33.715 -21.260 -17.081  0.00  0.00    +0.155 HD
BRANCH  22  26
ATOM     24  F   UNL     1      34.243 -18.600 -22.316  0.00  0.00    -0.203 F 
ATOM     25  N   UNL     1      32.837 -21.037 -20.026  0.00  0.00    -0.237 NA
ATOM     26  C   UNL     1      33.986 -21.577 -19.559  0.00  0.00    +0.135 C 
ATOM     27  C   UNL     1      35.250 -21.180 -19.963  0.00  0.00    +0.026 C 
ATOM     28  C   UNL     1      35.343 -20.162 -20.905  0.00  0.00    +0.033 C 
ATOM     29  C   UNL     1      32.968 -20.050 -20.941  0.00  0.00    +0.129 C 
ATOM     30  C   UNL     1      34.184 -19.582 -21.409  0.00  0.00    +0.159 C 
ENDBRANCH  22  26
ENDBRANCH   5  21
TORSDOF 3
ENDMDL
MODEL 2
REMARK VINA RESULT:      -9.3     11.430     15.667
REMARK  Name = 49837968
REMARK  3 active torsions:
REMARK  status: ('A' for Active; 'I' for Inactive)
REMARK    1  A    between atoms: C_2  and  C_12
REMARK    2  A    between atoms: C_5  and  N_21
REMARK    3  A    between atoms: C_22  and  C_26
REMARK                            x       y       z     vdW  Elec       q    Type
REMARK                         _______ _______ _______ _____ _____    ______ ____
ROOT
ATOM      1  F   UNL     1      34.103  -6.790 -23.736  0.00  0.00    -0.204 F 
ATOM      2  C   UNL     1      33.092  -8.920 -23.465  0.00  0.00    +0.029 C 
ATOM      3  C   UNL     1      33.138 -10.301 -23.660  0.00  0.00    +0.015 C 
ATOM      4  C   UNL     1      34.138  -8.118 -23.920  0.00  0.00    +0.138 C 
ATOM      5  C   UNL     1      34.228 -10.878 -24.310  0.00  0.00    +0.050 C 
ATOM      6  C   UNL     1      35.229  -8.695 -24.570  0.00  0.00    +0.031 C 
ATOM      7  C   UNL     1      35.274 -10.075 -24.765  0.00  0.00    +0.017 C 
ENDROOT
BRANCH   2  12
ATOM      8  S   UNL     1      32.540  -9.525 -20.082  0.00  0.00    -0.081 S 
ATOM      9  O   UNL     1      30.369  -6.448 -23.005  0.00  0.00    -0.351 OA
ATOM     10  N   UNL     1      30.963  -9.322 -22.251  0.00  0.00    -0.248 NA
ATOM     11  N   UNL     1      30.361 -10.885 -20.615  0.00  0.00    -0.338 N 
ATOM     12  C   UNL     1      31.897  -8.293 -22.752  0.00  0.00    +0.137 C 
ATOM     13  C   UNL     1      32.156  -7.238 -21.668  0.00  0.00    +0.068 C 
ATOM     14  C   UNL     1      31.095  -7.436 -23.754  0.00  0.00    +0.169 C 
ATOM     15  C   UNL     1      30.843  -6.461 -21.655  0.00  0.00    +0.145 C 
ATOM     16  C   UNL     1      32.562  -7.725 -20.279  0.00  0.00    +0.070 C 
ATOM     17  C   UNL     1      31.173  -9.906 -21.119  0.00  0.00    +0.148 C 
ATOM     18  H   UNL     1      30.569 -11.297 -19.746  0.00  0.00    +0.144 HD
ATOM     19  H   UNL     1      29.569 -11.177 -21.121  0.00  0.00    +0.144 HD
ENDBRANCH   2  12
BRANCH   5  21
ATOM     20  O   UNL     1      33.216 -13.113 -22.586  0.00  0.00    -0.268 OA
ATOM     21  N   UNL     1      34.275 -12.259 -24.504  0.00  0.00    -0.279 N 
ATOM     22  C   UNL     1      33.784 -13.266 -23.662  0.00  0.00    +0.267 C 
ATOM     23  H   UNL     1      34.706 -12.563 -25.335  0.00  0.00    +0.155 HD
BRANCH  22  26
ATOM     24  F   UNL     1      34.543 -18.489 -25.383  0.00  0.00    -0.203 F 
ATOM     25  N   UNL     1      34.718 -15.465 -23.388  0.00  0.00    -0.237 NA
ATOM     26  C   UNL     1      33.960 -14.656 -24.162  0.00  0.00    +0.135 C 
ATOM     27  C   UNL     1      33.367 -15.051 -25.350  0.00  0.00    +0.026 C 
ATOM     28  C   UNL     1      33.564 -16.361 -25.771  0.00  0.00    +0.033 C 
ATOM     29  C   UNL     1      34.887 -16.731 -23.830  0.00  0.00    +0.129 C 
ATOM     30  C   UNL     1      34.338 -17.223 -25.003  0.00  0.00    +0.159 C 
ENDBRANCH  22  26
ENDBRANCH   5  21
TORSDOF 3
ENDMDL
MODEL 3
REMARK VINA RESULT:      -9.3      2.274      3.061
REMARK  Name = 49837968
REMARK  3 active torsions:
REMARK  status: ('A' for Active; 'I' for Inactive)
REMARK    1  A    between atoms: C_2  and  C_12
REMARK    2  A    between atoms: C_5  and  N_21
REMARK    3  A    between atoms: C_22  and  C_26
REMARK                            x       y       z     vdW  Elec       q    Type
REMARK                         _______ _______ _______ _____ _____    ______ ____
ROOT
ATOM      1  F   UNL     1      35.217 -25.556 -13.944  0.00  0.00    -0.204 F 
ATOM      2  C   UNL     1      36.451 -23.942 -15.170  0.00  0.00    +0.029 C 
ATOM      3  C   UNL     1      36.491 -22.974 -16.174  0.00  0.00    +0.015 C 
ATOM      4  C   UNL     1      35.264 -24.625 -14.908  0.00  0.00    +0.138 C 
ATOM      5  C   UNL     1      35.345 -22.689 -16.915  0.00  0.00    +0.050 C 
ATOM      6  C   UNL     1      34.117 -24.341 -15.648  0.00  0.00    +0.031 C 
ATOM      7  C   UNL     1      34.157 -23.373 -16.651  0.00  0.00    +0.017 C 
ENDROOT
BRANCH   2  12
ATOM      8  S   UNL     1      36.230 -24.676 -11.774  0.00  0.00    -0.081 S 
ATOM      9  O   UNL     1      39.980 -24.978 -14.702  0.00  0.00    -0.351 OA
ATOM     10  N   UNL     1      37.928 -23.250 -13.296  0.00  0.00    -0.248 NA
ATOM     11  N   UNL     1      37.462 -22.446 -11.147  0.00  0.00    -0.338 N 
ATOM     12  C   UNL     1      37.709 -24.249 -14.361  0.00  0.00    +0.137 C 
ATOM     13  C   UNL     1      37.899 -25.667 -13.806  0.00  0.00    +0.068 C 
ATOM     14  C   UNL     1      38.943 -24.171 -15.284  0.00  0.00    +0.169 C 
ATOM     15  C   UNL     1      39.414 -25.746 -13.635  0.00  0.00    +0.145 C 
ATOM     16  C   UNL     1      37.147 -26.042 -12.531  0.00  0.00    +0.070 C 
ATOM     17  C   UNL     1      37.323 -23.355 -12.161  0.00  0.00    +0.148 C 
ATOM     18  H   UNL     1      36.976 -22.577 -10.301  0.00  0.00    +0.144 HD
ATOM     19  H   UNL     1      38.048 -21.665 -11.263  0.00  0.00    +0.144 HD
ENDBRANCH   2  12
BRANCH   5  21
ATOM     20  O   UNL     1      34.738 -22.907 -19.842  0.00  0.00    -0.268 OA
ATOM     21  N   UNL     1      35.383 -21.721 -17.918  0.00  0.00    -0.279 N 
ATOM     22  C   UNL     1      35.089 -21.876 -19.279  0.00  0.00    +0.267 C 
ATOM     23  H   UNL     1      35.652 -20.817 -17.635  0.00  0.00    +0.155 HD
BRANCH  22  26
ATOM     24  F   UNL     1      35.663 -17.256 -22.303  0.00  0.00    -0.203 F 
ATOM     25  N   UNL     1      36.432 -20.098 -20.183  0.00  0.00    -0.237 NA
ATOM     26  C   UNL     1      35.196 -20.640 -20.099  0.00  0.00    +0.135 C 
ATOM     27  C   UNL     1      34.074 -20.114 -20.717  0.00  0.00    +0.026 C 
ATOM     28  C   UNL     1      34.229 -18.957 -21.472  0.00  0.00    +0.033 C 
ATOM     29  C   UNL     1      36.543 -18.974 -20.926  0.00  0.00    +0.129 C 
ATOM     30  C   UNL     1      35.484 -18.369 -21.583  0.00  0.00    +0.159 C 
ENDBRANCH  22  26
ENDBRANCH   5  21
TORSDOF 3
ENDMDL
MODEL 4
REMARK VINA RESULT:      -9.0      3.556      5.235
REMARK  Name = 49837968
REMARK  3 active torsions:
REMARK  status: ('A' for Active; 'I' for Inactive)
REMARK    1  A    between atoms: C_2  and  C_12
REMARK    2  A    between atoms: C_5  and  N_21
REMARK    3  A    between atoms: C_22  and  C_26
REMARK                            x       y       z     vdW  Elec       q    Type
REMARK                         _______ _______ _______ _____ _____    ______ ____
ROOT
ATOM      1  F   UNL     1      38.734 -22.707 -16.176  0.00  0.00    -0.204 F 
ATOM      2  C   UNL     1      36.735 -23.688 -15.354  0.00  0.00    +0.029 C 
ATOM      3  C   UNL     1      35.349 -23.823 -15.429  0.00  0.00    +0.015 C 
ATOM      4  C   UNL     1      37.401 -22.842 -16.240  0.00  0.00    +0.138 C 
ATOM      5  C   UNL     1      34.629 -23.115 -16.390  0.00  0.00    +0.050 C 
ATOM      6  C   UNL     1      36.682 -22.133 -17.203  0.00  0.00    +0.031 C 
ATOM      7  C   UNL     1      35.296 -22.269 -17.277  0.00  0.00    +0.017 C 
ENDROOT
BRANCH   2  12
ATOM      8  S   UNL     1      35.811 -23.538 -12.001  0.00  0.00    -0.081 S 
ATOM      9  O   UNL     1      39.009 -26.352 -14.141  0.00  0.00    -0.351 OA
ATOM     10  N   UNL     1      38.155 -23.564 -13.319  0.00  0.00    -0.248 NA
ATOM     11  N   UNL     1      38.013 -22.252 -11.385  0.00  0.00    -0.338 N 
ATOM     12  C   UNL     1      37.518 -24.466 -14.300  0.00  0.00    +0.137 C 
ATOM     13  C   UNL     1      36.825 -25.630 -13.579  0.00  0.00    +0.068 C 
ATOM     14  C   UNL     1      38.667 -25.239 -14.982  0.00  0.00    +0.169 C 
ATOM     15  C   UNL     1      38.010 -26.479 -13.124  0.00  0.00    +0.145 C 
ATOM     16  C   UNL     1      35.872 -25.295 -12.434  0.00  0.00    +0.070 C 
ATOM     17  C   UNL     1      37.488 -23.113 -12.311  0.00  0.00    +0.148 C 
ATOM     18  H   UNL     1      37.459 -21.939 -10.635  0.00  0.00    +0.144 HD
ATOM     19  H   UNL     1      38.945 -21.947 -11.469  0.00  0.00    +0.144 HD
ENDBRANCH   2  12
BRANCH   5  21
ATOM     20  O   UNL     1      32.586 -23.383 -14.213  0.00  0.00    -0.268 OA
ATOM     21  N   UNL     1      33.243 -23.251 -16.466  0.00  0.00    -0.279 N 
ATOM     22  C   UNL     1      32.329 -23.374 -15.412  0.00  0.00    +0.267 C 
ATOM     23  H   UNL     1      32.860 -23.263 -17.373  0.00  0.00    +0.155 HD
BRANCH  22  26
ATOM     24  F   UNL     1      27.018 -23.602 -17.012  0.00  0.00    -0.203 F 
ATOM     25  N   UNL     1      30.454 -22.499 -16.636  0.00  0.00    -0.237 NA
ATOM     26  C   UNL     1      30.901 -23.475 -15.815  0.00  0.00    +0.135 C 
ATOM     27  C   UNL     1      30.117 -24.519 -15.352  0.00  0.00    +0.026 C 
ATOM     28  C   UNL     1      28.789 -24.566 -15.759  0.00  0.00    +0.033 C 
ATOM     29  C   UNL     1      29.157 -22.579 -17.011  0.00  0.00    +0.129 C 
ATOM     30  C   UNL     1      28.292 -23.581 -16.604  0.00  0.00    +0.159 C 
ENDBRANCH  22  26
ENDBRANCH   5  21
TORSDOF 3
ENDMDL
MODEL 5
REMARK VINA RESULT:      -8.4     12.074     15.256
REMARK  Name = 49837968
REMARK  3 active torsions:
REMARK  status: ('A' for Active; 'I' for Inactive)
REMARK    1  A    between atoms: C_2  and  C_12
REMARK    2  A    between atoms: C_5  and  N_21
REMARK    3  A    between atoms: C_22  and  C_26
REMARK                            x       y       z     vdW  Elec       q    Type
REMARK                         _______ _______ _______ _____ _____    ______ ____
ROOT
ATOM      1  F   UNL     1      31.069  -8.718 -19.003  0.00  0.00    -0.204 F 
ATOM      2  C   UNL     1      32.089  -9.466 -21.011  0.00  0.00    +0.029 C 
ATOM      3  C   UNL     1      32.483 -10.522 -21.833  0.00  0.00    +0.015 C 
ATOM      4  C   UNL     1      31.452  -9.727 -19.799  0.00  0.00    +0.138 C 
ATOM      5  C   UNL     1      32.239 -11.839 -21.442  0.00  0.00    +0.050 C 
ATOM      6  C   UNL     1      31.208 -11.043 -19.407  0.00  0.00    +0.031 C 
ATOM      7  C   UNL     1      31.602 -12.099 -20.229  0.00  0.00    +0.017 C 
ENDROOT
BRANCH   2  12
ATOM      8  S   UNL     1      32.181  -8.628 -24.389  0.00  0.00    -0.081 S 
ATOM      9  O   UNL     1      32.235  -5.790 -20.559  0.00  0.00    -0.351 OA
ATOM     10  N   UNL     1      33.607  -7.918 -22.222  0.00  0.00    -0.248 NA
ATOM     11  N   UNL     1      34.750  -8.113 -24.256  0.00  0.00    -0.338 N 
ATOM     12  C   UNL     1      32.356  -8.027 -21.444  0.00  0.00    +0.137 C 
ATOM     13  C   UNL     1      31.232  -7.244 -22.135  0.00  0.00    +0.068 C 
ATOM     14  C   UNL     1      32.549  -7.143 -20.194  0.00  0.00    +0.169 C 
ATOM     15  C   UNL     1      31.627  -5.797 -21.855  0.00  0.00    +0.145 C 
ATOM     16  C   UNL     1      30.986  -7.506 -23.619  0.00  0.00    +0.070 C 
ATOM     17  C   UNL     1      33.619  -8.169 -23.488  0.00  0.00    +0.148 C 
ATOM     18  H   UNL     1      34.701  -8.315 -25.218  0.00  0.00    +0.144 HD
ATOM     19  H   UNL     1      35.611  -7.871 -23.848  0.00  0.00    +0.144 HD
ENDBRANCH   2  12
BRANCH   5  21
ATOM     20  O   UNL     1      33.827 -11.829 -23.985  0.00  0.00    -0.268 OA
ATOM     21  N   UNL     1      32.632 -12.896 -22.264  0.00  0.00    -0.279 N 
ATOM     22  C   UNL     1      33.377 -12.836 -23.449  0.00  0.00    +0.267 C 
ATOM     23  H   UNL     1      32.349 -13.793 -21.976  0.00  0.00    +0.155 HD
BRANCH  22  26
ATOM     24  F   UNL     1      34.539 -17.778 -25.695  0.00  0.00    -0.203 F 
ATOM     25  N   UNL     1      34.449 -14.988 -23.379  0.00  0.00    -0.237 NA
ATOM     26  C   UNL     1      33.662 -14.148 -24.089  0.00  0.00    +0.135 C 
ATOM     27  C   UNL     1      33.134 -14.447 -25.334  0.00  0.00    +0.026 C 
ATOM     28  C   UNL     1      33.432 -15.687 -25.887  0.00  0.00    +0.033 C 
ATOM     29  C   UNL     1      34.716 -16.185 -23.949  0.00  0.00    +0.129 C 
ATOM     30  C   UNL     1      34.237 -16.578 -25.188  0.00  0.00    +0.159 C 
ENDBRANCH  22  26
ENDBRANCH   5  21
TORSDOF 3
ENDMDL
MODEL 6
REMARK VINA RESULT:      -8.4      5.029     10.787
REMARK  Name = 49837968
REMARK  3 active torsions:
REMARK  status: ('A' for Active; 'I' for Inactive)
REMARK    1  A    between atoms: C_2  and  C_12
REMARK    2  A    between atoms: C_5  and  N_21
REMARK    3  A    between atoms: C_22  and  C_26
REMARK                            x       y       z     vdW  Elec       q    Type
REMARK                         _______ _______ _______ _____ _____    ______ ____
ROOT
ATOM      1  F   UNL     1      34.596 -16.434 -25.627  0.00  0.00    -0.204 F 
ATOM      2  C   UNL     1      34.111 -16.819 -23.336  0.00  0.00    +0.029 C 
ATOM      3  C   UNL     1      34.112 -17.682 -22.240  0.00  0.00    +0.015 C 
ATOM      4  C   UNL     1      34.592 -17.258 -24.569  0.00  0.00    +0.138 C 
ATOM      5  C   UNL     1      34.594 -18.984 -22.377  0.00  0.00    +0.050 C 
ATOM      6  C   UNL     1      35.075 -18.559 -24.707  0.00  0.00    +0.031 C 
ATOM      7  C   UNL     1      35.076 -19.422 -23.611  0.00  0.00    +0.017 C 
ENDROOT
BRANCH   2  12
ATOM      8  S   UNL     1      34.346 -15.175 -20.276  0.00  0.00    -0.081 S 
ATOM      9  O   UNL     1      33.038 -13.480 -24.535  0.00  0.00    -0.351 OA
ATOM     10  N   UNL     1      32.477 -15.330 -22.203  0.00  0.00    -0.248 NA
ATOM     11  N   UNL     1      31.739 -15.211 -19.984  0.00  0.00    -0.338 N 
ATOM     12  C   UNL     1      33.583 -15.396 -23.180  0.00  0.00    +0.137 C 
ATOM     13  C   UNL     1      34.585 -14.262 -22.923  0.00  0.00    +0.068 C 
ATOM     14  C   UNL     1      32.997 -14.916 -24.525  0.00  0.00    +0.169 C 
ATOM     15  C   UNL     1      33.823 -13.038 -23.423  0.00  0.00    +0.145 C 
ATOM     16  C   UNL     1      35.112 -14.082 -21.501  0.00  0.00    +0.070 C 
ATOM     17  C   UNL     1      32.719 -15.246 -20.938  0.00  0.00    +0.148 C 
ATOM     18  H   UNL     1      31.982 -15.146 -19.033  0.00  0.00    +0.144 HD
ATOM     19  H   UNL     1      30.793 -15.250 -20.249  0.00  0.00    +0.144 HD
ENDBRANCH   2  12
BRANCH   5  21
ATOM     20  O   UNL     1      32.313 -20.277 -20.925  0.00  0.00    -0.268 OA
ATOM     21  N   UNL     1      34.597 -19.847 -21.281  0.00  0.00    -0.279 N 
ATOM     22  C   UNL     1      33.495 -20.426 -20.637  0.00  0.00    +0.267 C 
ATOM     23  H   UNL     1      35.481 -20.077 -20.915  0.00  0.00    +0.155 HD
BRANCH  22  26
ATOM     24  F   UNL     1      34.548 -23.852 -16.397  0.00  0.00    -0.203 F 
ATOM     25  N   UNL     1      32.773 -21.965 -18.936  0.00  0.00    -0.237 NA
ATOM     26  C   UNL     1      33.824 -21.334 -19.506  0.00  0.00    +0.135 C 
ATOM     27  C   UNL     1      35.138 -21.490 -19.095  0.00  0.00    +0.026 C 
ATOM     28  C   UNL     1      35.390 -22.350 -18.032  0.00  0.00    +0.033 C 
ATOM     29  C   UNL     1      33.057 -22.793 -17.906  0.00  0.00    +0.129 C 
ATOM     30  C   UNL     1      34.335 -23.017 -17.421  0.00  0.00    +0.159 C 
ENDBRANCH  22  26
ENDBRANCH   5  21
TORSDOF 3
ENDMDL
MODEL 7
REMARK VINA RESULT:      -8.1      9.092     12.893
REMARK  Name = 49837968
REMARK  3 active torsions:
REMARK  status: ('A' for Active; 'I' for Inactive)
REMARK    1  A    between atoms: C_2  and  C_12
REMARK    2  A    between atoms: C_5  and  N_21
REMARK    3  A    between atoms: C_22  and  C_26
REMARK                            x       y       z     vdW  Elec       q    Type
REMARK                         _______ _______ _______ _____ _____    ______ ____
ROOT
ATOM      1  F   UNL     1      33.767 -17.392 -25.490  0.00  0.00    -0.204 F 
ATOM      2  C   UNL     1      34.078 -15.671 -23.886  0.00  0.00    +0.029 C 
ATOM      3  C   UNL     1      33.985 -14.321 -23.545  0.00  0.00    +0.015 C 
ATOM      4  C   UNL     1      33.682 -16.097 -25.154  0.00  0.00    +0.138 C 
ATOM      5  C   UNL     1      33.496 -13.399 -24.470  0.00  0.00    +0.050 C 
ATOM      6  C   UNL     1      33.192 -15.175 -26.079  0.00  0.00    +0.031 C 
ATOM      7  C   UNL     1      33.100 -13.827 -25.737  0.00  0.00    +0.017 C 
ENDROOT
BRANCH   2  12
ATOM      8  S   UNL     1      32.722 -15.833 -20.684  0.00  0.00    -0.081 S 
ATOM      9  O   UNL     1      35.840 -18.748 -22.807  0.00  0.00    -0.351 OA
ATOM     10  N   UNL     1      35.207 -16.000 -21.699  0.00  0.00    -0.248 NA
ATOM     11  N   UNL     1      34.951 -14.942 -19.626  0.00  0.00    -0.338 N 
ATOM     12  C   UNL     1      34.612 -16.676 -22.870  0.00  0.00    +0.137 C 
ATOM     13  C   UNL     1      33.697 -17.821 -22.414  0.00  0.00    +0.068 C 
ATOM     14  C   UNL     1      35.748 -17.500 -23.513  0.00  0.00    +0.169 C 
ATOM     15  C   UNL     1      34.702 -18.870 -21.948  0.00  0.00    +0.145 C 
ATOM     16  C   UNL     1      32.640 -17.512 -21.357  0.00  0.00    +0.070 C 
ATOM     17  C   UNL     1      34.464 -15.598 -20.724  0.00  0.00    +0.148 C 
ATOM     18  H   UNL     1      34.338 -14.657 -18.911  0.00  0.00    +0.144 HD
ATOM     19  H   UNL     1      35.914 -14.755 -19.552  0.00  0.00    +0.144 HD
ENDBRANCH   2  12
BRANCH   5  21
ATOM     20  O   UNL     1      35.017 -11.030 -25.499  0.00  0.00    -0.268 OA
ATOM     21  N   UNL     1      33.402 -12.050 -24.128  0.00  0.00    -0.279 N 
ATOM     22  C   UNL     1      34.141 -10.976 -24.642  0.00  0.00    +0.267 C 
ATOM     23  H   UNL     1      32.735 -11.825 -23.440  0.00  0.00    +0.155 HD
BRANCH  22  26
ATOM     24  F   UNL     1      32.656  -6.044 -22.571  0.00  0.00    -0.203 F 
ATOM     25  N   UNL     1      32.505  -9.490 -23.696  0.00  0.00    -0.237 NA
ATOM     26  C   UNL     1      33.788  -9.640 -24.094  0.00  0.00    +0.135 C 
ATOM     27  C   UNL     1      34.746  -8.642 -24.016  0.00  0.00    +0.026 C 
ATOM     28  C   UNL     1      34.363  -7.411 -23.496  0.00  0.00    +0.033 C 
ATOM     29  C   UNL     1      32.170  -8.279 -23.195  0.00  0.00    +0.129 C 
ATOM     30  C   UNL     1      33.052  -7.218 -23.076  0.00  0.00    +0.159 C 
ENDBRANCH  22  26
ENDBRANCH   5  21
TORSDOF 3
ENDMDL
MODEL 8
REMARK VINA RESULT:      -8.0      3.288      4.748
REMARK  Name = 49837968
REMARK  3 active torsions:
REMARK  status: ('A' for Active; 'I' for Inactive)
REMARK    1  A    between atoms: C_2  and  C_12
REMARK    2  A    between atoms: C_5  and  N_21
REMARK    3  A    between atoms: C_22  and  C_26
REMARK                            x       y       z     vdW  Elec       q    Type
REMARK                         _______ _______ _______ _____ _____    ______ ____
ROOT
ATOM      1  F   UNL     1      38.550 -22.869 -15.740  0.00  0.00    -0.204 F 
ATOM      2  C   UNL     1      36.453 -23.462 -14.801  0.00  0.00    +0.029 C 
ATOM      3  C   UNL     1      35.063 -23.512 -14.910  0.00  0.00    +0.015 C 
ATOM      4  C   UNL     1      37.214 -22.920 -15.836  0.00  0.00    +0.138 C 
ATOM      5  C   UNL     1      34.434 -23.020 -16.054  0.00  0.00    +0.050 C 
ATOM      6  C   UNL     1      36.586 -22.428 -16.981  0.00  0.00    +0.031 C 
ATOM      7  C   UNL     1      35.197 -22.477 -17.089  0.00  0.00    +0.017 C 
ENDROOT
BRANCH   2  12
ATOM      8  S   UNL     1      38.496 -26.275 -14.980  0.00  0.00    -0.081 S 
ATOM      9  O   UNL     1      37.792 -23.266 -11.350  0.00  0.00    -0.351 OA
ATOM     10  N   UNL     1      36.673 -25.368 -13.224  0.00  0.00    -0.248 NA
ATOM     11  N   UNL     1      36.792 -27.681 -13.565  0.00  0.00    -0.338 N 
ATOM     12  C   UNL     1      37.135 -24.003 -13.549  0.00  0.00    +0.137 C 
ATOM     13  C   UNL     1      38.665 -23.925 -13.450  0.00  0.00    +0.068 C 
ATOM     14  C   UNL     1      36.758 -23.123 -12.338  0.00  0.00    +0.169 C 
ATOM     15  C   UNL     1      38.894 -23.962 -11.942  0.00  0.00    +0.145 C 
ATOM     16  C   UNL     1      39.484 -24.979 -14.192  0.00  0.00    +0.070 C 
ATOM     17  C   UNL     1      37.197 -26.396 -13.802  0.00  0.00    +0.148 C 
ATOM     18  H   UNL     1      37.228 -28.428 -14.035  0.00  0.00    +0.144 HD
ATOM     19  H   UNL     1      36.066 -27.859 -12.925  0.00  0.00    +0.144 HD
ENDBRANCH   2  12
BRANCH   5  21
ATOM     20  O   UNL     1      32.415 -24.529 -14.431  0.00  0.00    -0.268 OA
ATOM     21  N   UNL     1      33.045 -23.070 -16.164  0.00  0.00    -0.279 N 
ATOM     22  C   UNL     1      32.142 -23.796 -15.376  0.00  0.00    +0.267 C 
ATOM     23  H   UNL     1      32.650 -22.530 -16.886  0.00  0.00    +0.155 HD
BRANCH  22  26
ATOM     24  F   UNL     1      26.832 -23.012 -16.793  0.00  0.00    -0.203 F 
ATOM     25  N   UNL     1      30.440 -22.667 -16.645  0.00  0.00    -0.237 NA
ATOM     26  C   UNL     1      30.707 -23.621 -15.725  0.00  0.00    +0.135 C 
ATOM     27  C   UNL     1      29.740 -24.407 -15.119  0.00  0.00    +0.026 C 
ATOM     28  C   UNL     1      28.414 -24.202 -15.482  0.00  0.00    +0.033 C 
ATOM     29  C   UNL     1      29.139 -22.497 -16.972  0.00  0.00    +0.129 C 
ATOM     30  C   UNL     1      28.100 -23.230 -16.424  0.00  0.00    +0.159 C 
ENDBRANCH  22  26
ENDBRANCH   5  21
TORSDOF 3
ENDMDL
MODEL 9
REMARK VINA RESULT:      -8.0      4.194      9.555
REMARK  Name = 49837968
REMARK  3 active torsions:
REMARK  status: ('A' for Active; 'I' for Inactive)
REMARK    1  A    between atoms: C_2  and  C_12
REMARK    2  A    between atoms: C_5  and  N_21
REMARK    3  A    between atoms: C_22  and  C_26
REMARK                            x       y       z     vdW  Elec       q    Type
REMARK                         _______ _______ _______ _____ _____    ______ ____
ROOT
ATOM      1  F   UNL     1      37.344 -18.629 -22.541  0.00  0.00    -0.204 F 
ATOM      2  C   UNL     1      35.230 -19.092 -21.565  0.00  0.00    +0.029 C 
ATOM      3  C   UNL     1      34.478 -19.759 -20.597  0.00  0.00    +0.015 C 
ATOM      4  C   UNL     1      36.613 -19.266 -21.615  0.00  0.00    +0.138 C 
ATOM      5  C   UNL     1      35.109 -20.598 -19.679  0.00  0.00    +0.050 C 
ATOM      6  C   UNL     1      37.245 -20.106 -20.697  0.00  0.00    +0.031 C 
ATOM      7  C   UNL     1      36.493 -20.772 -19.730  0.00  0.00    +0.017 C 
ENDROOT
BRANCH   2  12
ATOM      8  S   UNL     1      34.518 -15.789 -20.730  0.00  0.00    -0.081 S 
ATOM      9  O   UNL     1      34.153 -17.998 -24.939  0.00  0.00    -0.351 OA
ATOM     10  N   UNL     1      33.219 -17.725 -22.070  0.00  0.00    -0.248 NA
ATOM     11  N   UNL     1      31.939 -16.272 -20.754  0.00  0.00    -0.338 N 
ATOM     12  C   UNL     1      34.536 -18.174 -22.567  0.00  0.00    +0.137 C 
ATOM     13  C   UNL     1      35.318 -16.986 -23.143  0.00  0.00    +0.068 C 
ATOM     14  C   UNL     1      34.260 -18.953 -23.871  0.00  0.00    +0.169 C 
ATOM     15  C   UNL     1      34.583 -16.722 -24.454  0.00  0.00    +0.145 C 
ATOM     16  C   UNL     1      35.448 -15.732 -22.282  0.00  0.00    +0.070 C 
ATOM     17  C   UNL     1      33.126 -16.717 -21.270  0.00  0.00    +0.148 C 
ATOM     18  H   UNL     1      31.927 -15.497 -20.147  0.00  0.00    +0.144 HD
ATOM     19  H   UNL     1      31.099 -16.726 -20.989  0.00  0.00    +0.144 HD
ENDBRANCH   2  12
BRANCH   5  21
ATOM     20  O   UNL     1      34.153 -23.438 -19.583  0.00  0.00    -0.268 OA
ATOM     21  N   UNL     1      34.358 -21.264 -18.711  0.00  0.00    -0.279 N 
ATOM     22  C   UNL     1      33.935 -22.600 -18.714  0.00  0.00    +0.267 C 
ATOM     23  H   UNL     1      34.091 -20.729 -17.929  0.00  0.00    +0.155 HD
BRANCH  22  26
ATOM     24  F   UNL     1      30.913 -24.139 -14.319  0.00  0.00    -0.203 F 
ATOM     25  N   UNL     1      31.833 -22.805 -17.565  0.00  0.00    -0.237 NA
ATOM     26  C   UNL     1      33.166 -23.028 -17.516  0.00  0.00    +0.135 C 
ATOM     27  C   UNL     1      33.816 -23.612 -16.441  0.00  0.00    +0.026 C 
ATOM     28  C   UNL     1      33.049 -23.994 -15.346  0.00  0.00    +0.033 C 
ATOM     29  C   UNL     1      31.121 -23.189 -16.481  0.00  0.00    +0.129 C 
ATOM     30  C   UNL     1      31.675 -23.781 -15.358  0.00  0.00    +0.159 C 
ENDBRANCH  22  26
ENDBRANCH   5  21
TORSDOF 3
ENDMDL
