MODEL 1
REMARK VINA RESULT:     -12.5      0.000      0.000
REMARK  Name = 23650961
REMARK  5 active torsions:
REMARK  status: ('A' for Active; 'I' for Inactive)
REMARK    1  A    between atoms: N_1  and  C_23
REMARK    2  A    between atoms: C_5  and  C_12
REMARK    3  A    between atoms: C_23  and  C_24
REMARK    4  A    between atoms: C_24  and  C_25
REMARK    5  A    between atoms: C_25  and  C_27
REMARK                            x       y       z     vdW  Elec       q    Type
REMARK                         _______ _______ _______ _____ _____    ______ ____
ROOT
ATOM      1  N   UNL     1      34.446 -18.325 -25.111  0.00  0.00    -0.268 N 
ATOM      2  N   UNL     1      33.570 -16.247 -25.762  0.00  0.00    -0.342 NA
ATOM      3  N   UNL     1      34.763 -16.490 -23.683  0.00  0.00    -0.170 NA
ATOM      4  C   UNL     1      34.254 -16.978 -24.844  0.00  0.00    +0.144 C 
ATOM      5  C   UNL     1      33.877 -14.344 -24.321  0.00  0.00    +0.061 C 
ATOM      6  C   UNL     1      33.401 -14.941 -25.471  0.00  0.00    +0.123 C 
ATOM      7  C   UNL     1      34.557 -15.176 -23.454  0.00  0.00    +0.113 C 
ATOM      8  C   UNL     1      32.648 -14.148 -26.489  0.00  0.00    +0.067 C 
ATOM      9  H   UNL     1      34.081 -18.688 -25.950  0.00  0.00    +0.159 HD
ENDROOT
BRANCH   5  12
ATOM     10  N   UNL     1      34.477 -11.974 -24.569  0.00  0.00    -0.314 N 
ATOM     11  N   UNL     1      32.781 -12.445 -23.212  0.00  0.00    -0.315 N 
ATOM     12  C   UNL     1      33.690 -12.950 -24.018  0.00  0.00    +0.171 C 
ATOM     13  C   UNL     1      34.048 -10.765 -24.086  0.00  0.00    +0.059 C 
ATOM     14  C   UNL     1      32.989 -11.085 -23.242  0.00  0.00    +0.055 C 
ATOM     15  C   UNL     1      32.311 -10.053 -22.572  0.00  0.00    -0.008 C 
ATOM     16  C   UNL     1      34.482  -9.457 -24.309  0.00  0.00    +0.011 C 
ATOM     17  C   UNL     1      33.797  -8.442 -23.634  0.00  0.00    -0.021 C 
ATOM     18  C   UNL     1      32.730  -8.732 -22.780  0.00  0.00    -0.007 C 
ATOM     19  C   UNL     1      31.165 -10.311 -21.649  0.00  0.00    +0.032 C 
ATOM     20  C   UNL     1      34.214  -7.022 -23.832  0.00  0.00    +0.031 C 
ATOM     21  H   UNL     1      35.219 -12.116 -25.199  0.00  0.00    +0.149 HD
ATOM     22  H   UNL     1      32.098 -12.935 -22.697  0.00  0.00    +0.149 HD
ENDBRANCH   5  12
BRANCH   1  23
ATOM     23  C   UNL     1      35.151 -19.224 -24.230  0.00  0.00    +0.098 C 
BRANCH  23  24
ATOM     24  C   UNL     1      34.483 -19.272 -22.858  0.00  0.00    +0.022 C 
BRANCH  24  25
ATOM     25  C   UNL     1      35.490 -19.149 -21.714  0.00  0.00    +0.002 C 
BRANCH  25  27
ATOM     26  N   UNL     1      33.963 -22.311 -19.199  0.00  0.00    +0.385 N 
ATOM     27  C   UNL     1      35.001 -19.880 -20.466  0.00  0.00    -0.004 C 
ATOM     28  C   UNL     1      35.890 -21.088 -20.152  0.00  0.00    -0.023 C 
ATOM     29  C   UNL     1      33.548 -20.336 -20.629  0.00  0.00    -0.023 C 
ATOM     30  C   UNL     1      35.349 -21.884 -18.964  0.00  0.00    -0.077 C 
ATOM     31  C   UNL     1      33.084 -21.156 -19.424  0.00  0.00    -0.077 C 
ATOM     32  C   UNL     1      33.477 -23.114 -18.077  0.00  0.00    -0.101 C 
ATOM     33  H   UNL     1      33.950 -22.886 -20.042  0.00  0.00    -0.080 HD
ENDBRANCH  25  27
ENDBRANCH  24  25
ENDBRANCH  23  24
ENDBRANCH   1  23
TORSDOF 5
ENDMDL
MODEL 2
REMARK VINA RESULT:     -11.8      2.067      3.530
REMARK  Name = 23650961
REMARK  5 active torsions:
REMARK  status: ('A' for Active; 'I' for Inactive)
REMARK    1  A    between atoms: N_1  and  C_23
REMARK    2  A    between atoms: C_5  and  C_12
REMARK    3  A    between atoms: C_23  and  C_24
REMARK    4  A    between atoms: C_24  and  C_25
REMARK    5  A    between atoms: C_25  and  C_27
REMARK                            x       y       z     vdW  Elec       q    Type
REMARK                         _______ _______ _______ _____ _____    ______ ____
ROOT
ATOM      1  N   UNL     1      33.450 -15.342 -23.309  0.00  0.00    -0.268 N 
ATOM      2  N   UNL     1      32.332 -13.584 -22.228  0.00  0.00    -0.342 NA
ATOM      3  N   UNL     1      33.812 -13.155 -24.080  0.00  0.00    -0.170 NA
ATOM      4  C   UNL     1      33.190 -13.984 -23.203  0.00  0.00    +0.144 C 
ATOM      5  C   UNL     1      32.682 -11.329 -22.993  0.00  0.00    +0.061 C 
ATOM      6  C   UNL     1      32.102 -12.258 -22.152  0.00  0.00    +0.123 C 
ATOM      7  C   UNL     1      33.537 -11.841 -23.948  0.00  0.00    +0.113 C 
ATOM      8  C   UNL     1      31.156 -11.830 -21.076  0.00  0.00    +0.067 C 
ATOM      9  H   UNL     1      33.003 -15.950 -22.678  0.00  0.00    +0.159 HD
ENDROOT
BRANCH   5  12
ATOM     10  N   UNL     1      32.066  -9.170 -23.992  0.00  0.00    -0.314 N 
ATOM     11  N   UNL     1      32.509  -9.180 -21.814  0.00  0.00    -0.315 N 
ATOM     12  C   UNL     1      32.430  -9.916 -22.903  0.00  0.00    +0.171 C 
ATOM     13  C   UNL     1      31.902  -7.873 -23.579  0.00  0.00    +0.059 C 
ATOM     14  C   UNL     1      32.183  -7.905 -22.217  0.00  0.00    +0.055 C 
ATOM     15  C   UNL     1      32.106  -6.715 -21.473  0.00  0.00    -0.008 C 
ATOM     16  C   UNL     1      31.541  -6.709 -24.261  0.00  0.00    +0.011 C 
ATOM     17  C   UNL     1      31.469  -5.534 -23.505  0.00  0.00    -0.021 C 
ATOM     18  C   UNL     1      31.746  -5.534 -22.137  0.00  0.00    -0.007 C 
ATOM     19  C   UNL     1      32.393  -6.664 -20.008  0.00  0.00    +0.032 C 
ATOM     20  C   UNL     1      31.087  -4.256 -24.177  0.00  0.00    +0.031 C 
ATOM     21  H   UNL     1      31.945  -9.506 -24.909  0.00  0.00    +0.149 HD
ATOM     22  H   UNL     1      32.750  -9.478 -20.907  0.00  0.00    +0.149 HD
ENDBRANCH   5  12
BRANCH   1  23
ATOM     23  C   UNL     1      34.338 -15.913 -24.293  0.00  0.00    +0.098 C 
BRANCH  23  24
ATOM     24  C   UNL     1      34.887 -17.253 -23.814  0.00  0.00    +0.022 C 
BRANCH  24  25
ATOM     25  C   UNL     1      35.007 -17.325 -22.292  0.00  0.00    +0.002 C 
BRANCH  25  27
ATOM     26  N   UNL     1      34.988 -20.705 -19.602  0.00  0.00    +0.385 N 
ATOM     27  C   UNL     1      35.021 -18.772 -21.806  0.00  0.00    -0.004 C 
ATOM     28  C   UNL     1      33.748 -19.100 -21.018  0.00  0.00    -0.023 C 
ATOM     29  C   UNL     1      36.252 -19.051 -20.938  0.00  0.00    -0.023 C 
ATOM     30  C   UNL     1      33.798 -20.516 -20.443  0.00  0.00    -0.077 C 
ATOM     31  C   UNL     1      36.220 -20.470 -20.366  0.00  0.00    -0.077 C 
ATOM     32  C   UNL     1      34.996 -22.046 -19.018  0.00  0.00    -0.101 C 
ATOM     33  H   UNL     1      34.951 -20.020 -18.846  0.00  0.00    -0.080 HD
ENDBRANCH  25  27
ENDBRANCH  24  25
ENDBRANCH  23  24
ENDBRANCH   1  23
TORSDOF 5
ENDMDL
MODEL 3
REMARK VINA RESULT:     -11.7      1.991     10.368
REMARK  Name = 23650961
REMARK  5 active torsions:
REMARK  status: ('A' for Active; 'I' for Inactive)
REMARK    1  A    between atoms: N_1  and  C_23
REMARK    2  A    between atoms: C_5  and  C_12
REMARK    3  A    between atoms: C_23  and  C_24
REMARK    4  A    between atoms: C_24  and  C_25
REMARK    5  A    between atoms: C_25  and  C_27
REMARK                            x       y       z     vdW  Elec       q    Type
REMARK                         _______ _______ _______ _____ _____    ______ ____
ROOT
ATOM      1  N   UNL     1      33.628 -12.027 -24.921  0.00  0.00    -0.268 N 
ATOM      2  N   UNL     1      33.849 -14.361 -25.023  0.00  0.00    -0.342 NA
ATOM      3  N   UNL     1      34.055 -13.190 -22.928  0.00  0.00    -0.170 NA
ATOM      4  C   UNL     1      33.851 -13.230 -24.270  0.00  0.00    +0.144 C 
ATOM      5  C   UNL     1      34.289 -15.585 -22.997  0.00  0.00    +0.061 C 
ATOM      6  C   UNL     1      34.070 -15.514 -24.359  0.00  0.00    +0.123 C 
ATOM      7  C   UNL     1      34.270 -14.378 -22.326  0.00  0.00    +0.113 C 
ATOM      8  C   UNL     1      34.066 -16.750 -25.198  0.00  0.00    +0.067 C 
ATOM      9  H   UNL     1      33.478 -12.046 -25.893  0.00  0.00    +0.159 HD
ENDROOT
BRANCH   5  12
ATOM     10  N   UNL     1      35.788 -17.280 -22.041  0.00  0.00    -0.314 N 
ATOM     11  N   UNL     1      33.604 -17.635 -21.830  0.00  0.00    -0.315 N 
ATOM     12  C   UNL     1      34.525 -16.819 -22.298  0.00  0.00    +0.171 C 
ATOM     13  C   UNL     1      35.673 -18.469 -21.366  0.00  0.00    +0.059 C 
ATOM     14  C   UNL     1      34.301 -18.668 -21.246  0.00  0.00    +0.055 C 
ATOM     15  C   UNL     1      33.830 -19.818 -20.590  0.00  0.00    -0.008 C 
ATOM     16  C   UNL     1      36.624 -19.359 -20.864  0.00  0.00    +0.011 C 
ATOM     17  C   UNL     1      36.139 -20.499 -20.215  0.00  0.00    -0.021 C 
ATOM     18  C   UNL     1      34.768 -20.727 -20.079  0.00  0.00    -0.007 C 
ATOM     19  C   UNL     1      32.375 -20.107 -20.420  0.00  0.00    +0.032 C 
ATOM     20  C   UNL     1      37.107 -21.489 -19.656  0.00  0.00    +0.031 C 
ATOM     21  H   UNL     1      36.629 -16.838 -22.296  0.00  0.00    +0.149 HD
ATOM     22  H   UNL     1      32.626 -17.529 -21.885  0.00  0.00    +0.149 HD
ENDBRANCH   5  12
BRANCH   1  23
ATOM     23  C   UNL     1      33.601 -10.748 -24.253  0.00  0.00    +0.098 C 
BRANCH  23  24
ATOM     24  C   UNL     1      34.792  -9.892 -24.675  0.00  0.00    +0.022 C 
BRANCH  24  25
ATOM     25  C   UNL     1      34.899  -8.600 -23.863  0.00  0.00    +0.002 C 
BRANCH  25  27
ATOM     26  N   UNL     1      31.862  -5.873 -22.451  0.00  0.00    +0.385 N 
ATOM     27  C   UNL     1      33.519  -8.018 -23.566  0.00  0.00    -0.004 C 
ATOM     28  C   UNL     1      33.323  -6.676 -24.278  0.00  0.00    -0.023 C 
ATOM     29  C   UNL     1      33.310  -7.840 -22.059  0.00  0.00    -0.023 C 
ATOM     30  C   UNL     1      31.984  -6.038 -23.905  0.00  0.00    -0.077 C 
ATOM     31  C   UNL     1      31.970  -7.165 -21.760  0.00  0.00    -0.077 C 
ATOM     32  C   UNL     1      30.599  -5.216 -22.113  0.00  0.00    -0.101 C 
ATOM     33  H   UNL     1      32.632  -5.282 -22.136  0.00  0.00    -0.080 HD
ENDBRANCH  25  27
ENDBRANCH  24  25
ENDBRANCH  23  24
ENDBRANCH   1  23
TORSDOF 5
ENDMDL
MODEL 4
REMARK VINA RESULT:     -11.6      1.918     10.605
REMARK  Name = 23650961
REMARK  5 active torsions:
REMARK  status: ('A' for Active; 'I' for Inactive)
REMARK    1  A    between atoms: N_1  and  C_23
REMARK    2  A    between atoms: C_5  and  C_12
REMARK    3  A    between atoms: C_23  and  C_24
REMARK    4  A    between atoms: C_24  and  C_25
REMARK    5  A    between atoms: C_25  and  C_27
REMARK                            x       y       z     vdW  Elec       q    Type
REMARK                         _______ _______ _______ _____ _____    ______ ____
ROOT
ATOM      1  N   UNL     1      33.864 -13.241 -24.606  0.00  0.00    -0.268 N 
ATOM      2  N   UNL     1      34.195 -15.564 -24.606  0.00  0.00    -0.342 NA
ATOM      3  N   UNL     1      33.956 -14.348 -22.540  0.00  0.00    -0.170 NA
ATOM      4  C   UNL     1      34.009 -14.421 -23.894  0.00  0.00    +0.144 C 
ATOM      5  C   UNL     1      34.295 -16.731 -22.503  0.00  0.00    +0.061 C 
ATOM      6  C   UNL     1      34.333 -16.694 -23.882  0.00  0.00    +0.123 C 
ATOM      7  C   UNL     1      34.102 -15.515 -21.878  0.00  0.00    +0.113 C 
ATOM      8  C   UNL     1      34.536 -17.944 -24.676  0.00  0.00    +0.067 C 
ATOM      9  H   UNL     1      33.901 -13.284 -25.589  0.00  0.00    +0.159 HD
ENDROOT
BRANCH   5  12
ATOM     10  N   UNL     1      33.367 -18.636 -21.259  0.00  0.00    -0.314 N 
ATOM     11  N   UNL     1      35.581 -18.522 -21.418  0.00  0.00    -0.315 N 
ATOM     12  C   UNL     1      34.444 -17.942 -21.740  0.00  0.00    +0.171 C 
ATOM     13  C   UNL     1      33.840 -19.731 -20.583  0.00  0.00    +0.059 C 
ATOM     14  C   UNL     1      35.224 -19.638 -20.697  0.00  0.00    +0.055 C 
ATOM     15  C   UNL     1      36.029 -20.625 -20.103  0.00  0.00    -0.008 C 
ATOM     16  C   UNL     1      33.195 -20.766 -19.902  0.00  0.00    +0.011 C 
ATOM     17  C   UNL     1      34.011 -21.739 -19.317  0.00  0.00    -0.021 C 
ATOM     18  C   UNL     1      35.403 -21.673 -19.414  0.00  0.00    -0.007 C 
ATOM     19  C   UNL     1      37.521 -20.598 -20.179  0.00  0.00    +0.032 C 
ATOM     20  C   UNL     1      33.381 -22.872 -18.575  0.00  0.00    +0.031 C 
ATOM     21  H   UNL     1      32.421 -18.392 -21.376  0.00  0.00    +0.149 HD
ATOM     22  H   UNL     1      36.492 -18.221 -21.644  0.00  0.00    +0.149 HD
ENDBRANCH   5  12
BRANCH   1  23
ATOM     23  C   UNL     1      33.661 -11.953 -23.988  0.00  0.00    +0.098 C 
BRANCH  23  24
ATOM     24  C   UNL     1      34.284 -10.843 -24.831  0.00  0.00    +0.022 C 
BRANCH  24  25
ATOM     25  C   UNL     1      34.663  -9.619 -23.997  0.00  0.00    +0.002 C 
BRANCH  25  27
ATOM     26  N   UNL     1      32.198  -6.430 -22.445  0.00  0.00    +0.385 N 
ATOM     27  C   UNL     1      33.477  -8.672 -23.834  0.00  0.00    -0.004 C 
ATOM     28  C   UNL     1      33.900  -7.216 -24.058  0.00  0.00    -0.023 C 
ATOM     29  C   UNL     1      32.841  -8.818 -22.448  0.00  0.00    -0.023 C 
ATOM     30  C   UNL     1      32.741  -6.253 -23.799  0.00  0.00    -0.077 C 
ATOM     31  C   UNL     1      31.716  -7.802 -22.242  0.00  0.00    -0.077 C 
ATOM     32  C   UNL     1      31.125  -5.468 -22.193  0.00  0.00    -0.101 C 
ATOM     33  H   UNL     1      32.952  -6.260 -21.779  0.00  0.00    -0.080 HD
ENDBRANCH  25  27
ENDBRANCH  24  25
ENDBRANCH  23  24
ENDBRANCH   1  23
TORSDOF 5
ENDMDL
MODEL 5
REMARK VINA RESULT:     -11.4      1.996      3.194
REMARK  Name = 23650961
REMARK  5 active torsions:
REMARK  status: ('A' for Active; 'I' for Inactive)
REMARK    1  A    between atoms: N_1  and  C_23
REMARK    2  A    between atoms: C_5  and  C_12
REMARK    3  A    between atoms: C_23  and  C_24
REMARK    4  A    between atoms: C_24  and  C_25
REMARK    5  A    between atoms: C_25  and  C_27
REMARK                            x       y       z     vdW  Elec       q    Type
REMARK                         _______ _______ _______ _____ _____    ______ ____
ROOT
ATOM      1  N   UNL     1      35.199 -19.359 -21.996  0.00  0.00    -0.268 N 
ATOM      2  N   UNL     1      34.573 -17.696 -23.529  0.00  0.00    -0.342 NA
ATOM      3  N   UNL     1      34.839 -17.186 -21.189  0.00  0.00    -0.170 NA
ATOM      4  C   UNL     1      34.860 -18.038 -22.246  0.00  0.00    +0.144 C 
ATOM      5  C   UNL     1      34.195 -15.455 -22.735  0.00  0.00    +0.061 C 
ATOM      6  C   UNL     1      34.247 -16.404 -23.737  0.00  0.00    +0.123 C 
ATOM      7  C   UNL     1      34.504 -15.908 -21.468  0.00  0.00    +0.113 C 
ATOM      8  C   UNL     1      33.935 -16.040 -25.152  0.00  0.00    +0.067 C 
ATOM      9  H   UNL     1      35.217 -19.985 -22.756  0.00  0.00    +0.159 HD
ENDROOT
BRANCH   5  12
ATOM     10  N   UNL     1      32.831 -13.462 -22.285  0.00  0.00    -0.314 N 
ATOM     11  N   UNL     1      34.424 -13.264 -23.822  0.00  0.00    -0.315 N 
ATOM     12  C   UNL     1      33.845 -14.080 -22.966  0.00  0.00    +0.171 C 
ATOM     13  C   UNL     1      32.751 -12.168 -22.730  0.00  0.00    +0.059 C 
ATOM     14  C   UNL     1      33.755 -12.068 -23.689  0.00  0.00    +0.055 C 
ATOM     15  C   UNL     1      33.949 -10.846 -24.355  0.00  0.00    -0.008 C 
ATOM     16  C   UNL     1      31.911 -11.106 -22.387  0.00  0.00    +0.011 C 
ATOM     17  C   UNL     1      32.117  -9.898 -23.060  0.00  0.00    -0.021 C 
ATOM     18  C   UNL     1      33.116  -9.767 -24.026  0.00  0.00    -0.007 C 
ATOM     19  C   UNL     1      35.003 -10.657 -25.396  0.00  0.00    +0.032 C 
ATOM     20  C   UNL     1      31.252  -8.724 -22.735  0.00  0.00    +0.031 C 
ATOM     21  H   UNL     1      32.260 -13.874 -21.597  0.00  0.00    +0.149 HD
ATOM     22  H   UNL     1      35.174 -13.465 -24.428  0.00  0.00    +0.149 HD
ENDBRANCH   5  12
BRANCH   1  23
ATOM     23  C   UNL     1      35.527 -19.868 -20.686  0.00  0.00    +0.098 C 
BRANCH  23  24
ATOM     24  C   UNL     1      34.364 -20.672 -20.111  0.00  0.00    +0.022 C 
BRANCH  24  25
ATOM     25  C   UNL     1      34.808 -22.026 -19.558  0.00  0.00    +0.002 C 
BRANCH  25  27
ATOM     26  N   UNL     1      36.543 -23.058 -15.739  0.00  0.00    +0.385 N 
ATOM     27  C   UNL     1      35.214 -21.918 -18.090  0.00  0.00    -0.004 C 
ATOM     28  C   UNL     1      36.739 -21.943 -17.938  0.00  0.00    -0.023 C 
ATOM     29  C   UNL     1      34.593 -23.047 -17.261  0.00  0.00    -0.023 C 
ATOM     30  C   UNL     1      37.152 -21.936 -16.466  0.00  0.00    -0.077 C 
ATOM     31  C   UNL     1      35.077 -23.003 -15.811  0.00  0.00    -0.077 C 
ATOM     32  C   UNL     1      36.988 -23.068 -14.345  0.00  0.00    -0.101 C 
ATOM     33  H   UNL     1      36.847 -23.924 -16.185  0.00  0.00    -0.080 HD
ENDBRANCH  25  27
ENDBRANCH  24  25
ENDBRANCH  23  24
ENDBRANCH   1  23
TORSDOF 5
ENDMDL
MODEL 6
REMARK VINA RESULT:     -11.3      1.612      3.055
REMARK  Name = 23650961
REMARK  5 active torsions:
REMARK  status: ('A' for Active; 'I' for Inactive)
REMARK    1  A    between atoms: N_1  and  C_23
REMARK    2  A    between atoms: C_5  and  C_12
REMARK    3  A    between atoms: C_23  and  C_24
REMARK    4  A    between atoms: C_24  and  C_25
REMARK    5  A    between atoms: C_25  and  C_27
REMARK                            x       y       z     vdW  Elec       q    Type
REMARK                         _______ _______ _______ _____ _____    ______ ____
ROOT
ATOM      1  N   UNL     1      33.796 -16.333 -23.246  0.00  0.00    -0.268 N 
ATOM      2  N   UNL     1      32.864 -14.457 -22.189  0.00  0.00    -0.342 NA
ATOM      3  N   UNL     1      34.068 -14.236 -24.264  0.00  0.00    -0.170 NA
ATOM      4  C   UNL     1      33.568 -14.965 -23.233  0.00  0.00    +0.144 C 
ATOM      5  C   UNL     1      33.125 -12.290 -23.206  0.00  0.00    +0.061 C 
ATOM      6  C   UNL     1      32.662 -13.123 -22.207  0.00  0.00    +0.123 C 
ATOM      7  C   UNL     1      33.829 -12.909 -24.219  0.00  0.00    +0.113 C 
ATOM      8  C   UNL     1      31.885 -12.576 -21.053  0.00  0.00    +0.067 C 
ATOM      9  H   UNL     1      33.437 -16.870 -22.504  0.00  0.00    +0.159 HD
ENDROOT
BRANCH   5  12
ATOM     10  N   UNL     1      31.749 -10.309 -22.742  0.00  0.00    -0.314 N 
ATOM     11  N   UNL     1      33.744  -9.956 -23.655  0.00  0.00    -0.315 N 
ATOM     12  C   UNL     1      32.905 -10.869 -23.215  0.00  0.00    +0.171 C 
ATOM     13  C   UNL     1      31.849  -8.949 -22.889  0.00  0.00    +0.059 C 
ATOM     14  C   UNL     1      33.103  -8.753 -23.460  0.00  0.00    +0.055 C 
ATOM     15  C   UNL     1      33.530  -7.445 -23.747  0.00  0.00    -0.008 C 
ATOM     16  C   UNL     1      30.977  -7.904 -22.579  0.00  0.00    +0.011 C 
ATOM     17  C   UNL     1      31.416  -6.609 -22.872  0.00  0.00    -0.021 C 
ATOM     18  C   UNL     1      32.669  -6.381 -23.445  0.00  0.00    -0.007 C 
ATOM     19  C   UNL     1      34.859  -7.150 -24.359  0.00  0.00    +0.032 C 
ATOM     20  C   UNL     1      30.528  -5.448 -22.563  0.00  0.00    +0.031 C 
ATOM     21  H   UNL     1      30.981 -10.795 -22.365  0.00  0.00    +0.149 HD
ATOM     22  H   UNL     1      34.639 -10.101 -24.041  0.00  0.00    +0.149 HD
ENDBRANCH   5  12
BRANCH   1  23
ATOM     23  C   UNL     1      34.526 -17.013 -24.288  0.00  0.00    +0.098 C 
BRANCH  23  24
ATOM     24  C   UNL     1      35.252 -18.235 -23.731  0.00  0.00    +0.022 C 
BRANCH  24  25
ATOM     25  C   UNL     1      35.312 -18.233 -22.204  0.00  0.00    +0.002 C 
BRANCH  25  27
ATOM     26  N   UNL     1      34.076 -21.212 -19.330  0.00  0.00    +0.385 N 
ATOM     27  C   UNL     1      34.866 -19.576 -21.631  0.00  0.00    -0.004 C 
ATOM     28  C   UNL     1      33.484 -19.464 -20.978  0.00  0.00    -0.023 C 
ATOM     29  C   UNL     1      35.879 -20.104 -20.611  0.00  0.00    -0.023 C 
ATOM     30  C   UNL     1      33.074 -20.780 -20.314  0.00  0.00    -0.077 C 
ATOM     31  C   UNL     1      35.390 -21.399 -19.960  0.00  0.00    -0.077 C 
ATOM     32  C   UNL     1      33.646 -22.443 -18.668  0.00  0.00    -0.101 C 
ATOM     33  H   UNL     1      34.165 -20.477 -18.628  0.00  0.00    -0.080 HD
ENDBRANCH  25  27
ENDBRANCH  24  25
ENDBRANCH  23  24
ENDBRANCH   1  23
TORSDOF 5
ENDMDL
MODEL 7
REMARK VINA RESULT:     -11.3      2.902      6.981
REMARK  Name = 23650961
REMARK  5 active torsions:
REMARK  status: ('A' for Active; 'I' for Inactive)
REMARK    1  A    between atoms: N_1  and  C_23
REMARK    2  A    between atoms: C_5  and  C_12
REMARK    3  A    between atoms: C_23  and  C_24
REMARK    4  A    between atoms: C_24  and  C_25
REMARK    5  A    between atoms: C_25  and  C_27
REMARK                            x       y       z     vdW  Elec       q    Type
REMARK                         _______ _______ _______ _____ _____    ______ ____
ROOT
ATOM      1  N   UNL     1      34.426 -22.895 -18.221  0.00  0.00    -0.268 N 
ATOM      2  N   UNL     1      35.592 -21.273 -19.453  0.00  0.00    -0.342 NA
ATOM      3  N   UNL     1      33.183 -21.280 -19.385  0.00  0.00    -0.170 NA
ATOM      4  C   UNL     1      34.399 -21.781 -19.046  0.00  0.00    +0.144 C 
ATOM      5  C   UNL     1      34.348 -19.603 -20.661  0.00  0.00    +0.061 C 
ATOM      6  C   UNL     1      35.530 -20.191 -20.255  0.00  0.00    +0.123 C 
ATOM      7  C   UNL     1      33.194 -20.197 -20.190  0.00  0.00    +0.113 C 
ATOM      8  C   UNL     1      36.848 -19.642 -20.697  0.00  0.00    +0.067 C 
ATOM      9  H   UNL     1      35.302 -23.264 -17.969  0.00  0.00    +0.159 HD
ENDROOT
BRANCH   5  12
ATOM     10  N   UNL     1      34.072 -17.189 -21.028  0.00  0.00    -0.314 N 
ATOM     11  N   UNL     1      34.441 -18.444 -22.825  0.00  0.00    -0.315 N 
ATOM     12  C   UNL     1      34.292 -18.449 -21.517  0.00  0.00    +0.171 C 
ATOM     13  C   UNL     1      34.077 -16.319 -22.087  0.00  0.00    +0.059 C 
ATOM     14  C   UNL     1      34.310 -17.125 -23.197  0.00  0.00    +0.055 C 
ATOM     15  C   UNL     1      34.378 -16.536 -24.471  0.00  0.00    -0.008 C 
ATOM     16  C   UNL     1      33.904 -14.936 -22.167  0.00  0.00    +0.011 C 
ATOM     17  C   UNL     1      33.974 -14.365 -23.442  0.00  0.00    -0.021 C 
ATOM     18  C   UNL     1      34.206 -15.148 -24.575  0.00  0.00    -0.007 C 
ATOM     19  C   UNL     1      34.623 -17.330 -25.712  0.00  0.00    +0.032 C 
ATOM     20  C   UNL     1      33.798 -12.890 -23.593  0.00  0.00    +0.031 C 
ATOM     21  H   UNL     1      33.933 -16.951 -20.083  0.00  0.00    +0.149 HD
ATOM     22  H   UNL     1      34.610 -19.217 -23.411  0.00  0.00    +0.149 HD
ENDBRANCH   5  12
BRANCH   1  23
ATOM     23  C   UNL     1      33.241 -23.541 -17.709  0.00  0.00    +0.098 C 
BRANCH  23  24
ATOM     24  C   UNL     1      33.389 -23.845 -16.221  0.00  0.00    +0.022 C 
BRANCH  24  25
ATOM     25  C   UNL     1      34.299 -22.843 -15.509  0.00  0.00    +0.002 C 
BRANCH  25  27
ATOM     26  N   UNL     1      37.856 -25.272 -15.187  0.00  0.00    +0.385 N 
ATOM     27  C   UNL     1      35.511 -23.538 -14.893  0.00  0.00    -0.004 C 
ATOM     28  C   UNL     1      36.811 -23.060 -15.548  0.00  0.00    -0.023 C 
ATOM     29  C   UNL     1      35.397 -25.060 -15.020  0.00  0.00    -0.023 C 
ATOM     30  C   UNL     1      38.021 -23.823 -15.008  0.00  0.00    -0.077 C 
ATOM     31  C   UNL     1      36.653 -25.758 -14.497  0.00  0.00    -0.077 C 
ATOM     32  C   UNL     1      39.041 -25.986 -14.712  0.00  0.00    -0.101 C 
ATOM     33  H   UNL     1      37.741 -25.455 -16.184  0.00  0.00    -0.080 HD
ENDBRANCH  25  27
ENDBRANCH  24  25
ENDBRANCH  23  24
ENDBRANCH   1  23
TORSDOF 5
ENDMDL
MODEL 8
REMARK VINA RESULT:     -11.2      3.936     12.433
REMARK  Name = 23650961
REMARK  5 active torsions:
REMARK  status: ('A' for Active; 'I' for Inactive)
REMARK    1  A    between atoms: N_1  and  C_23
REMARK    2  A    between atoms: C_5  and  C_12
REMARK    3  A    between atoms: C_23  and  C_24
REMARK    4  A    between atoms: C_24  and  C_25
REMARK    5  A    between atoms: C_25  and  C_27
REMARK                            x       y       z     vdW  Elec       q    Type
REMARK                         _______ _______ _______ _____ _____    ______ ____
ROOT
ATOM      1  N   UNL     1      35.289 -20.256 -20.952  0.00  0.00    -0.268 N 
ATOM      2  N   UNL     1      34.522 -21.738 -19.302  0.00  0.00    -0.342 NA
ATOM      3  N   UNL     1      36.652 -20.632 -19.079  0.00  0.00    -0.170 NA
ATOM      4  C   UNL     1      35.495 -20.895 -19.739  0.00  0.00    +0.144 C 
ATOM      5  C   UNL     1      35.896 -22.147 -17.367  0.00  0.00    +0.061 C 
ATOM      6  C   UNL     1      34.754 -22.344 -18.119  0.00  0.00    +0.123 C 
ATOM      7  C   UNL     1      36.819 -21.272 -17.903  0.00  0.00    +0.113 C 
ATOM      8  C   UNL     1      33.678 -23.267 -17.648  0.00  0.00    +0.067 C 
ATOM      9  H   UNL     1      34.453 -20.440 -21.438  0.00  0.00    +0.159 HD
ENDROOT
BRANCH   5  12
ATOM     10  N   UNL     1      35.300 -22.634 -15.034  0.00  0.00    -0.314 N 
ATOM     11  N   UNL     1      37.136 -23.605 -15.827  0.00  0.00    -0.315 N 
ATOM     12  C   UNL     1      36.134 -22.799 -16.107  0.00  0.00    +0.171 C 
ATOM     13  C   UNL     1      35.797 -23.380 -13.996  0.00  0.00    +0.059 C 
ATOM     14  C   UNL     1      36.942 -23.978 -14.516  0.00  0.00    +0.055 C 
ATOM     15  C   UNL     1      37.705 -24.826 -13.696  0.00  0.00    -0.008 C 
ATOM     16  C   UNL     1      35.356 -23.579 -12.687  0.00  0.00    +0.011 C 
ATOM     17  C   UNL     1      36.127 -24.426 -11.884  0.00  0.00    -0.021 C 
ATOM     18  C   UNL     1      37.281 -25.039 -12.377  0.00  0.00    -0.007 C 
ATOM     19  C   UNL     1      38.946 -25.504 -14.176  0.00  0.00    +0.032 C 
ATOM     20  C   UNL     1      35.707 -24.680 -10.474  0.00  0.00    +0.031 C 
ATOM     21  H   UNL     1      34.489 -22.078 -15.010  0.00  0.00    +0.149 HD
ATOM     22  H   UNL     1      37.867 -23.883 -16.426  0.00  0.00    +0.149 HD
ENDBRANCH   5  12
BRANCH   1  23
ATOM     23  C   UNL     1      36.231 -19.336 -21.542  0.00  0.00    +0.098 C 
BRANCH  23  24
ATOM     24  C   UNL     1      35.518 -18.095 -22.069  0.00  0.00    +0.022 C 
BRANCH  24  25
ATOM     25  C   UNL     1      34.586 -17.470 -21.030  0.00  0.00    +0.002 C 
BRANCH  25  27
ATOM     26  N   UNL     1      32.873 -13.847 -22.640  0.00  0.00    +0.385 N 
ATOM     27  C   UNL     1      34.369 -15.984 -21.304  0.00  0.00    -0.004 C 
ATOM     28  C   UNL     1      32.981 -15.535 -20.835  0.00  0.00    -0.023 C 
ATOM     29  C   UNL     1      34.540 -15.668 -22.793  0.00  0.00    -0.023 C 
ATOM     30  C   UNL     1      32.718 -14.073 -21.197  0.00  0.00    -0.077 C 
ATOM     31  C   UNL     1      34.226 -14.200 -23.089  0.00  0.00    -0.077 C 
ATOM     32  C   UNL     1      32.568 -12.457 -22.977  0.00  0.00    -0.101 C 
ATOM     33  H   UNL     1      32.211 -14.454 -23.126  0.00  0.00    -0.080 HD
ENDBRANCH  25  27
ENDBRANCH  24  25
ENDBRANCH  23  24
ENDBRANCH   1  23
TORSDOF 5
ENDMDL
MODEL 9
REMARK VINA RESULT:     -11.1      2.509     11.162
REMARK  Name = 23650961
REMARK  5 active torsions:
REMARK  status: ('A' for Active; 'I' for Inactive)
REMARK    1  A    between atoms: N_1  and  C_23
REMARK    2  A    between atoms: C_5  and  C_12
REMARK    3  A    between atoms: C_23  and  C_24
REMARK    4  A    between atoms: C_24  and  C_25
REMARK    5  A    between atoms: C_25  and  C_27
REMARK                            x       y       z     vdW  Elec       q    Type
REMARK                         _______ _______ _______ _____ _____    ______ ____
ROOT
ATOM      1  N   UNL     1      35.312 -19.098 -22.606  0.00  0.00    -0.268 N 
ATOM      2  N   UNL     1      35.824 -20.374 -20.704  0.00  0.00    -0.342 NA
ATOM      3  N   UNL     1      33.537 -19.989 -21.357  0.00  0.00    -0.170 NA
ATOM      4  C   UNL     1      34.877 -19.844 -21.522  0.00  0.00    +0.144 C 
ATOM      5  C   UNL     1      34.026 -21.302 -19.399  0.00  0.00    +0.061 C 
ATOM      6  C   UNL     1      35.366 -21.093 -19.659  0.00  0.00    +0.123 C 
ATOM      7  C   UNL     1      33.148 -20.720 -20.291  0.00  0.00    +0.113 C 
ATOM      8  C   UNL     1      36.417 -21.671 -18.767  0.00  0.00    +0.067 C 
ATOM      9  H   UNL     1      36.281 -18.988 -22.734  0.00  0.00    +0.159 HD
ENDROOT
BRANCH   5  12
ATOM     10  N   UNL     1      32.213 -22.268 -18.052  0.00  0.00    -0.314 N 
ATOM     11  N   UNL     1      34.291 -22.660 -17.369  0.00  0.00    -0.315 N 
ATOM     12  C   UNL     1      33.548 -22.070 -18.281  0.00  0.00    +0.171 C 
ATOM     13  C   UNL     1      32.088 -23.034 -16.921  0.00  0.00    +0.059 C 
ATOM     14  C   UNL     1      33.399 -23.266 -16.514  0.00  0.00    +0.055 C 
ATOM     15  C   UNL     1      33.633 -24.035 -15.362  0.00  0.00    -0.008 C 
ATOM     16  C   UNL     1      30.975 -23.529 -16.240  0.00  0.00    +0.011 C 
ATOM     17  C   UNL     1      31.225 -24.292 -15.095  0.00  0.00    -0.021 C 
ATOM     18  C   UNL     1      32.529 -24.542 -14.662  0.00  0.00    -0.007 C 
ATOM     19  C   UNL     1      35.007 -24.329 -14.857  0.00  0.00    +0.032 C 
ATOM     20  C   UNL     1      30.075 -24.851 -14.323  0.00  0.00    +0.031 C 
ATOM     21  H   UNL     1      31.473 -21.923 -18.602  0.00  0.00    +0.149 HD
ATOM     22  H   UNL     1      35.274 -22.667 -17.311  0.00  0.00    +0.149 HD
ENDBRANCH   5  12
BRANCH   1  23
ATOM     23  C   UNL     1      34.424 -18.475 -23.558  0.00  0.00    +0.098 C 
BRANCH  23  24
ATOM     24  C   UNL     1      34.614 -16.961 -23.566  0.00  0.00    +0.022 C 
BRANCH  24  25
ATOM     25  C   UNL     1      34.935 -16.406 -22.177  0.00  0.00    +0.002 C 
BRANCH  25  27
ATOM     26  N   UNL     1      32.122 -13.129 -22.226  0.00  0.00    +0.385 N 
ATOM     27  C   UNL     1      34.366 -15.000 -21.999  0.00  0.00    -0.004 C 
ATOM     28  C   UNL     1      33.191 -15.003 -21.016  0.00  0.00    -0.023 C 
ATOM     29  C   UNL     1      33.918 -14.413 -23.341  0.00  0.00    -0.023 C 
ATOM     30  C   UNL     1      32.552 -13.618 -20.909  0.00  0.00    -0.077 C 
ATOM     31  C   UNL     1      33.255 -13.047 -23.157  0.00  0.00    -0.077 C 
ATOM     32  C   UNL     1      31.467 -11.827 -22.101  0.00  0.00    -0.101 C 
ATOM     33  H   UNL     1      31.450 -13.797 -22.606  0.00  0.00    -0.080 HD
ENDBRANCH  25  27
ENDBRANCH  24  25
ENDBRANCH  23  24
ENDBRANCH   1  23
TORSDOF 5
ENDMDL
