MODEL 1
REMARK VINA RESULT:      -8.4      0.000      0.000
REMARK  Name = 4324
REMARK  11 active torsions:
REMARK  status: ('A' for Active; 'I' for Inactive)
REMARK    1  A    between atoms: C_2  and  C_10
REMARK    2  A    between atoms: C_3  and  C_21
REMARK    3  A    between atoms: C_4  and  O_8
REMARK    4  A    between atoms: C_10  and  N_11
REMARK    5  A    between atoms: N_11  and  C_14
REMARK    6  A    between atoms: C_14  and  C_18
REMARK    7  A    between atoms: C_18  and  O_19
REMARK    8  A    between atoms: C_21  and  O_22
REMARK    9  A    between atoms: O_22  and  P_23
REMARK   10  A    between atoms: P_23  and  O_25
REMARK   11  A    between atoms: P_23  and  O_27
REMARK                            x       y       z     vdW  Elec       q    Type
REMARK                         _______ _______ _______ _____ _____    ______ ____
ROOT
ATOM      1  N   UNL     1      32.940 -23.541 -16.239  0.00  0.00    -0.245 NA
ATOM      2  C   UNL     1      35.525 -23.575 -15.174  0.00  0.00    -0.009 C 
ATOM      3  C   UNL     1      34.467 -24.118 -14.454  0.00  0.00    +0.024 C 
ATOM      4  C   UNL     1      35.292 -23.013 -16.425  0.00  0.00    +0.141 C 
ATOM      5  C   UNL     1      33.994 -23.021 -16.908  0.00  0.00    +0.092 C 
ATOM      6  C   UNL     1      33.205 -24.078 -15.026  0.00  0.00    +0.096 C 
ATOM      7  C   UNL     1      33.689 -22.430 -18.245  0.00  0.00    +0.055 C 
ENDROOT
BRANCH   4   8
ATOM      8  O   UNL     1      36.308 -22.473 -17.149  0.00  0.00    -0.505 OA
ATOM      9  H   UNL     1      37.182 -22.793 -17.042  0.00  0.00    +0.292 HD
ENDBRANCH   4   8
BRANCH   2  10
ATOM     10  C   UNL     1      36.908 -23.590 -14.608  0.00  0.00    -0.050 C 
BRANCH  10  11
ATOM     11  N   UNL     1      37.849 -24.316 -15.460  0.00  0.00    +0.396 N 
ATOM     12  H   UNL     1      37.348 -24.670 -16.276  0.00  0.00    -0.083 HD
ATOM     13  H   UNL     1      38.590 -23.671 -15.736  0.00  0.00    -0.083 HD
BRANCH  11  14
ATOM     14  C   UNL     1      38.469 -25.451 -14.750  0.00  0.00    +0.046 C 
ATOM     15  C   UNL     1      39.943 -25.672 -14.859  0.00  0.00    -0.011 C 
ATOM     16  C   UNL     1      39.346 -25.190 -13.569  0.00  0.00    -0.011 C 
BRANCH  14  18
ATOM     17  O   UNL     1      37.248 -27.186 -13.713  0.00  0.00    -0.253 OA
ATOM     18  C   UNL     1      37.562 -26.603 -14.739  0.00  0.00    +0.295 C 
BRANCH  18  19
ATOM     19  O   UNL     1      37.126 -26.928 -15.981  0.00  0.00    -0.482 OA
ATOM     20  H   UNL     1      36.546 -27.654 -16.099  0.00  0.00    +0.295 HD
ENDBRANCH  18  19
ENDBRANCH  14  18
ENDBRANCH  11  14
ENDBRANCH  10  11
ENDBRANCH   2  10
BRANCH   3  21
ATOM     21  C   UNL     1      34.657 -24.733 -13.111  0.00  0.00    +0.181 C 
BRANCH  21  22
ATOM     22  O   UNL     1      34.988 -23.718 -12.168  0.00  0.00    -0.268 OA
BRANCH  22  23
ATOM     23  P   UNL     1      36.119 -24.042 -11.060  0.00  0.00    +0.473 P 
ATOM     24  O   UNL     1      37.172 -22.986 -10.899  0.00  0.00    -0.227 OA
BRANCH  23  25
ATOM     25  O   UNL     1      35.242 -24.341  -9.734  0.00  0.00    -0.303 OA
ATOM     26  H   UNL     1      34.631 -25.073  -9.908  0.00  0.00    +0.222 HD
ENDBRANCH  23  25
BRANCH  23  27
ATOM     27  O   UNL     1      36.664 -25.505 -11.482  0.00  0.00    -0.303 OA
ATOM     28  H   UNL     1      36.319 -25.738 -12.358  0.00  0.00    +0.222 HD
ENDBRANCH  23  27
ENDBRANCH  22  23
ENDBRANCH  21  22
ENDBRANCH   3  21
TORSDOF 11
ENDMDL
MODEL 2
REMARK VINA RESULT:      -8.3      3.347      5.817
REMARK  Name = 4324
REMARK  11 active torsions:
REMARK  status: ('A' for Active; 'I' for Inactive)
REMARK    1  A    between atoms: C_2  and  C_10
REMARK    2  A    between atoms: C_3  and  C_21
REMARK    3  A    between atoms: C_4  and  O_8
REMARK    4  A    between atoms: C_10  and  N_11
REMARK    5  A    between atoms: N_11  and  C_14
REMARK    6  A    between atoms: C_14  and  C_18
REMARK    7  A    between atoms: C_18  and  O_19
REMARK    8  A    between atoms: C_21  and  O_22
REMARK    9  A    between atoms: O_22  and  P_23
REMARK   10  A    between atoms: P_23  and  O_25
REMARK   11  A    between atoms: P_23  and  O_27
REMARK                            x       y       z     vdW  Elec       q    Type
REMARK                         _______ _______ _______ _____ _____    ______ ____
ROOT
ATOM      1  N   UNL     1      36.387 -21.356 -18.512  0.00  0.00    -0.245 NA
ATOM      2  C   UNL     1      34.096 -22.762 -17.745  0.00  0.00    -0.009 C 
ATOM      3  C   UNL     1      35.211 -22.739 -16.915  0.00  0.00    +0.024 C 
ATOM      4  C   UNL     1      34.125 -22.082 -18.959  0.00  0.00    +0.141 C 
ATOM      5  C   UNL     1      35.284 -21.401 -19.292  0.00  0.00    +0.092 C 
ATOM      6  C   UNL     1      36.322 -22.027 -17.340  0.00  0.00    +0.096 C 
ATOM      7  C   UNL     1      35.369 -20.656 -20.584  0.00  0.00    +0.055 C 
ENDROOT
BRANCH   4   8
ATOM      8  O   UNL     1      33.050 -22.089 -19.790  0.00  0.00    -0.505 OA
ATOM      9  H   UNL     1      32.980 -22.739 -20.461  0.00  0.00    +0.292 HD
ENDBRANCH   4   8
BRANCH   2  10
ATOM     10  C   UNL     1      32.869 -23.513 -17.339  0.00  0.00    -0.050 C 
BRANCH  10  11
ATOM     11  N   UNL     1      31.702 -22.641 -17.210  0.00  0.00    +0.396 N 
ATOM     12  H   UNL     1      32.021 -21.683 -17.064  0.00  0.00    -0.083 HD
ATOM     13  H   UNL     1      31.152 -22.718 -18.066  0.00  0.00    -0.083 HD
BRANCH  11  14
ATOM     14  C   UNL     1      30.844 -23.037 -16.076  0.00  0.00    +0.046 C 
ATOM     15  C   UNL     1      31.313 -24.099 -15.135  0.00  0.00    -0.011 C 
ATOM     16  C   UNL     1      31.247 -22.669 -14.685  0.00  0.00    -0.011 C 
BRANCH  14  18
ATOM     17  O   UNL     1      28.924 -21.993 -16.968  0.00  0.00    -0.253 OA
ATOM     18  C   UNL     1      29.431 -22.982 -16.462  0.00  0.00    +0.295 C 
BRANCH  18  19
ATOM     19  O   UNL     1      28.778 -24.139 -16.194  0.00  0.00    -0.482 OA
ATOM     20  H   UNL     1      28.387 -24.272 -15.353  0.00  0.00    +0.295 HD
ENDBRANCH  18  19
ENDBRANCH  14  18
ENDBRANCH  11  14
ENDBRANCH  10  11
ENDBRANCH   2  10
BRANCH   3  21
ATOM     21  C   UNL     1      35.236 -23.448 -15.605  0.00  0.00    +0.181 C 
BRANCH  21  22
ATOM     22  O   UNL     1      35.887 -24.704 -15.758  0.00  0.00    -0.268 OA
BRANCH  22  23
ATOM     23  P   UNL     1      37.106 -25.062 -14.760  0.00  0.00    +0.473 P 
ATOM     24  O   UNL     1      37.995 -23.908 -14.401  0.00  0.00    -0.227 OA
BRANCH  23  25
ATOM     25  O   UNL     1      36.350 -25.757 -13.509  0.00  0.00    -0.303 OA
ATOM     26  H   UNL     1      36.812 -26.573 -13.264  0.00  0.00    +0.222 HD
ENDBRANCH  23  25
BRANCH  23  27
ATOM     27  O   UNL     1      37.845 -26.305 -15.483  0.00  0.00    -0.303 OA
ATOM     28  H   UNL     1      37.824 -26.178 -16.445  0.00  0.00    +0.222 HD
ENDBRANCH  23  27
ENDBRANCH  22  23
ENDBRANCH  21  22
ENDBRANCH   3  21
TORSDOF 11
ENDMDL
MODEL 3
REMARK VINA RESULT:      -8.2      2.534      3.192
REMARK  Name = 4324
REMARK  11 active torsions:
REMARK  status: ('A' for Active; 'I' for Inactive)
REMARK    1  A    between atoms: C_2  and  C_10
REMARK    2  A    between atoms: C_3  and  C_21
REMARK    3  A    between atoms: C_4  and  O_8
REMARK    4  A    between atoms: C_10  and  N_11
REMARK    5  A    between atoms: N_11  and  C_14
REMARK    6  A    between atoms: C_14  and  C_18
REMARK    7  A    between atoms: C_18  and  O_19
REMARK    8  A    between atoms: C_21  and  O_22
REMARK    9  A    between atoms: O_22  and  P_23
REMARK   10  A    between atoms: P_23  and  O_25
REMARK   11  A    between atoms: P_23  and  O_27
REMARK                            x       y       z     vdW  Elec       q    Type
REMARK                         _______ _______ _______ _____ _____    ______ ____
ROOT
ATOM      1  N   UNL     1      34.224 -22.708 -17.997  0.00  0.00    -0.245 NA
ATOM      2  C   UNL     1      35.661 -23.041 -15.622  0.00  0.00    -0.009 C 
ATOM      3  C   UNL     1      34.361 -23.523 -15.725  0.00  0.00    +0.024 C 
ATOM      4  C   UNL     1      36.244 -22.392 -16.706  0.00  0.00    +0.141 C 
ATOM      5  C   UNL     1      35.489 -22.253 -17.860  0.00  0.00    +0.092 C 
ATOM      6  C   UNL     1      33.691 -23.334 -16.923  0.00  0.00    +0.096 C 
ATOM      7  C   UNL     1      36.067 -21.563 -19.052  0.00  0.00    +0.055 C 
ENDROOT
BRANCH   4   8
ATOM      8  O   UNL     1      37.512 -21.910 -16.633  0.00  0.00    -0.505 OA
ATOM      9  H   UNL     1      37.664 -20.986 -16.657  0.00  0.00    +0.292 HD
ENDBRANCH   4   8
BRANCH   2  10
ATOM     10  C   UNL     1      36.432 -23.217 -14.354  0.00  0.00    -0.050 C 
BRANCH  10  11
ATOM     11  N   UNL     1      37.557 -24.138 -14.511  0.00  0.00    +0.396 N 
ATOM     12  H   UNL     1      37.636 -24.397 -15.495  0.00  0.00    -0.083 HD
ATOM     13  H   UNL     1      38.401 -23.665 -14.188  0.00  0.00    -0.083 HD
BRANCH  11  14
ATOM     14  C   UNL     1      37.379 -25.362 -13.707  0.00  0.00    +0.046 C 
ATOM     15  C   UNL     1      38.037 -25.467 -12.370  0.00  0.00    -0.011 C 
ATOM     16  C   UNL     1      36.547 -25.314 -12.467  0.00  0.00    -0.011 C 
BRANCH  14  18
ATOM     17  O   UNL     1      38.296 -27.219 -14.842  0.00  0.00    -0.253 OA
ATOM     18  C   UNL     1      37.315 -26.540 -14.579  0.00  0.00    +0.295 C 
BRANCH  18  19
ATOM     19  O   UNL     1      36.062 -26.773 -15.040  0.00  0.00    -0.482 OA
ATOM     20  H   UNL     1      35.536 -26.061 -15.347  0.00  0.00    +0.295 HD
ENDBRANCH  18  19
ENDBRANCH  14  18
ENDBRANCH  11  14
ENDBRANCH  10  11
ENDBRANCH   2  10
BRANCH   3  21
ATOM     21  C   UNL     1      33.687 -24.226 -14.597  0.00  0.00    +0.181 C 
BRANCH  21  22
ATOM     22  O   UNL     1      32.293 -24.326 -14.867  0.00  0.00    -0.268 OA
BRANCH  22  23
ATOM     23  P   UNL     1      31.260 -23.665 -13.815  0.00  0.00    +0.473 P 
ATOM     24  O   UNL     1      30.156 -22.856 -14.431  0.00  0.00    -0.227 OA
BRANCH  23  25
ATOM     25  O   UNL     1      30.771 -24.939 -12.947  0.00  0.00    -0.303 OA
ATOM     26  H   UNL     1      30.091 -24.658 -12.314  0.00  0.00    +0.222 HD
ENDBRANCH  23  25
BRANCH  23  27
ATOM     27  O   UNL     1      32.216 -22.861 -12.789  0.00  0.00    -0.303 OA
ATOM     28  H   UNL     1      31.904 -22.999 -11.881  0.00  0.00    +0.222 HD
ENDBRANCH  23  27
ENDBRANCH  22  23
ENDBRANCH  21  22
ENDBRANCH   3  21
TORSDOF 11
ENDMDL
MODEL 4
REMARK VINA RESULT:      -8.2      3.364      5.918
REMARK  Name = 4324
REMARK  11 active torsions:
REMARK  status: ('A' for Active; 'I' for Inactive)
REMARK    1  A    between atoms: C_2  and  C_10
REMARK    2  A    between atoms: C_3  and  C_21
REMARK    3  A    between atoms: C_4  and  O_8
REMARK    4  A    between atoms: C_10  and  N_11
REMARK    5  A    between atoms: N_11  and  C_14
REMARK    6  A    between atoms: C_14  and  C_18
REMARK    7  A    between atoms: C_18  and  O_19
REMARK    8  A    between atoms: C_21  and  O_22
REMARK    9  A    between atoms: O_22  and  P_23
REMARK   10  A    between atoms: P_23  and  O_25
REMARK   11  A    between atoms: P_23  and  O_27
REMARK                            x       y       z     vdW  Elec       q    Type
REMARK                         _______ _______ _______ _____ _____    ______ ____
ROOT
ATOM      1  N   UNL     1      36.143 -22.234 -17.402  0.00  0.00    -0.245 NA
ATOM      2  C   UNL     1      33.556 -23.222 -17.018  0.00  0.00    -0.009 C 
ATOM      3  C   UNL     1      34.500 -23.327 -16.003  0.00  0.00    +0.024 C 
ATOM      4  C   UNL     1      33.903 -22.625 -18.226  0.00  0.00    +0.141 C 
ATOM      5  C   UNL     1      35.198 -22.152 -18.365  0.00  0.00    +0.092 C 
ATOM      6  C   UNL     1      35.769 -22.821 -16.243  0.00  0.00    +0.096 C 
ATOM      7  C   UNL     1      35.624 -21.503 -19.642  0.00  0.00    +0.055 C 
ENDROOT
BRANCH   4   8
ATOM      8  O   UNL     1      33.001 -22.511 -19.235  0.00  0.00    -0.505 OA
ATOM      9  H   UNL     1      32.139 -22.866 -19.136  0.00  0.00    +0.292 HD
ENDBRANCH   4   8
BRANCH   2  10
ATOM     10  C   UNL     1      32.172 -23.749 -16.817  0.00  0.00    -0.050 C 
BRANCH  10  11
ATOM     11  N   UNL     1      31.161 -22.695 -16.885  0.00  0.00    +0.396 N 
ATOM     12  H   UNL     1      31.568 -21.825 -16.540  0.00  0.00    -0.083 HD
ATOM     13  H   UNL     1      30.866 -22.601 -17.857  0.00  0.00    -0.083 HD
BRANCH  11  14
ATOM     14  C   UNL     1      29.973 -23.021 -16.073  0.00  0.00    +0.046 C 
ATOM     15  C   UNL     1      30.040 -24.143 -15.088  0.00  0.00    -0.011 C 
ATOM     16  C   UNL     1      29.976 -22.722 -14.610  0.00  0.00    -0.011 C 
BRANCH  14  18
ATOM     17  O   UNL     1      28.380 -23.594 -17.719  0.00  0.00    -0.253 OA
ATOM     18  C   UNL     1      28.749 -22.815 -16.854  0.00  0.00    +0.295 C 
BRANCH  18  19
ATOM     19  O   UNL     1      28.097 -21.680 -16.501  0.00  0.00    -0.482 OA
ATOM     20  H   UNL     1      28.180 -20.909 -17.026  0.00  0.00    +0.295 HD
ENDBRANCH  18  19
ENDBRANCH  14  18
ENDBRANCH  11  14
ENDBRANCH  10  11
ENDBRANCH   2  10
BRANCH   3  21
ATOM     21  C   UNL     1      34.184 -23.956 -14.691  0.00  0.00    +0.181 C 
BRANCH  21  22
ATOM     22  O   UNL     1      35.372 -24.502 -14.129  0.00  0.00    -0.268 OA
BRANCH  22  23
ATOM     23  P   UNL     1      35.665 -24.246 -12.560  0.00  0.00    +0.473 P 
ATOM     24  O   UNL     1      36.125 -25.451 -11.793  0.00  0.00    -0.227 OA
BRANCH  23  25
ATOM     25  O   UNL     1      36.714 -23.014 -12.591  0.00  0.00    -0.303 OA
ATOM     26  H   UNL     1      36.253 -22.203 -12.853  0.00  0.00    +0.222 HD
ENDBRANCH  23  25
BRANCH  23  27
ATOM     27  O   UNL     1      34.304 -23.560 -12.021  0.00  0.00    -0.303 OA
ATOM     28  H   UNL     1      33.636 -23.572 -12.724  0.00  0.00    +0.222 HD
ENDBRANCH  23  27
ENDBRANCH  22  23
ENDBRANCH  21  22
ENDBRANCH   3  21
TORSDOF 11
ENDMDL
MODEL 5
REMARK VINA RESULT:      -8.1      2.593      3.590
REMARK  Name = 4324
REMARK  11 active torsions:
REMARK  status: ('A' for Active; 'I' for Inactive)
REMARK    1  A    between atoms: C_2  and  C_10
REMARK    2  A    between atoms: C_3  and  C_21
REMARK    3  A    between atoms: C_4  and  O_8
REMARK    4  A    between atoms: C_10  and  N_11
REMARK    5  A    between atoms: N_11  and  C_14
REMARK    6  A    between atoms: C_14  and  C_18
REMARK    7  A    between atoms: C_18  and  O_19
REMARK    8  A    between atoms: C_21  and  O_22
REMARK    9  A    between atoms: O_22  and  P_23
REMARK   10  A    between atoms: P_23  and  O_25
REMARK   11  A    between atoms: P_23  and  O_27
REMARK                            x       y       z     vdW  Elec       q    Type
REMARK                         _______ _______ _______ _____ _____    ______ ____
ROOT
ATOM      1  N   UNL     1      34.325 -22.823 -17.864  0.00  0.00    -0.245 NA
ATOM      2  C   UNL     1      35.605 -23.011 -15.385  0.00  0.00    -0.009 C 
ATOM      3  C   UNL     1      34.349 -23.581 -15.568  0.00  0.00    +0.024 C 
ATOM      4  C   UNL     1      36.220 -22.347 -16.441  0.00  0.00    +0.141 C 
ATOM      5  C   UNL     1      35.544 -22.282 -17.649  0.00  0.00    +0.092 C 
ATOM      6  C   UNL     1      33.757 -23.461 -16.815  0.00  0.00    +0.096 C 
ATOM      7  C   UNL     1      36.160 -21.579 -18.814  0.00  0.00    +0.055 C 
ENDROOT
BRANCH   4   8
ATOM      8  O   UNL     1      37.446 -21.780 -16.290  0.00  0.00    -0.505 OA
ATOM      9  H   UNL     1      37.572 -20.874 -16.495  0.00  0.00    +0.292 HD
ENDBRANCH   4   8
BRANCH   2  10
ATOM     10  C   UNL     1      36.292 -23.109 -14.062  0.00  0.00    -0.050 C 
BRANCH  10  11
ATOM     11  N   UNL     1      37.620 -23.711 -14.169  0.00  0.00    +0.396 N 
ATOM     12  H   UNL     1      37.689 -24.199 -15.063  0.00  0.00    -0.083 HD
ATOM     13  H   UNL     1      38.313 -22.965 -14.105  0.00  0.00    -0.083 HD
BRANCH  11  14
ATOM     14  C   UNL     1      37.876 -24.672 -13.079  0.00  0.00    +0.046 C 
ATOM     15  C   UNL     1      37.344 -26.065 -13.185  0.00  0.00    -0.011 C 
ATOM     16  C   UNL     1      38.818 -25.809 -13.306  0.00  0.00    -0.011 C 
BRANCH  14  18
ATOM     17  O   UNL     1      37.066 -24.264 -10.899  0.00  0.00    -0.253 OA
ATOM     18  C   UNL     1      37.863 -23.987 -11.782  0.00  0.00    +0.295 C 
BRANCH  18  19
ATOM     19  O   UNL     1      38.824 -23.036 -11.692  0.00  0.00    -0.482 OA
ATOM     20  H   UNL     1      39.669 -23.185 -12.068  0.00  0.00    +0.295 HD
ENDBRANCH  18  19
ENDBRANCH  14  18
ENDBRANCH  11  14
ENDBRANCH  10  11
ENDBRANCH   2  10
BRANCH   3  21
ATOM     21  C   UNL     1      33.643 -24.304 -14.474  0.00  0.00    +0.181 C 
BRANCH  21  22
ATOM     22  O   UNL     1      32.256 -24.394 -14.783  0.00  0.00    -0.268 OA
BRANCH  22  23
ATOM     23  P   UNL     1      31.202 -23.674 -13.793  0.00  0.00    +0.473 P 
ATOM     24  O   UNL     1      30.136 -22.869 -14.476  0.00  0.00    -0.227 OA
BRANCH  23  25
ATOM     25  O   UNL     1      30.659 -24.905 -12.895  0.00  0.00    -0.303 OA
ATOM     26  H   UNL     1      31.031 -25.736 -13.227  0.00  0.00    +0.222 HD
ENDBRANCH  23  25
BRANCH  23  27
ATOM     27  O   UNL     1      32.139 -22.850 -12.765  0.00  0.00    -0.303 OA
ATOM     28  H   UNL     1      31.608 -22.552 -12.011  0.00  0.00    +0.222 HD
ENDBRANCH  23  27
ENDBRANCH  22  23
ENDBRANCH  21  22
ENDBRANCH   3  21
TORSDOF 11
ENDMDL
MODEL 6
REMARK VINA RESULT:      -7.7      2.809      5.334
REMARK  Name = 4324
REMARK  11 active torsions:
REMARK  status: ('A' for Active; 'I' for Inactive)
REMARK    1  A    between atoms: C_2  and  C_10
REMARK    2  A    between atoms: C_3  and  C_21
REMARK    3  A    between atoms: C_4  and  O_8
REMARK    4  A    between atoms: C_10  and  N_11
REMARK    5  A    between atoms: N_11  and  C_14
REMARK    6  A    between atoms: C_14  and  C_18
REMARK    7  A    between atoms: C_18  and  O_19
REMARK    8  A    between atoms: C_21  and  O_22
REMARK    9  A    between atoms: O_22  and  P_23
REMARK   10  A    between atoms: P_23  and  O_25
REMARK   11  A    between atoms: P_23  and  O_27
REMARK                            x       y       z     vdW  Elec       q    Type
REMARK                         _______ _______ _______ _____ _____    ______ ____
ROOT
ATOM      1  N   UNL     1      36.440 -21.432 -18.359  0.00  0.00    -0.245 NA
ATOM      2  C   UNL     1      34.371 -22.910 -17.197  0.00  0.00    -0.009 C 
ATOM      3  C   UNL     1      35.594 -22.790 -16.545  0.00  0.00    +0.024 C 
ATOM      4  C   UNL     1      34.182 -22.293 -18.429  0.00  0.00    +0.141 C 
ATOM      5  C   UNL     1      35.238 -21.572 -18.961  0.00  0.00    +0.092 C 
ATOM      6  C   UNL     1      36.587 -22.045 -17.163  0.00  0.00    +0.096 C 
ATOM      7  C   UNL     1      35.088 -20.890 -20.282  0.00  0.00    +0.055 C 
ENDROOT
BRANCH   4   8
ATOM      8  O   UNL     1      32.998 -22.396 -19.088  0.00  0.00    -0.505 OA
ATOM      9  H   UNL     1      32.978 -22.368 -20.024  0.00  0.00    +0.292 HD
ENDBRANCH   4   8
BRANCH   2  10
ATOM     10  C   UNL     1      33.263 -23.700 -16.579  0.00  0.00    -0.050 C 
BRANCH  10  11
ATOM     11  N   UNL     1      32.179 -22.848 -16.091  0.00  0.00    +0.396 N 
ATOM     12  H   UNL     1      32.582 -22.059 -15.585  0.00  0.00    -0.083 HD
ATOM     13  H   UNL     1      31.639 -22.530 -16.896  0.00  0.00    -0.083 HD
BRANCH  11  14
ATOM     14  C   UNL     1      31.270 -23.581 -15.188  0.00  0.00    +0.046 C 
ATOM     15  C   UNL     1      29.848 -23.141 -15.060  0.00  0.00    -0.011 C 
ATOM     16  C   UNL     1      30.180 -24.423 -15.766  0.00  0.00    -0.011 C 
BRANCH  14  18
ATOM     17  O   UNL     1      32.196 -25.229 -13.774  0.00  0.00    -0.253 OA
ATOM     18  C   UNL     1      31.995 -24.047 -14.002  0.00  0.00    +0.295 C 
BRANCH  18  19
ATOM     19  O   UNL     1      32.404 -23.023 -13.213  0.00  0.00    -0.482 OA
ATOM     20  H   UNL     1      33.266 -23.030 -12.846  0.00  0.00    +0.295 HD
ENDBRANCH  18  19
ENDBRANCH  14  18
ENDBRANCH  11  14
ENDBRANCH  10  11
ENDBRANCH   2  10
BRANCH   3  21
ATOM     21  C   UNL     1      35.853 -23.429 -15.225  0.00  0.00    +0.181 C 
BRANCH  21  22
ATOM     22  O   UNL     1      36.461 -24.700 -15.425  0.00  0.00    -0.268 OA
BRANCH  22  23
ATOM     23  P   UNL     1      37.890 -24.984 -14.726  0.00  0.00    +0.473 P 
ATOM     24  O   UNL     1      37.894 -24.895 -13.228  0.00  0.00    -0.227 OA
BRANCH  23  25
ATOM     25  O   UNL     1      38.300 -26.429 -15.326  0.00  0.00    -0.303 OA
ATOM     26  H   UNL     1      39.218 -26.630 -15.086  0.00  0.00    +0.222 HD
ENDBRANCH  23  25
BRANCH  23  27
ATOM     27  O   UNL     1      38.897 -23.969 -15.481  0.00  0.00    -0.303 OA
ATOM     28  H   UNL     1      38.464 -23.613 -16.272  0.00  0.00    +0.222 HD
ENDBRANCH  23  27
ENDBRANCH  22  23
ENDBRANCH  21  22
ENDBRANCH   3  21
TORSDOF 11
ENDMDL
MODEL 7
REMARK VINA RESULT:      -7.5      2.192      3.312
REMARK  Name = 4324
REMARK  11 active torsions:
REMARK  status: ('A' for Active; 'I' for Inactive)
REMARK    1  A    between atoms: C_2  and  C_10
REMARK    2  A    between atoms: C_3  and  C_21
REMARK    3  A    between atoms: C_4  and  O_8
REMARK    4  A    between atoms: C_10  and  N_11
REMARK    5  A    between atoms: N_11  and  C_14
REMARK    6  A    between atoms: C_14  and  C_18
REMARK    7  A    between atoms: C_18  and  O_19
REMARK    8  A    between atoms: C_21  and  O_22
REMARK    9  A    between atoms: O_22  and  P_23
REMARK   10  A    between atoms: P_23  and  O_25
REMARK   11  A    between atoms: P_23  and  O_27
REMARK                            x       y       z     vdW  Elec       q    Type
REMARK                         _______ _______ _______ _____ _____    ______ ____
ROOT
ATOM      1  N   UNL     1      30.543 -24.042 -14.152  0.00  0.00    -0.245 NA
ATOM      2  C   UNL     1      32.941 -23.537 -15.497  0.00  0.00    -0.009 C 
ATOM      3  C   UNL     1      32.954 -24.186 -14.267  0.00  0.00    +0.024 C 
ATOM      4  C   UNL     1      31.730 -23.140 -16.054  0.00  0.00    +0.141 C 
ATOM      5  C   UNL     1      30.570 -23.414 -15.348  0.00  0.00    +0.092 C 
ATOM      6  C   UNL     1      31.738 -24.414 -13.641  0.00  0.00    +0.096 C 
ATOM      7  C   UNL     1      29.243 -23.008 -15.901  0.00  0.00    +0.055 C 
ENDROOT
BRANCH   4   8
ATOM      8  O   UNL     1      31.688 -22.502 -17.254  0.00  0.00    -0.505 OA
ATOM      9  H   UNL     1      32.479 -22.193 -17.648  0.00  0.00    +0.292 HD
ENDBRANCH   4   8
BRANCH   2  10
ATOM     10  C   UNL     1      34.221 -23.264 -16.219  0.00  0.00    -0.050 C 
BRANCH  10  11
ATOM     11  N   UNL     1      35.135 -22.436 -15.433  0.00  0.00    +0.396 N 
ATOM     12  H   UNL     1      34.832 -21.464 -15.492  0.00  0.00    -0.083 HD
ATOM     13  H   UNL     1      35.115 -22.769 -14.469  0.00  0.00    -0.083 HD
BRANCH  11  14
ATOM     14  C   UNL     1      36.523 -22.535 -15.925  0.00  0.00    +0.046 C 
ATOM     15  C   UNL     1      36.800 -22.374 -17.385  0.00  0.00    -0.011 C 
ATOM     16  C   UNL     1      37.219 -21.308 -16.416  0.00  0.00    -0.011 C 
BRANCH  14  18
ATOM     17  O   UNL     1      37.918 -23.244 -14.158  0.00  0.00    -0.253 OA
ATOM     18  C   UNL     1      37.269 -23.532 -15.151  0.00  0.00    +0.295 C 
BRANCH  18  19
ATOM     19  O   UNL     1      37.146 -24.780 -15.664  0.00  0.00    -0.482 OA
ATOM     20  H   UNL     1      36.364 -25.025 -16.120  0.00  0.00    +0.295 HD
ENDBRANCH  18  19
ENDBRANCH  14  18
ENDBRANCH  11  14
ENDBRANCH  10  11
ENDBRANCH   2  10
BRANCH   3  21
ATOM     21  C   UNL     1      34.220 -24.634 -13.623  0.00  0.00    +0.181 C 
BRANCH  21  22
ATOM     22  O   UNL     1      34.326 -24.049 -12.329  0.00  0.00    -0.268 OA
BRANCH  22  23
ATOM     23  P   UNL     1      35.600 -24.440 -11.415  0.00  0.00    +0.473 P 
ATOM     24  O   UNL     1      35.281 -24.773  -9.988  0.00  0.00    -0.227 OA
BRANCH  23  25
ATOM     25  O   UNL     1      36.290 -25.636 -12.258  0.00  0.00    -0.303 OA
ATOM     26  H   UNL     1      36.020 -26.491 -11.888  0.00  0.00    +0.222 HD
ENDBRANCH  23  25
BRANCH  23  27
ATOM     27  O   UNL     1      36.619 -23.202 -11.625  0.00  0.00    -0.303 OA
ATOM     28  H   UNL     1      37.462 -23.533 -11.974  0.00  0.00    +0.222 HD
ENDBRANCH  23  27
ENDBRANCH  22  23
ENDBRANCH  21  22
ENDBRANCH   3  21
TORSDOF 11
ENDMDL
MODEL 8
REMARK VINA RESULT:      -7.4      4.210      6.581
REMARK  Name = 4324
REMARK  11 active torsions:
REMARK  status: ('A' for Active; 'I' for Inactive)
REMARK    1  A    between atoms: C_2  and  C_10
REMARK    2  A    between atoms: C_3  and  C_21
REMARK    3  A    between atoms: C_4  and  O_8
REMARK    4  A    between atoms: C_10  and  N_11
REMARK    5  A    between atoms: N_11  and  C_14
REMARK    6  A    between atoms: C_14  and  C_18
REMARK    7  A    between atoms: C_18  and  O_19
REMARK    8  A    between atoms: C_21  and  O_22
REMARK    9  A    between atoms: O_22  and  P_23
REMARK   10  A    between atoms: P_23  and  O_25
REMARK   11  A    between atoms: P_23  and  O_27
REMARK                            x       y       z     vdW  Elec       q    Type
REMARK                         _______ _______ _______ _____ _____    ______ ____
ROOT
ATOM      1  N   UNL     1      33.015 -24.068 -13.036  0.00  0.00    -0.245 NA
ATOM      2  C   UNL     1      33.447 -23.590 -15.756  0.00  0.00    -0.009 C 
ATOM      3  C   UNL     1      32.182 -23.408 -15.208  0.00  0.00    +0.024 C 
ATOM      4  C   UNL     1      34.497 -24.011 -14.946  0.00  0.00    +0.141 C 
ATOM      5  C   UNL     1      34.230 -24.233 -13.605  0.00  0.00    +0.092 C 
ATOM      6  C   UNL     1      32.020 -23.658 -13.854  0.00  0.00    +0.096 C 
ATOM      7  C   UNL     1      35.321 -24.688 -12.691  0.00  0.00    +0.055 C 
ENDROOT
BRANCH   4   8
ATOM      8  O   UNL     1      35.742 -24.197 -15.455  0.00  0.00    -0.505 OA
ATOM      9  H   UNL     1      36.054 -23.645 -16.145  0.00  0.00    +0.292 HD
ENDBRANCH   4   8
BRANCH   2  10
ATOM     10  C   UNL     1      33.682 -23.336 -17.210  0.00  0.00    -0.050 C 
BRANCH  10  11
ATOM     11  N   UNL     1      34.827 -22.456 -17.442  0.00  0.00    +0.396 N 
ATOM     12  H   UNL     1      34.746 -21.642 -16.833  0.00  0.00    -0.083 HD
ATOM     13  H   UNL     1      35.677 -22.982 -17.240  0.00  0.00    -0.083 HD
BRANCH  11  14
ATOM     14  C   UNL     1      34.892 -21.999 -18.844  0.00  0.00    +0.046 C 
ATOM     15  C   UNL     1      34.213 -22.797 -19.910  0.00  0.00    -0.011 C 
ATOM     16  C   UNL     1      33.663 -21.462 -19.501  0.00  0.00    -0.011 C 
BRANCH  14  18
ATOM     17  O   UNL     1      36.626 -21.232 -20.251  0.00  0.00    -0.253 OA
ATOM     18  C   UNL     1      36.192 -21.379 -19.119  0.00  0.00    +0.295 C 
BRANCH  18  19
ATOM     19  O   UNL     1      36.832 -20.999 -17.986  0.00  0.00    -0.482 OA
ATOM     20  H   UNL     1      37.178 -20.131 -17.912  0.00  0.00    +0.295 HD
ENDBRANCH  18  19
ENDBRANCH  14  18
ENDBRANCH  11  14
ENDBRANCH  10  11
ENDBRANCH   2  10
BRANCH   3  21
ATOM     21  C   UNL     1      31.023 -22.959 -16.028  0.00  0.00    +0.181 C 
BRANCH  21  22
ATOM     22  O   UNL     1      29.899 -23.790 -15.755  0.00  0.00    -0.268 OA
BRANCH  22  23
ATOM     23  P   UNL     1      28.488 -23.423 -16.451  0.00  0.00    +0.473 P 
ATOM     24  O   UNL     1      27.959 -24.456 -17.401  0.00  0.00    -0.227 OA
BRANCH  23  25
ATOM     25  O   UNL     1      27.535 -23.110 -15.182  0.00  0.00    -0.303 OA
ATOM     26  H   UNL     1      27.056 -22.281 -15.334  0.00  0.00    +0.222 HD
ENDBRANCH  23  25
BRANCH  23  27
ATOM     27  O   UNL     1      28.744 -21.960 -17.093  0.00  0.00    -0.303 OA
ATOM     28  H   UNL     1      28.493 -21.278 -16.451  0.00  0.00    +0.222 HD
ENDBRANCH  23  27
ENDBRANCH  22  23
ENDBRANCH  21  22
ENDBRANCH   3  21
TORSDOF 11
ENDMDL
MODEL 9
REMARK VINA RESULT:      -7.3      1.979      4.733
REMARK  Name = 4324
REMARK  11 active torsions:
REMARK  status: ('A' for Active; 'I' for Inactive)
REMARK    1  A    between atoms: C_2  and  C_10
REMARK    2  A    between atoms: C_3  and  C_21
REMARK    3  A    between atoms: C_4  and  O_8
REMARK    4  A    between atoms: C_10  and  N_11
REMARK    5  A    between atoms: N_11  and  C_14
REMARK    6  A    between atoms: C_14  and  C_18
REMARK    7  A    between atoms: C_18  and  O_19
REMARK    8  A    between atoms: C_21  and  O_22
REMARK    9  A    between atoms: O_22  and  P_23
REMARK   10  A    between atoms: P_23  and  O_25
REMARK   11  A    between atoms: P_23  and  O_27
REMARK                            x       y       z     vdW  Elec       q    Type
REMARK                         _______ _______ _______ _____ _____    ______ ____
ROOT
ATOM      1  N   UNL     1      37.985 -23.107 -15.497  0.00  0.00    -0.245 NA
ATOM      2  C   UNL     1      35.384 -23.984 -14.965  0.00  0.00    -0.009 C 
ATOM      3  C   UNL     1      36.448 -24.453 -14.202  0.00  0.00    +0.024 C 
ATOM      4  C   UNL     1      35.620 -23.078 -15.994  0.00  0.00    +0.141 C 
ATOM      5  C   UNL     1      36.926 -22.675 -16.217  0.00  0.00    +0.092 C 
ATOM      6  C   UNL     1      37.718 -23.987 -14.505  0.00  0.00    +0.096 C 
ATOM      7  C   UNL     1      37.234 -21.705 -17.310  0.00  0.00    +0.055 C 
ENDROOT
BRANCH   4   8
ATOM      8  O   UNL     1      34.599 -22.605 -16.757  0.00  0.00    -0.505 OA
ATOM      9  H   UNL     1      34.777 -22.027 -17.472  0.00  0.00    +0.292 HD
ENDBRANCH   4   8
BRANCH   2  10
ATOM     10  C   UNL     1      33.992 -24.451 -14.685  0.00  0.00    -0.050 C 
BRANCH  10  11
ATOM     11  N   UNL     1      33.140 -23.378 -14.174  0.00  0.00    +0.396 N 
ATOM     12  H   UNL     1      33.312 -23.268 -13.175  0.00  0.00    -0.083 HD
ATOM     13  H   UNL     1      33.368 -22.523 -14.682  0.00  0.00    -0.083 HD
BRANCH  11  14
ATOM     14  C   UNL     1      31.708 -23.669 -14.384  0.00  0.00    +0.046 C 
ATOM     15  C   UNL     1      30.865 -22.703 -15.152  0.00  0.00    -0.011 C 
ATOM     16  C   UNL     1      31.223 -24.033 -15.749  0.00  0.00    -0.011 C 
BRANCH  14  18
ATOM     17  O   UNL     1      30.497 -23.762 -12.360  0.00  0.00    -0.253 OA
ATOM     18  C   UNL     1      31.149 -24.347 -13.210  0.00  0.00    +0.295 C 
BRANCH  18  19
ATOM     19  O   UNL     1      31.439 -25.671 -13.192  0.00  0.00    -0.482 OA
ATOM     20  H   UNL     1      31.939 -26.050 -13.887  0.00  0.00    +0.295 HD
ENDBRANCH  18  19
ENDBRANCH  14  18
ENDBRANCH  11  14
ENDBRANCH  10  11
ENDBRANCH   2  10
BRANCH   3  21
ATOM     21  C   UNL     1      36.256 -25.423 -13.089  0.00  0.00    +0.181 C 
BRANCH  21  22
ATOM     22  O   UNL     1      36.953 -24.965 -11.935  0.00  0.00    -0.268 OA
BRANCH  22  23
ATOM     23  P   UNL     1      36.376 -23.674 -11.153  0.00  0.00    +0.473 P 
ATOM     24  O   UNL     1      37.206 -22.430 -11.278  0.00  0.00    -0.227 OA
BRANCH  23  25
ATOM     25  O   UNL     1      34.870 -23.551 -11.732  0.00  0.00    -0.303 OA
ATOM     26  H   UNL     1      34.401 -24.389 -11.595  0.00  0.00    +0.222 HD
ENDBRANCH  23  25
BRANCH  23  27
ATOM     27  O   UNL     1      36.151 -24.207  -9.643  0.00  0.00    -0.303 OA
ATOM     28  H   UNL     1      35.481 -23.660  -9.204  0.00  0.00    +0.222 HD
ENDBRANCH  23  27
ENDBRANCH  22  23
ENDBRANCH  21  22
ENDBRANCH   3  21
TORSDOF 11
ENDMDL
