MODEL 1
REMARK VINA RESULT:      -7.6      0.000      0.000
REMARK  Name = 5806
REMARK  5 active torsions:
REMARK  status: ('A' for Active; 'I' for Inactive)
REMARK    1  A    between atoms: C_1  and  C_4
REMARK    2  A    between atoms: C_1  and  O_10
REMARK    3  A    between atoms: C_1  and  C_12
REMARK    4  A    between atoms: C_12  and  N_13
REMARK    5  A    between atoms: N_13  and  C_16
REMARK                            x       y       z     vdW  Elec       q    Type
REMARK                         _______ _______ _______ _____ _____    ______ ____
ROOT
ATOM      1  C   UNL     1      35.744 -18.028 -22.176  0.00  0.00    +0.112 C 
ENDROOT
BRANCH   1   4
ATOM      2 CL   UNL     1      36.542 -21.788 -18.712  0.00  0.00    -0.081 Cl
ATOM      3 CL   UNL     1      33.356 -22.356 -18.760  0.00  0.00    -0.081 Cl
ATOM      4  C   UNL     1      35.158 -19.122 -21.310  0.00  0.00    +0.003 C 
ATOM      5  C   UNL     1      35.999 -19.869 -20.503  0.00  0.00    +0.010 C 
ATOM      6  C   UNL     1      33.793 -19.353 -21.345  0.00  0.00    -0.001 C 
ATOM      7  C   UNL     1      35.458 -20.876 -19.704  0.00  0.00    +0.068 C 
ATOM      8  C   UNL     1      33.254 -20.360 -20.546  0.00  0.00    +0.012 C 
ATOM      9  C   UNL     1      34.085 -21.122 -19.726  0.00  0.00    +0.068 C 
ENDBRANCH   1   4
BRANCH   1  10
ATOM     10  O   UNL     1      35.890 -18.537 -23.501  0.00  0.00    -0.382 OA
ATOM     11  H   UNL     1      35.519 -17.902 -24.134  0.00  0.00    +0.211 HD
ENDBRANCH   1  10
BRANCH   1  12
ATOM     12  C   UNL     1      34.855 -16.778 -22.180  0.00  0.00    -0.047 C 
BRANCH  12  13
ATOM     13  N   UNL     1      34.919 -16.093 -20.898  0.00  0.00    +0.387 N 
ATOM     14  H   UNL     1      35.894 -15.903 -20.668  0.00  0.00    -0.084 HD
ATOM     15  H   UNL     1      34.497 -16.690 -20.187  0.00  0.00    -0.084 HD
BRANCH  13  16
ATOM     16  C   UNL     1      34.183 -14.831 -20.948  0.00  0.00    -0.062 C 
ATOM     17  C   UNL     1      32.741 -15.042 -20.499  0.00  0.00    -0.023 C 
ATOM     18  C   UNL     1      34.241 -14.265 -22.363  0.00  0.00    -0.023 C 
ENDBRANCH  13  16
ENDBRANCH  12  13
ENDBRANCH   1  12
TORSDOF 5
ENDMDL
MODEL 2
REMARK VINA RESULT:      -7.6      1.962      2.583
REMARK  Name = 5806
REMARK  5 active torsions:
REMARK  status: ('A' for Active; 'I' for Inactive)
REMARK    1  A    between atoms: C_1  and  C_4
REMARK    2  A    between atoms: C_1  and  O_10
REMARK    3  A    between atoms: C_1  and  C_12
REMARK    4  A    between atoms: C_12  and  N_13
REMARK    5  A    between atoms: N_13  and  C_16
REMARK                            x       y       z     vdW  Elec       q    Type
REMARK                         _______ _______ _______ _____ _____    ______ ____
ROOT
ATOM      1  C   UNL     1      34.481 -17.616 -21.788  0.00  0.00    +0.112 C 
ENDROOT
BRANCH   1   4
ATOM      2 CL   UNL     1      36.776 -21.643 -19.488  0.00  0.00    -0.081 Cl
ATOM      3 CL   UNL     1      33.829 -22.822 -18.859  0.00  0.00    -0.081 Cl
ATOM      4  C   UNL     1      34.333 -18.929 -21.050  0.00  0.00    +0.003 C 
ATOM      5  C   UNL     1      35.470 -19.611 -20.650  0.00  0.00    +0.010 C 
ATOM      6  C   UNL     1      33.065 -19.420 -20.791  0.00  0.00    -0.001 C 
ATOM      7  C   UNL     1      35.333 -20.821 -19.968  0.00  0.00    +0.068 C 
ATOM      8  C   UNL     1      32.929 -20.629 -20.110  0.00  0.00    +0.012 C 
ATOM      9  C   UNL     1      34.063 -21.329 -19.699  0.00  0.00    +0.068 C 
ENDBRANCH   1   4
BRANCH   1  10
ATOM     10  O   UNL     1      34.988 -16.646 -20.873  0.00  0.00    -0.382 OA
ATOM     11  H   UNL     1      34.574 -15.787 -21.050  0.00  0.00    +0.211 HD
ENDBRANCH   1  10
BRANCH   1  12
ATOM     12  C   UNL     1      35.419 -17.752 -22.994  0.00  0.00    -0.047 C 
BRANCH  12  13
ATOM     13  N   UNL     1      35.382 -16.552 -23.816  0.00  0.00    +0.387 N 
ATOM     14  H   UNL     1      36.329 -16.190 -23.923  0.00  0.00    -0.084 HD
ATOM     15  H   UNL     1      34.788 -15.861 -23.358  0.00  0.00    -0.084 HD
BRANCH  13  16
ATOM     16  C   UNL     1      34.828 -16.846 -25.137  0.00  0.00    -0.062 C 
ATOM     17  C   UNL     1      33.714 -15.860 -25.474  0.00  0.00    -0.023 C 
ATOM     18  C   UNL     1      34.319 -18.283 -25.166  0.00  0.00    -0.023 C 
ENDBRANCH  13  16
ENDBRANCH  12  13
ENDBRANCH   1  12
TORSDOF 5
ENDMDL
MODEL 3
REMARK VINA RESULT:      -7.5      4.259      6.220
REMARK  Name = 5806
REMARK  5 active torsions:
REMARK  status: ('A' for Active; 'I' for Inactive)
REMARK    1  A    between atoms: C_1  and  C_4
REMARK    2  A    between atoms: C_1  and  O_10
REMARK    3  A    between atoms: C_1  and  C_12
REMARK    4  A    between atoms: C_12  and  N_13
REMARK    5  A    between atoms: N_13  and  C_16
REMARK                            x       y       z     vdW  Elec       q    Type
REMARK                         _______ _______ _______ _____ _____    ______ ____
ROOT
ATOM      1  C   UNL     1      35.614 -17.638 -21.597  0.00  0.00    +0.112 C 
ENDROOT
BRANCH   1   4
ATOM      2 CL   UNL     1      33.360 -13.472 -23.678  0.00  0.00    -0.081 Cl
ATOM      3 CL   UNL     1      33.139 -15.116 -26.456  0.00  0.00    -0.081 Cl
ATOM      4  C   UNL     1      34.987 -16.989 -22.812  0.00  0.00    +0.003 C 
ATOM      5  C   UNL     1      34.515 -15.691 -22.717  0.00  0.00    +0.010 C 
ATOM      6  C   UNL     1      34.898 -17.708 -23.992  0.00  0.00    -0.001 C 
ATOM      7  C   UNL     1      33.939 -15.092 -23.838  0.00  0.00    +0.068 C 
ATOM      8  C   UNL     1      34.322 -17.109 -25.111  0.00  0.00    +0.012 C 
ATOM      9  C   UNL     1      33.842 -15.802 -25.035  0.00  0.00    +0.068 C 
ENDBRANCH   1   4
BRANCH   1  10
ATOM     10  O   UNL     1      35.267 -16.864 -20.450  0.00  0.00    -0.382 OA
ATOM     11  H   UNL     1      36.024 -16.316 -20.189  0.00  0.00    +0.211 HD
ENDBRANCH   1  10
BRANCH   1  12
ATOM     12  C   UNL     1      35.140 -19.087 -21.426  0.00  0.00    -0.047 C 
BRANCH  12  13
ATOM     13  N   UNL     1      35.881 -19.752 -20.366  0.00  0.00    +0.387 N 
ATOM     14  H   UNL     1      35.856 -19.174 -19.526  0.00  0.00    -0.084 HD
ATOM     15  H   UNL     1      36.843 -19.887 -20.675  0.00  0.00    -0.084 HD
BRANCH  13  16
ATOM     16  C   UNL     1      35.296 -21.058 -20.066  0.00  0.00    -0.062 C 
ATOM     17  C   UNL     1      33.788 -20.932 -19.878  0.00  0.00    -0.023 C 
ATOM     18  C   UNL     1      35.959 -21.637 -18.820  0.00  0.00    -0.023 C 
ENDBRANCH  13  16
ENDBRANCH  12  13
ENDBRANCH   1  12
TORSDOF 5
ENDMDL
MODEL 4
REMARK VINA RESULT:      -7.4      0.962      1.408
REMARK  Name = 5806
REMARK  5 active torsions:
REMARK  status: ('A' for Active; 'I' for Inactive)
REMARK    1  A    between atoms: C_1  and  C_4
REMARK    2  A    between atoms: C_1  and  O_10
REMARK    3  A    between atoms: C_1  and  C_12
REMARK    4  A    between atoms: C_12  and  N_13
REMARK    5  A    between atoms: N_13  and  C_16
REMARK                            x       y       z     vdW  Elec       q    Type
REMARK                         _______ _______ _______ _____ _____    ______ ____
ROOT
ATOM      1  C   UNL     1      35.759 -17.746 -22.226  0.00  0.00    +0.112 C 
ENDROOT
BRANCH   1   4
ATOM      2 CL   UNL     1      36.629 -21.699 -19.004  0.00  0.00    -0.081 Cl
ATOM      3 CL   UNL     1      33.434 -22.212 -18.946  0.00  0.00    -0.081 Cl
ATOM      4  C   UNL     1      35.188 -18.875 -21.396  0.00  0.00    +0.003 C 
ATOM      5  C   UNL     1      36.048 -19.678 -20.666  0.00  0.00    +0.010 C 
ATOM      6  C   UNL     1      33.819 -19.082 -21.385  0.00  0.00    -0.001 C 
ATOM      7  C   UNL     1      35.522 -20.718 -19.899  0.00  0.00    +0.068 C 
ATOM      8  C   UNL     1      33.295 -20.121 -20.618  0.00  0.00    +0.012 C 
ATOM      9  C   UNL     1      34.145 -20.939 -19.876  0.00  0.00    +0.068 C 
ENDBRANCH   1   4
BRANCH   1  10
ATOM     10  O   UNL     1      35.770 -18.158 -23.592  0.00  0.00    -0.382 OA
ATOM     11  H   UNL     1      35.096 -18.842 -23.729  0.00  0.00    +0.211 HD
ENDBRANCH   1  10
BRANCH   1  12
ATOM     12  C   UNL     1      34.938 -16.460 -22.065  0.00  0.00    -0.047 C 
BRANCH  12  13
ATOM     13  N   UNL     1      34.763 -15.794 -23.346  0.00  0.00    +0.387 N 
ATOM     14  H   UNL     1      34.690 -16.496 -24.082  0.00  0.00    -0.084 HD
ATOM     15  H   UNL     1      35.566 -15.188 -23.512  0.00  0.00    -0.084 HD
BRANCH  13  16
ATOM     16  C   UNL     1      33.551 -14.975 -23.343  0.00  0.00    -0.062 C 
ATOM     17  C   UNL     1      33.884 -13.537 -23.726  0.00  0.00    -0.023 C 
ATOM     18  C   UNL     1      32.898 -15.040 -21.966  0.00  0.00    -0.023 C 
ENDBRANCH  13  16
ENDBRANCH  12  13
ENDBRANCH   1  12
TORSDOF 5
ENDMDL
MODEL 5
REMARK VINA RESULT:      -7.3      4.293      6.492
REMARK  Name = 5806
REMARK  5 active torsions:
REMARK  status: ('A' for Active; 'I' for Inactive)
REMARK    1  A    between atoms: C_1  and  C_4
REMARK    2  A    between atoms: C_1  and  O_10
REMARK    3  A    between atoms: C_1  and  C_12
REMARK    4  A    between atoms: C_12  and  N_13
REMARK    5  A    between atoms: N_13  and  C_16
REMARK                            x       y       z     vdW  Elec       q    Type
REMARK                         _______ _______ _______ _____ _____    ______ ____
ROOT
ATOM      1  C   UNL     1      34.113 -22.761 -18.518  0.00  0.00    +0.112 C 
ENDROOT
BRANCH   1   4
ATOM      2 CL   UNL     1      37.140 -19.342 -20.949  0.00  0.00    -0.081 Cl
ATOM      3 CL   UNL     1      34.456 -17.951 -22.103  0.00  0.00    -0.081 Cl
ATOM      4  C   UNL     1      34.216 -21.549 -19.419  0.00  0.00    +0.003 C 
ATOM      5  C   UNL     1      35.467 -21.051 -19.741  0.00  0.00    +0.010 C 
ATOM      6  C   UNL     1      33.057 -20.965 -19.902  0.00  0.00    -0.001 C 
ATOM      7  C   UNL     1      35.562 -19.935 -20.574  0.00  0.00    +0.068 C 
ATOM      8  C   UNL     1      33.152 -19.850 -20.733  0.00  0.00    +0.012 C 
ATOM      9  C   UNL     1      34.404 -19.335 -21.069  0.00  0.00    +0.068 C 
ENDBRANCH   1   4
BRANCH   1  10
ATOM     10  O   UNL     1      35.239 -22.762 -17.642  0.00  0.00    -0.382 OA
ATOM     11  H   UNL     1      35.009 -22.302 -16.820  0.00  0.00    +0.211 HD
ENDBRANCH   1  10
BRANCH   1  12
ATOM     12  C   UNL     1      32.809 -22.751 -17.710  0.00  0.00    -0.047 C 
BRANCH  12  13
ATOM     13  N   UNL     1      33.010 -23.343 -16.397  0.00  0.00    +0.387 N 
ATOM     14  H   UNL     1      33.607 -22.731 -15.841  0.00  0.00    -0.084 HD
ATOM     15  H   UNL     1      33.450 -24.256 -16.513  0.00  0.00    -0.084 HD
BRANCH  13  16
ATOM     16  C   UNL     1      31.733 -23.521 -15.708  0.00  0.00    -0.062 C 
ATOM     17  C   UNL     1      30.610 -22.852 -16.494  0.00  0.00    -0.023 C 
ATOM     18  C   UNL     1      31.832 -22.950 -14.297  0.00  0.00    -0.023 C 
ENDBRANCH  13  16
ENDBRANCH  12  13
ENDBRANCH   1  12
TORSDOF 5
ENDMDL
MODEL 6
REMARK VINA RESULT:      -7.3      4.171      6.301
REMARK  Name = 5806
REMARK  5 active torsions:
REMARK  status: ('A' for Active; 'I' for Inactive)
REMARK    1  A    between atoms: C_1  and  C_4
REMARK    2  A    between atoms: C_1  and  O_10
REMARK    3  A    between atoms: C_1  and  C_12
REMARK    4  A    between atoms: C_12  and  N_13
REMARK    5  A    between atoms: N_13  and  C_16
REMARK                            x       y       z     vdW  Elec       q    Type
REMARK                         _______ _______ _______ _____ _____    ______ ____
ROOT
ATOM      1  C   UNL     1      35.289 -18.319 -22.842  0.00  0.00    +0.112 C 
ENDROOT
BRANCH   1   4
ATOM      2 CL   UNL     1      33.188 -15.075 -26.280  0.00  0.00    -0.081 Cl
ATOM      3 CL   UNL     1      33.307 -12.769 -24.013  0.00  0.00    -0.081 Cl
ATOM      4  C   UNL     1      34.787 -16.925 -23.153  0.00  0.00    +0.003 C 
ATOM      5  C   UNL     1      34.278 -16.656 -24.411  0.00  0.00    +0.010 C 
ATOM      6  C   UNL     1      34.848 -15.951 -22.171  0.00  0.00    -0.001 C 
ATOM      7  C   UNL     1      33.813 -15.372 -24.697  0.00  0.00    +0.068 C 
ATOM      8  C   UNL     1      34.383 -14.668 -22.458  0.00  0.00    +0.012 C 
ATOM      9  C   UNL     1      33.867 -14.378 -23.720  0.00  0.00    +0.068 C 
ENDBRANCH   1   4
BRANCH   1  10
ATOM     10  O   UNL     1      36.693 -18.243 -22.601  0.00  0.00    -0.382 OA
ATOM     11  H   UNL     1      37.137 -17.881 -23.384  0.00  0.00    +0.211 HD
ENDBRANCH   1  10
BRANCH   1  12
ATOM     12  C   UNL     1      34.572 -18.916 -21.625  0.00  0.00    -0.047 C 
BRANCH  12  13
ATOM     13  N   UNL     1      35.530 -19.431 -20.660  0.00  0.00    +0.387 N 
ATOM     14  H   UNL     1      35.497 -18.858 -19.817  0.00  0.00    -0.084 HD
ATOM     15  H   UNL     1      36.462 -19.398 -21.074  0.00  0.00    -0.084 HD
BRANCH  13  16
ATOM     16  C   UNL     1      35.221 -20.817 -20.311  0.00  0.00    -0.062 C 
ATOM     17  C   UNL     1      33.770 -20.937 -19.857  0.00  0.00    -0.023 C 
ATOM     18  C   UNL     1      36.179 -21.292 -19.223  0.00  0.00    -0.023 C 
ENDBRANCH  13  16
ENDBRANCH  12  13
ENDBRANCH   1  12
TORSDOF 5
ENDMDL
MODEL 7
REMARK VINA RESULT:      -7.2      4.184      6.238
REMARK  Name = 5806
REMARK  5 active torsions:
REMARK  status: ('A' for Active; 'I' for Inactive)
REMARK    1  A    between atoms: C_1  and  C_4
REMARK    2  A    between atoms: C_1  and  O_10
REMARK    3  A    between atoms: C_1  and  C_12
REMARK    4  A    between atoms: C_12  and  N_13
REMARK    5  A    between atoms: N_13  and  C_16
REMARK                            x       y       z     vdW  Elec       q    Type
REMARK                         _______ _______ _______ _____ _____    ______ ____
ROOT
ATOM      1  C   UNL     1      34.757 -16.924 -22.843  0.00  0.00    +0.112 C 
ENDROOT
BRANCH   1   4
ATOM      2 CL   UNL     1      33.128 -12.059 -23.506  0.00  0.00    -0.081 Cl
ATOM      3 CL   UNL     1      31.717 -12.252 -20.600  0.00  0.00    -0.081 Cl
ATOM      4  C   UNL     1      33.996 -15.739 -22.291  0.00  0.00    +0.003 C 
ATOM      5  C   UNL     1      33.911 -14.580 -23.044  0.00  0.00    +0.010 C 
ATOM      6  C   UNL     1      33.400 -15.838 -21.045  0.00  0.00    -0.001 C 
ATOM      7  C   UNL     1      33.207 -13.488 -22.537  0.00  0.00    +0.068 C 
ATOM      8  C   UNL     1      32.697 -14.746 -20.538  0.00  0.00    +0.012 C 
ATOM      9  C   UNL     1      32.601 -13.571 -21.283  0.00  0.00    +0.068 C 
ENDBRANCH   1   4
BRANCH   1  10
ATOM     10  O   UNL     1      35.770 -16.435 -23.720  0.00  0.00    -0.382 OA
ATOM     11  H   UNL     1      36.553 -16.187 -23.204  0.00  0.00    +0.211 HD
ENDBRANCH   1  10
BRANCH   1  12
ATOM     12  C   UNL     1      35.383 -17.762 -21.721  0.00  0.00    -0.047 C 
BRANCH  12  13
ATOM     13  N   UNL     1      35.020 -19.164 -21.857  0.00  0.00    +0.387 N 
ATOM     14  H   UNL     1      35.853 -19.704 -22.090  0.00  0.00    -0.084 HD
ATOM     15  H   UNL     1      34.323 -19.251 -22.596  0.00  0.00    -0.084 HD
BRANCH  13  16
ATOM     16  C   UNL     1      34.450 -19.674 -20.611  0.00  0.00    -0.062 C 
ATOM     17  C   UNL     1      35.200 -20.924 -20.159  0.00  0.00    -0.023 C 
ATOM     18  C   UNL     1      32.967 -19.966 -20.813  0.00  0.00    -0.023 C 
ENDBRANCH  13  16
ENDBRANCH  12  13
ENDBRANCH   1  12
TORSDOF 5
ENDMDL
MODEL 8
REMARK VINA RESULT:      -7.2      4.165      6.611
REMARK  Name = 5806
REMARK  5 active torsions:
REMARK  status: ('A' for Active; 'I' for Inactive)
REMARK    1  A    between atoms: C_1  and  C_4
REMARK    2  A    between atoms: C_1  and  O_10
REMARK    3  A    between atoms: C_1  and  C_12
REMARK    4  A    between atoms: C_12  and  N_13
REMARK    5  A    between atoms: N_13  and  C_16
REMARK                            x       y       z     vdW  Elec       q    Type
REMARK                         _______ _______ _______ _____ _____    ______ ____
ROOT
ATOM      1  C   UNL     1      33.896 -22.581 -18.642  0.00  0.00    +0.112 C 
ENDROOT
BRANCH   1   4
ATOM      2 CL   UNL     1      37.181 -19.331 -20.968  0.00  0.00    -0.081 Cl
ATOM      3 CL   UNL     1      34.616 -17.830 -22.249  0.00  0.00    -0.081 Cl
ATOM      4  C   UNL     1      34.093 -21.385 -19.548  0.00  0.00    +0.003 C 
ATOM      5  C   UNL     1      35.379 -20.948 -19.820  0.00  0.00    +0.010 C 
ATOM      6  C   UNL     1      32.984 -20.754 -20.085  0.00  0.00    -0.001 C 
ATOM      7  C   UNL     1      35.561 -19.847 -20.657  0.00  0.00    +0.068 C 
ATOM      8  C   UNL     1      33.168 -19.653 -20.921  0.00  0.00    +0.012 C 
ATOM      9  C   UNL     1      34.455 -19.199 -21.206  0.00  0.00    +0.068 C 
ENDBRANCH   1   4
BRANCH   1  10
ATOM     10  O   UNL     1      33.934 -23.760 -19.446  0.00  0.00    -0.382 OA
ATOM     11  H   UNL     1      34.243 -24.507 -18.910  0.00  0.00    +0.211 HD
ENDBRANCH   1  10
BRANCH   1  12
ATOM     12  C   UNL     1      34.972 -22.645 -17.552  0.00  0.00    -0.047 C 
BRANCH  12  13
ATOM     13  N   UNL     1      34.444 -23.247 -16.338  0.00  0.00    +0.387 N 
ATOM     14  H   UNL     1      34.064 -24.167 -16.558  0.00  0.00    -0.084 HD
ATOM     15  H   UNL     1      33.714 -22.641 -15.964  0.00  0.00    -0.084 HD
BRANCH  13  16
ATOM     16  C   UNL     1      35.496 -23.390 -15.331  0.00  0.00    -0.062 C 
ATOM     17  C   UNL     1      36.797 -22.774 -15.835  0.00  0.00    -0.023 C 
ATOM     18  C   UNL     1      35.680 -24.867 -14.997  0.00  0.00    -0.023 C 
ENDBRANCH  13  16
ENDBRANCH  12  13
ENDBRANCH   1  12
TORSDOF 5
ENDMDL
MODEL 9
REMARK VINA RESULT:      -7.2      1.406      2.404
REMARK  Name = 5806
REMARK  5 active torsions:
REMARK  status: ('A' for Active; 'I' for Inactive)
REMARK    1  A    between atoms: C_1  and  C_4
REMARK    2  A    between atoms: C_1  and  O_10
REMARK    3  A    between atoms: C_1  and  C_12
REMARK    4  A    between atoms: C_12  and  N_13
REMARK    5  A    between atoms: N_13  and  C_16
REMARK                            x       y       z     vdW  Elec       q    Type
REMARK                         _______ _______ _______ _____ _____    ______ ____
ROOT
ATOM      1  C   UNL     1      34.993 -17.443 -23.820  0.00  0.00    +0.112 C 
ENDROOT
BRANCH   1   4
ATOM      2 CL   UNL     1      33.063 -20.743 -20.334  0.00  0.00    -0.081 Cl
ATOM      3 CL   UNL     1      36.057 -21.075 -19.152  0.00  0.00    -0.081 Cl
ATOM      4  C   UNL     1      35.245 -18.360 -22.643  0.00  0.00    +0.003 C 
ATOM      5  C   UNL     1      34.183 -19.052 -22.086  0.00  0.00    +0.010 C 
ATOM      6  C   UNL     1      36.532 -18.488 -22.149  0.00  0.00    -0.001 C 
ATOM      7  C   UNL     1      34.415 -19.900 -21.003  0.00  0.00    +0.068 C 
ATOM      8  C   UNL     1      36.763 -19.336 -21.066  0.00  0.00    +0.012 C 
ATOM      9  C   UNL     1      35.706 -20.041 -20.493  0.00  0.00    +0.068 C 
ENDBRANCH   1   4
BRANCH   1  10
ATOM     10  O   UNL     1      34.432 -18.218 -24.878  0.00  0.00    -0.382 OA
ATOM     11  H   UNL     1      34.980 -18.124 -25.673  0.00  0.00    +0.211 HD
ENDBRANCH   1  10
BRANCH   1  12
ATOM     12  C   UNL     1      34.050 -16.293 -23.444  0.00  0.00    -0.047 C 
BRANCH  12  13
ATOM     13  N   UNL     1      34.790 -15.184 -22.863  0.00  0.00    +0.387 N 
ATOM     14  H   UNL     1      34.863 -14.434 -23.549  0.00  0.00    -0.084 HD
ATOM     15  H   UNL     1      35.719 -15.514 -22.598  0.00  0.00    -0.084 HD
BRANCH  13  16
ATOM     16  C   UNL     1      34.115 -14.679 -21.669  0.00  0.00    -0.062 C 
ATOM     17  C   UNL     1      34.590 -15.435 -20.432  0.00  0.00    -0.023 C 
ATOM     18  C   UNL     1      32.605 -14.809 -21.846  0.00  0.00    -0.023 C 
ENDBRANCH  13  16
ENDBRANCH  12  13
ENDBRANCH   1  12
TORSDOF 5
ENDMDL
