MODEL 1
REMARK VINA RESULT:     -10.1      0.000      0.000
REMARK  Name = 92093
REMARK  4 active torsions:
REMARK  status: ('A' for Active; 'I' for Inactive)
REMARK    1  A    between atoms: C_1  and  N_7
REMARK    2  A    between atoms: C_6  and  N_15
REMARK    3  A    between atoms: N_7  and  C_9
REMARK    4  A    between atoms: N_15  and  C_17
REMARK                            x       y       z     vdW  Elec       q    Type
REMARK                         _______ _______ _______ _____ _____    ______ ____
ROOT
ATOM      1  C   UNL     1      34.128 -19.361 -20.979  0.00  0.00    +0.045 C 
ATOM      2  C   UNL     1      32.853 -19.837 -20.613  0.00  0.00    +0.016 C 
ATOM      3  C   UNL     1      35.255 -20.089 -20.549  0.00  0.00    +0.016 C 
ATOM      4  C   UNL     1      32.711 -20.993 -19.847  0.00  0.00    +0.016 C 
ATOM      5  C   UNL     1      35.112 -21.246 -19.783  0.00  0.00    +0.016 C 
ATOM      6  C   UNL     1      33.841 -21.698 -19.432  0.00  0.00    +0.048 C 
ENDROOT
BRANCH   1   7
ATOM      7  N   UNL     1      34.269 -18.214 -21.739  0.00  0.00    -0.334 N 
ATOM      8  H   UNL     1      33.556 -17.537 -21.696  0.00  0.00    +0.147 HD
BRANCH   7   9
ATOM      9  C   UNL     1      35.410 -17.957 -22.596  0.00  0.00    +0.069 C 
ATOM     10  C   UNL     1      35.403 -18.922 -23.787  0.00  0.00    +0.019 C 
ATOM     11  C   UNL     1      35.404 -16.497 -23.057  0.00  0.00    +0.019 C 
ATOM     12  C   UNL     1      34.290 -18.614 -24.790  0.00  0.00    +0.002 C 
ATOM     13  C   UNL     1      34.292 -16.197 -24.062  0.00  0.00    +0.002 C 
ATOM     14  C   UNL     1      34.329 -17.159 -25.246  0.00  0.00    +0.000 C 
ENDBRANCH   7   9
ENDBRANCH   1   7
BRANCH   6  15
ATOM     15  N   UNL     1      33.697 -22.868 -18.657  0.00  0.00    -0.313 N 
ATOM     16  H   UNL     1      33.832 -23.699 -19.166  0.00  0.00    +0.152 HD
BRANCH  15  17
ATOM     17  C   UNL     1      33.398 -23.080 -17.297  0.00  0.00    +0.048 C 
ATOM     18  C   UNL     1      32.069 -23.128 -16.872  0.00  0.00    +0.015 C 
ATOM     19  C   UNL     1      34.430 -23.241 -16.370  0.00  0.00    +0.015 C 
ATOM     20  C   UNL     1      31.773 -23.336 -15.525  0.00  0.00    +0.001 C 
ATOM     21  C   UNL     1      34.134 -23.450 -15.024  0.00  0.00    +0.001 C 
ATOM     22  C   UNL     1      32.806 -23.497 -14.601  0.00  0.00    +0.000 C 
ENDBRANCH  15  17
ENDBRANCH   6  15
TORSDOF 4
ENDMDL
MODEL 2
REMARK VINA RESULT:      -9.9      3.046      5.593
REMARK  Name = 92093
REMARK  4 active torsions:
REMARK  status: ('A' for Active; 'I' for Inactive)
REMARK    1  A    between atoms: C_1  and  N_7
REMARK    2  A    between atoms: C_6  and  N_15
REMARK    3  A    between atoms: N_7  and  C_9
REMARK    4  A    between atoms: N_15  and  C_17
REMARK                            x       y       z     vdW  Elec       q    Type
REMARK                         _______ _______ _______ _____ _____    ______ ____
ROOT
ATOM      1  C   UNL     1      34.595 -14.916 -22.561  0.00  0.00    +0.045 C 
ATOM      2  C   UNL     1      34.902 -15.824 -23.594  0.00  0.00    +0.016 C 
ATOM      3  C   UNL     1      34.623 -15.389 -21.233  0.00  0.00    +0.016 C 
ATOM      4  C   UNL     1      35.223 -17.152 -23.312  0.00  0.00    +0.016 C 
ATOM      5  C   UNL     1      34.945 -16.717 -20.952  0.00  0.00    +0.016 C 
ATOM      6  C   UNL     1      35.245 -17.598 -21.990  0.00  0.00    +0.048 C 
ENDROOT
BRANCH   1   7
ATOM      7  N   UNL     1      34.276 -13.600 -22.840  0.00  0.00    -0.334 N 
ATOM      8  H   UNL     1      34.795 -12.891 -22.396  0.00  0.00    +0.147 HD
BRANCH   7   9
ATOM      9  C   UNL     1      33.218 -13.209 -23.751  0.00  0.00    +0.069 C 
ATOM     10  C   UNL     1      32.009 -12.691 -22.964  0.00  0.00    +0.019 C 
ATOM     11  C   UNL     1      33.735 -12.160 -24.740  0.00  0.00    +0.019 C 
ATOM     12  C   UNL     1      32.266 -11.331 -22.314  0.00  0.00    +0.002 C 
ATOM     13  C   UNL     1      33.985 -10.801 -24.085  0.00  0.00    +0.002 C 
ATOM     14  C   UNL     1      32.756 -10.304 -23.330  0.00  0.00    +0.000 C 
ENDBRANCH   7   9
ENDBRANCH   1   7
BRANCH   6  15
ATOM     15  N   UNL     1      35.571 -18.941 -21.706  0.00  0.00    -0.313 N 
ATOM     16  H   UNL     1      36.354 -19.272 -22.201  0.00  0.00    +0.152 HD
BRANCH  15  17
ATOM     17  C   UNL     1      34.996 -19.900 -20.850  0.00  0.00    +0.048 C 
ATOM     18  C   UNL     1      35.812 -20.772 -20.128  0.00  0.00    +0.015 C 
ATOM     19  C   UNL     1      33.607 -19.983 -20.723  0.00  0.00    +0.015 C 
ATOM     20  C   UNL     1      35.243 -21.724 -19.281  0.00  0.00    +0.001 C 
ATOM     21  C   UNL     1      33.038 -20.933 -19.876  0.00  0.00    +0.001 C 
ATOM     22  C   UNL     1      33.855 -21.804 -19.156  0.00  0.00    +0.000 C 
ENDBRANCH  15  17
ENDBRANCH   6  15
TORSDOF 4
ENDMDL
MODEL 3
REMARK VINA RESULT:      -9.9      1.137      1.979
REMARK  Name = 92093
REMARK  4 active torsions:
REMARK  status: ('A' for Active; 'I' for Inactive)
REMARK    1  A    between atoms: C_1  and  N_7
REMARK    2  A    between atoms: C_6  and  N_15
REMARK    3  A    between atoms: N_7  and  C_9
REMARK    4  A    between atoms: N_15  and  C_17
REMARK                            x       y       z     vdW  Elec       q    Type
REMARK                         _______ _______ _______ _____ _____    ______ ____
ROOT
ATOM      1  C   UNL     1      34.160 -19.296 -21.128  0.00  0.00    +0.045 C 
ATOM      2  C   UNL     1      32.959 -19.843 -20.635  0.00  0.00    +0.016 C 
ATOM      3  C   UNL     1      35.369 -19.930 -20.780  0.00  0.00    +0.016 C 
ATOM      4  C   UNL     1      32.966 -20.980 -19.827  0.00  0.00    +0.016 C 
ATOM      5  C   UNL     1      35.375 -21.067 -19.972  0.00  0.00    +0.016 C 
ATOM      6  C   UNL     1      34.175 -21.592 -19.496  0.00  0.00    +0.048 C 
ENDROOT
BRANCH   1   7
ATOM      7  N   UNL     1      34.153 -18.169 -21.930  0.00  0.00    -0.334 N 
ATOM      8  H   UNL     1      33.453 -18.091 -22.617  0.00  0.00    +0.147 HD
BRANCH   7   9
ATOM      9  C   UNL     1      35.122 -17.097 -21.812  0.00  0.00    +0.069 C 
ATOM     10  C   UNL     1      35.223 -16.329 -23.135  0.00  0.00    +0.019 C 
ATOM     11  C   UNL     1      34.744 -16.170 -20.653  0.00  0.00    +0.019 C 
ATOM     12  C   UNL     1      33.981 -15.484 -23.423  0.00  0.00    +0.002 C 
ATOM     13  C   UNL     1      33.505 -15.325 -20.950  0.00  0.00    +0.002 C 
ATOM     14  C   UNL     1      33.647 -14.556 -22.260  0.00  0.00    +0.000 C 
ENDBRANCH   7   9
ENDBRANCH   1   7
BRANCH   6  15
ATOM     15  N   UNL     1      34.181 -22.742 -18.678  0.00  0.00    -0.313 N 
ATOM     16  H   UNL     1      34.583 -23.530 -19.107  0.00  0.00    +0.152 HD
BRANCH  15  17
ATOM     17  C   UNL     1      33.726 -22.981 -17.367  0.00  0.00    +0.048 C 
ATOM     18  C   UNL     1      34.642 -23.105 -16.320  0.00  0.00    +0.015 C 
ATOM     19  C   UNL     1      32.358 -23.097 -17.110  0.00  0.00    +0.015 C 
ATOM     20  C   UNL     1      34.192 -23.344 -15.022  0.00  0.00    +0.001 C 
ATOM     21  C   UNL     1      31.908 -23.334 -15.812  0.00  0.00    +0.001 C 
ATOM     22  C   UNL     1      32.824 -23.458 -14.768  0.00  0.00    +0.000 C 
ENDBRANCH  15  17
ENDBRANCH   6  15
TORSDOF 4
ENDMDL
MODEL 4
REMARK VINA RESULT:      -9.8      1.979      2.916
REMARK  Name = 92093
REMARK  4 active torsions:
REMARK  status: ('A' for Active; 'I' for Inactive)
REMARK    1  A    between atoms: C_1  and  N_7
REMARK    2  A    between atoms: C_6  and  N_15
REMARK    3  A    between atoms: N_7  and  C_9
REMARK    4  A    between atoms: N_15  and  C_17
REMARK                            x       y       z     vdW  Elec       q    Type
REMARK                         _______ _______ _______ _____ _____    ______ ____
ROOT
ATOM      1  C   UNL     1      34.473 -18.512 -21.440  0.00  0.00    +0.045 C 
ATOM      2  C   UNL     1      33.412 -19.301 -20.953  0.00  0.00    +0.016 C 
ATOM      3  C   UNL     1      35.791 -18.946 -21.188  0.00  0.00    +0.016 C 
ATOM      4  C   UNL     1      33.657 -20.476 -20.243  0.00  0.00    +0.016 C 
ATOM      5  C   UNL     1      36.035 -20.122 -20.479  0.00  0.00    +0.016 C 
ATOM      6  C   UNL     1      34.969 -20.887 -20.006  0.00  0.00    +0.048 C 
ENDROOT
BRANCH   1   7
ATOM      7  N   UNL     1      34.230 -17.347 -22.144  0.00  0.00    -0.334 N 
ATOM      8  H   UNL     1      33.611 -17.386 -22.908  0.00  0.00    +0.147 HD
BRANCH   7   9
ATOM      9  C   UNL     1      34.840 -16.073 -21.817  0.00  0.00    +0.069 C 
ATOM     10  C   UNL     1      34.532 -15.045 -22.911  0.00  0.00    +0.019 C 
ATOM     11  C   UNL     1      34.356 -15.594 -20.445  0.00  0.00    +0.019 C 
ATOM     12  C   UNL     1      33.067 -14.605 -22.912  0.00  0.00    +0.002 C 
ATOM     13  C   UNL     1      32.893 -15.151 -20.454  0.00  0.00    +0.002 C 
ATOM     14  C   UNL     1      32.626 -14.111 -21.538  0.00  0.00    +0.000 C 
ENDBRANCH   7   9
ENDBRANCH   1   7
BRANCH   6  15
ATOM     15  N   UNL     1      35.216 -22.076 -19.288  0.00  0.00    -0.313 N 
ATOM     16  H   UNL     1      35.294 -22.874 -19.859  0.00  0.00    +0.152 HD
BRANCH  15  17
ATOM     17  C   UNL     1      35.375 -22.344 -17.915  0.00  0.00    +0.048 C 
ATOM     18  C   UNL     1      36.567 -22.009 -17.270  0.00  0.00    +0.015 C 
ATOM     19  C   UNL     1      34.342 -22.948 -17.195  0.00  0.00    +0.015 C 
ATOM     20  C   UNL     1      36.725 -22.275 -15.910  0.00  0.00    +0.001 C 
ATOM     21  C   UNL     1      34.500 -23.214 -15.835  0.00  0.00    +0.001 C 
ATOM     22  C   UNL     1      35.691 -22.878 -15.193  0.00  0.00    +0.000 C 
ENDBRANCH  15  17
ENDBRANCH   6  15
TORSDOF 4
ENDMDL
MODEL 5
REMARK VINA RESULT:      -9.8      2.403      4.920
REMARK  Name = 92093
REMARK  4 active torsions:
REMARK  status: ('A' for Active; 'I' for Inactive)
REMARK    1  A    between atoms: C_1  and  N_7
REMARK    2  A    between atoms: C_6  and  N_15
REMARK    3  A    between atoms: N_7  and  C_9
REMARK    4  A    between atoms: N_15  and  C_17
REMARK                            x       y       z     vdW  Elec       q    Type
REMARK                         _______ _______ _______ _____ _____    ______ ____
ROOT
ATOM      1  C   UNL     1      34.651 -16.406 -24.307  0.00  0.00    +0.045 C 
ATOM      2  C   UNL     1      34.787 -17.770 -24.634  0.00  0.00    +0.016 C 
ATOM      3  C   UNL     1      34.913 -16.013 -22.979  0.00  0.00    +0.016 C 
ATOM      4  C   UNL     1      35.170 -18.704 -23.672  0.00  0.00    +0.016 C 
ATOM      5  C   UNL     1      35.297 -16.948 -22.018  0.00  0.00    +0.016 C 
ATOM      6  C   UNL     1      35.425 -18.293 -22.363  0.00  0.00    +0.048 C 
ENDROOT
BRANCH   1   7
ATOM      7  N   UNL     1      34.271 -15.480 -25.261  0.00  0.00    -0.334 N 
ATOM      8  H   UNL     1      34.898 -15.283 -25.994  0.00  0.00    +0.147 HD
BRANCH   7   9
ATOM      9  C   UNL     1      33.000 -14.783 -25.238  0.00  0.00    +0.069 C 
ATOM     10  C   UNL     1      33.028 -13.668 -24.186  0.00  0.00    +0.019 C 
ATOM     11  C   UNL     1      32.676 -14.231 -26.630  0.00  0.00    +0.019 C 
ATOM     12  C   UNL     1      33.924 -12.497 -24.590  0.00  0.00    +0.002 C 
ATOM     13  C   UNL     1      33.572 -13.058 -27.026  0.00  0.00    +0.002 C 
ATOM     14  C   UNL     1      33.559 -11.957 -25.969  0.00  0.00    +0.000 C 
ENDBRANCH   7   9
ENDBRANCH   1   7
BRANCH   6  15
ATOM     15  N   UNL     1      35.812 -19.239 -21.391  0.00  0.00    -0.313 N 
ATOM     16  H   UNL     1      36.783 -19.263 -21.227  0.00  0.00    +0.152 HD
BRANCH  15  17
ATOM     17  C   UNL     1      35.083 -20.152 -20.606  0.00  0.00    +0.048 C 
ATOM     18  C   UNL     1      33.691 -20.069 -20.547  0.00  0.00    +0.015 C 
ATOM     19  C   UNL     1      35.750 -21.144 -19.884  0.00  0.00    +0.015 C 
ATOM     20  C   UNL     1      32.968 -20.973 -19.770  0.00  0.00    +0.001 C 
ATOM     21  C   UNL     1      35.028 -22.049 -19.107  0.00  0.00    +0.001 C 
ATOM     22  C   UNL     1      33.637 -21.964 -19.049  0.00  0.00    +0.000 C 
ENDBRANCH  15  17
ENDBRANCH   6  15
TORSDOF 4
ENDMDL
MODEL 6
REMARK VINA RESULT:      -9.6      4.483      9.147
REMARK  Name = 92093
REMARK  4 active torsions:
REMARK  status: ('A' for Active; 'I' for Inactive)
REMARK    1  A    between atoms: C_1  and  N_7
REMARK    2  A    between atoms: C_6  and  N_15
REMARK    3  A    between atoms: N_7  and  C_9
REMARK    4  A    between atoms: N_15  and  C_17
REMARK                            x       y       z     vdW  Elec       q    Type
REMARK                         _______ _______ _______ _____ _____    ______ ____
ROOT
ATOM      1  C   UNL     1      34.407 -16.192 -21.219  0.00  0.00    +0.045 C 
ATOM      2  C   UNL     1      33.471 -15.709 -20.283  0.00  0.00    +0.016 C 
ATOM      3  C   UNL     1      34.477 -15.556 -22.475  0.00  0.00    +0.016 C 
ATOM      4  C   UNL     1      32.637 -14.634 -20.590  0.00  0.00    +0.016 C 
ATOM      5  C   UNL     1      33.644 -14.479 -22.780  0.00  0.00    +0.016 C 
ATOM      6  C   UNL     1      32.725 -14.019 -21.839  0.00  0.00    +0.048 C 
ENDROOT
BRANCH   1   7
ATOM      7  N   UNL     1      35.233 -17.259 -20.915  0.00  0.00    -0.334 N 
ATOM      8  H   UNL     1      35.658 -17.280 -20.028  0.00  0.00    +0.147 HD
BRANCH   7   9
ATOM      9  C   UNL     1      35.506 -18.347 -21.834  0.00  0.00    +0.069 C 
ATOM     10  C   UNL     1      36.784 -19.081 -21.415  0.00  0.00    +0.019 C 
ATOM     11  C   UNL     1      34.307 -19.298 -21.896  0.00  0.00    +0.019 C 
ATOM     12  C   UNL     1      36.603 -19.902 -20.137  0.00  0.00    +0.002 C 
ATOM     13  C   UNL     1      34.134 -20.117 -20.617  0.00  0.00    +0.002 C 
ATOM     14  C   UNL     1      35.416 -20.854 -20.242  0.00  0.00    +0.000 C 
ENDBRANCH   7   9
ENDBRANCH   1   7
BRANCH   6  15
ATOM     15  N   UNL     1      31.882 -12.930 -22.148  0.00  0.00    -0.313 N 
ATOM     16  H   UNL     1      31.152 -13.159 -22.768  0.00  0.00    +0.152 HD
BRANCH  15  17
ATOM     17  C   UNL     1      31.879 -11.582 -21.743  0.00  0.00    +0.048 C 
ATOM     18  C   UNL     1      31.533 -11.246 -20.433  0.00  0.00    +0.015 C 
ATOM     19  C   UNL     1      32.221 -10.577 -22.651  0.00  0.00    +0.015 C 
ATOM     20  C   UNL     1      31.529  -9.910 -20.031  0.00  0.00    +0.001 C 
ATOM     21  C   UNL     1      32.218  -9.241 -22.249  0.00  0.00    +0.001 C 
ATOM     22  C   UNL     1      31.871  -8.908 -20.940  0.00  0.00    +0.000 C 
ENDBRANCH  15  17
ENDBRANCH   6  15
TORSDOF 4
ENDMDL
MODEL 7
REMARK VINA RESULT:      -9.4      4.021      9.431
REMARK  Name = 92093
REMARK  4 active torsions:
REMARK  status: ('A' for Active; 'I' for Inactive)
REMARK    1  A    between atoms: C_1  and  N_7
REMARK    2  A    between atoms: C_6  and  N_15
REMARK    3  A    between atoms: N_7  and  C_9
REMARK    4  A    between atoms: N_15  and  C_17
REMARK                            x       y       z     vdW  Elec       q    Type
REMARK                         _______ _______ _______ _____ _____    ______ ____
ROOT
ATOM      1  C   UNL     1      34.533 -16.330 -21.358  0.00  0.00    +0.045 C 
ATOM      2  C   UNL     1      33.500 -15.832 -20.539  0.00  0.00    +0.016 C 
ATOM      3  C   UNL     1      34.726 -15.730 -22.618  0.00  0.00    +0.016 C 
ATOM      4  C   UNL     1      32.691 -14.778 -20.963  0.00  0.00    +0.016 C 
ATOM      5  C   UNL     1      33.918 -14.674 -23.041  0.00  0.00    +0.016 C 
ATOM      6  C   UNL     1      32.901 -14.198 -22.214  0.00  0.00    +0.048 C 
ENDROOT
BRANCH   1   7
ATOM      7  N   UNL     1      35.334 -17.375 -20.937  0.00  0.00    -0.334 N 
ATOM      8  H   UNL     1      35.726 -17.328 -20.036  0.00  0.00    +0.147 HD
BRANCH   7   9
ATOM      9  C   UNL     1      35.627 -18.537 -21.754  0.00  0.00    +0.069 C 
ATOM     10  C   UNL     1      36.810 -19.312 -21.163  0.00  0.00    +0.019 C 
ATOM     11  C   UNL     1      34.383 -19.422 -21.877  0.00  0.00    +0.019 C 
ATOM     12  C   UNL     1      36.455 -20.031 -19.861  0.00  0.00    +0.002 C 
ATOM     13  C   UNL     1      34.036 -20.141 -20.573  0.00  0.00    +0.002 C 
ATOM     14  C   UNL     1      35.227 -20.921 -20.025  0.00  0.00    +0.000 C 
ENDBRANCH   7   9
ENDBRANCH   1   7
BRANCH   6  15
ATOM     15  N   UNL     1      32.083 -13.131 -22.643  0.00  0.00    -0.313 N 
ATOM     16  H   UNL     1      31.163 -13.402 -22.862  0.00  0.00    +0.152 HD
BRANCH  15  17
ATOM     17  C   UNL     1      32.326 -11.755 -22.815  0.00  0.00    +0.048 C 
ATOM     18  C   UNL     1      33.360 -11.326 -23.649  0.00  0.00    +0.015 C 
ATOM     19  C   UNL     1      31.533 -10.816 -22.152  0.00  0.00    +0.015 C 
ATOM     20  C   UNL     1      33.601  -9.962 -23.819  0.00  0.00    +0.001 C 
ATOM     21  C   UNL     1      31.773  -9.453 -22.323  0.00  0.00    +0.001 C 
ATOM     22  C   UNL     1      32.807  -9.026 -23.156  0.00  0.00    +0.000 C 
ENDBRANCH  15  17
ENDBRANCH   6  15
TORSDOF 4
ENDMDL
MODEL 8
REMARK VINA RESULT:      -9.4      2.742      9.161
REMARK  Name = 92093
REMARK  4 active torsions:
REMARK  status: ('A' for Active; 'I' for Inactive)
REMARK    1  A    between atoms: C_1  and  N_7
REMARK    2  A    between atoms: C_6  and  N_15
REMARK    3  A    between atoms: N_7  and  C_9
REMARK    4  A    between atoms: N_15  and  C_17
REMARK                            x       y       z     vdW  Elec       q    Type
REMARK                         _______ _______ _______ _____ _____    ______ ____
ROOT
ATOM      1  C   UNL     1      35.163 -17.392 -21.226  0.00  0.00    +0.045 C 
ATOM      2  C   UNL     1      34.597 -16.342 -20.477  0.00  0.00    +0.016 C 
ATOM      3  C   UNL     1      35.372 -17.186 -22.605  0.00  0.00    +0.016 C 
ATOM      4  C   UNL     1      34.252 -15.133 -21.082  0.00  0.00    +0.016 C 
ATOM      5  C   UNL     1      35.027 -15.976 -23.209  0.00  0.00    +0.016 C 
ATOM      6  C   UNL     1      34.468 -14.951 -22.448  0.00  0.00    +0.048 C 
ENDROOT
BRANCH   1   7
ATOM      7  N   UNL     1      35.505 -18.591 -20.627  0.00  0.00    -0.334 N 
ATOM      8  H   UNL     1      35.906 -18.564 -19.729  0.00  0.00    +0.147 HD
BRANCH   7   9
ATOM      9  C   UNL     1      35.305 -19.884 -21.252  0.00  0.00    +0.069 C 
ATOM     10  C   UNL     1      36.090 -20.962 -20.496  0.00  0.00    +0.019 C 
ATOM     11  C   UNL     1      33.811 -20.215 -21.311  0.00  0.00    +0.019 C 
ATOM     12  C   UNL     1      35.491 -21.275 -19.124  0.00  0.00    +0.002 C 
ATOM     13  C   UNL     1      33.220 -20.532 -19.936  0.00  0.00    +0.002 C 
ATOM     14  C   UNL     1      34.009 -21.624 -19.222  0.00  0.00    +0.000 C 
ENDBRANCH   7   9
ENDBRANCH   1   7
BRANCH   6  15
ATOM     15  N   UNL     1      34.119 -13.727 -23.059  0.00  0.00    -0.313 N 
ATOM     16  H   UNL     1      34.091 -12.967 -22.435  0.00  0.00    +0.152 HD
BRANCH  15  17
ATOM     17  C   UNL     1      33.806 -13.381 -24.387  0.00  0.00    +0.048 C 
ATOM     18  C   UNL     1      33.203 -14.316 -25.231  0.00  0.00    +0.015 C 
ATOM     19  C   UNL     1      34.098 -12.101 -24.865  0.00  0.00    +0.015 C 
ATOM     20  C   UNL     1      32.894 -13.973 -26.547  0.00  0.00    +0.001 C 
ATOM     21  C   UNL     1      33.787 -11.758 -26.180  0.00  0.00    +0.001 C 
ATOM     22  C   UNL     1      33.186 -12.694 -27.022  0.00  0.00    +0.000 C 
ENDBRANCH  15  17
ENDBRANCH   6  15
TORSDOF 4
ENDMDL
MODEL 9
REMARK VINA RESULT:      -9.3      2.817      8.887
REMARK  Name = 92093
REMARK  4 active torsions:
REMARK  status: ('A' for Active; 'I' for Inactive)
REMARK    1  A    between atoms: C_1  and  N_7
REMARK    2  A    between atoms: C_6  and  N_15
REMARK    3  A    between atoms: N_7  and  C_9
REMARK    4  A    between atoms: N_15  and  C_17
REMARK                            x       y       z     vdW  Elec       q    Type
REMARK                         _______ _______ _______ _____ _____    ______ ____
ROOT
ATOM      1  C   UNL     1      35.594 -22.935 -15.191  0.00  0.00    +0.045 C 
ATOM      2  C   UNL     1      34.382 -23.288 -15.818  0.00  0.00    +0.016 C 
ATOM      3  C   UNL     1      36.588 -22.313 -15.973  0.00  0.00    +0.016 C 
ATOM      4  C   UNL     1      34.172 -23.031 -17.173  0.00  0.00    +0.016 C 
ATOM      5  C   UNL     1      36.377 -22.055 -17.328  0.00  0.00    +0.016 C 
ATOM      6  C   UNL     1      35.170 -22.413 -17.928  0.00  0.00    +0.048 C 
ENDROOT
BRANCH   1   7
ATOM      7  N   UNL     1      35.801 -23.190 -13.848  0.00  0.00    -0.334 N 
ATOM      8  H   UNL     1      35.962 -22.426 -13.249  0.00  0.00    +0.147 HD
BRANCH   7   9
ATOM      9  C   UNL     1      35.797 -24.523 -13.277  0.00  0.00    +0.069 C 
ATOM     10  C   UNL     1      36.548 -25.493 -14.197  0.00  0.00    +0.019 C 
ATOM     11  C   UNL     1      36.407 -24.496 -11.872  0.00  0.00    +0.019 C 
ATOM     12  C   UNL     1      38.058 -25.251 -14.203  0.00  0.00    +0.002 C 
ATOM     13  C   UNL     1      37.917 -24.259 -11.887  0.00  0.00    +0.002 C 
ATOM     14  C   UNL     1      38.636 -25.255 -12.791  0.00  0.00    +0.000 C 
ENDBRANCH   7   9
ENDBRANCH   1   7
BRANCH   6  15
ATOM     15  N   UNL     1      34.957 -22.153 -19.298  0.00  0.00    -0.313 N 
ATOM     16  H   UNL     1      35.083 -22.940 -19.874  0.00  0.00    +0.152 HD
BRANCH  15  17
ATOM     17  C   UNL     1      34.599 -20.987 -20.002  0.00  0.00    +0.048 C 
ATOM     18  C   UNL     1      35.589 -20.144 -20.509  0.00  0.00    +0.015 C 
ATOM     19  C   UNL     1      33.252 -20.671 -20.194  0.00  0.00    +0.015 C 
ATOM     20  C   UNL     1      35.234 -18.988 -21.205  0.00  0.00    +0.001 C 
ATOM     21  C   UNL     1      32.897 -19.517 -20.891  0.00  0.00    +0.001 C 
ATOM     22  C   UNL     1      33.888 -18.675 -21.396  0.00  0.00    +0.000 C 
ENDBRANCH  15  17
ENDBRANCH   6  15
TORSDOF 4
ENDMDL
