MODEL 1
REMARK VINA RESULT:     -12.2      0.000      0.000
REMARK  Name = 5287792
REMARK  2 active torsions:
REMARK  status: ('A' for Active; 'I' for Inactive)
REMARK    1  A    between atoms: N_2  and  C_16
REMARK    2  A    between atoms: C_4  and  O_22
REMARK                            x       y       z     vdW  Elec       q    Type
REMARK                         _______ _______ _______ _____ _____    ______ ____
ROOT
ATOM      1  O   UNL     1      33.388 -15.197 -25.156  0.00  0.00    -0.288 OA
ATOM      2  N   UNL     1      34.624 -18.669 -22.407  0.00  0.00    -0.264 N 
ATOM      3  N   UNL     1      33.655 -16.686 -21.367  0.00  0.00    -0.392 NA
ATOM      4  C   UNL     1      34.567 -16.658 -23.648  0.00  0.00    +0.204 C 
ATOM      5  C   UNL     1      34.577 -17.844 -24.606  0.00  0.00    +0.065 C 
ATOM      6  C   UNL     1      35.116 -18.999 -23.750  0.00  0.00    +0.101 C 
ATOM      7  C   UNL     1      34.222 -17.338 -22.332  0.00  0.00    +0.195 C 
ATOM      8  C   UNL     1      33.649 -15.524 -24.007  0.00  0.00    +0.207 C 
ATOM      9  C   UNL     1      33.142 -14.765 -22.848  0.00  0.00    +0.063 C 
ATOM     10  C   UNL     1      33.223 -15.361 -21.579  0.00  0.00    +0.117 C 
ATOM     11  C   UNL     1      32.626 -13.477 -23.016  0.00  0.00    +0.001 C 
ATOM     12  C   UNL     1      32.778 -14.626 -20.474  0.00  0.00    +0.085 C 
ATOM     13  C   UNL     1      32.191 -12.764 -21.902  0.00  0.00    -0.026 C 
ATOM     14  C   UNL     1      32.270 -13.334 -20.633  0.00  0.00    -0.023 C 
ATOM     15  C   UNL     1      31.643 -11.386 -22.067  0.00  0.00    +0.031 C 
ENDROOT
BRANCH   2  16
ATOM     16  C   UNL     1      34.616 -19.592 -21.391  0.00  0.00    +0.053 C 
ATOM     17  C   UNL     1      33.403 -20.094 -20.865  0.00  0.00    +0.015 C 
ATOM     18  C   UNL     1      35.819 -20.079 -20.831  0.00  0.00    +0.015 C 
ATOM     19  C   UNL     1      33.396 -21.034 -19.833  0.00  0.00    +0.001 C 
ATOM     20  C   UNL     1      35.811 -21.017 -19.800  0.00  0.00    +0.001 C 
ATOM     21  C   UNL     1      34.599 -21.495 -19.300  0.00  0.00    +0.000 C 
ENDBRANCH   2  16
BRANCH   4  22
ATOM     22  O   UNL     1      35.853 -16.075 -23.518  0.00  0.00    -0.372 OA
ATOM     23  H   UNL     1      36.293 -16.433 -22.731  0.00  0.00    +0.211 HD
ENDBRANCH   4  22
TORSDOF 2
ENDMDL
MODEL 2
REMARK VINA RESULT:     -10.2      2.833      7.368
REMARK  Name = 5287792
REMARK  2 active torsions:
REMARK  status: ('A' for Active; 'I' for Inactive)
REMARK    1  A    between atoms: N_2  and  C_16
REMARK    2  A    between atoms: C_4  and  O_22
REMARK                            x       y       z     vdW  Elec       q    Type
REMARK                         _______ _______ _______ _____ _____    ______ ____
ROOT
ATOM      1  O   UNL     1      34.476 -16.356 -25.875  0.00  0.00    -0.288 OA
ATOM      2  N   UNL     1      33.700 -11.930 -24.900  0.00  0.00    -0.264 N 
ATOM      3  N   UNL     1      34.127 -13.445 -23.037  0.00  0.00    -0.392 NA
ATOM      4  C   UNL     1      33.472 -14.254 -25.262  0.00  0.00    +0.204 C 
ATOM      5  C   UNL     1      33.805 -13.567 -26.582  0.00  0.00    +0.065 C 
ATOM      6  C   UNL     1      33.429 -12.100 -26.333  0.00  0.00    +0.101 C 
ATOM      7  C   UNL     1      33.810 -13.161 -24.260  0.00  0.00    +0.195 C 
ATOM      8  C   UNL     1      34.169 -15.559 -25.000  0.00  0.00    +0.207 C 
ATOM      9  C   UNL     1      34.386 -15.852 -23.570  0.00  0.00    +0.063 C 
ATOM     10  C   UNL     1      34.298 -14.791 -22.654  0.00  0.00    +0.117 C 
ATOM     11  C   UNL     1      34.641 -17.160 -23.147  0.00  0.00    +0.001 C 
ATOM     12  C   UNL     1      34.465 -15.077 -21.294  0.00  0.00    +0.085 C 
ATOM     13  C   UNL     1      34.802 -17.421 -21.788  0.00  0.00    -0.026 C 
ATOM     14  C   UNL     1      34.711 -16.383 -20.863  0.00  0.00    -0.023 C 
ATOM     15  C   UNL     1      35.069 -18.812 -21.323  0.00  0.00    +0.031 C 
ENDROOT
BRANCH   2  16
ATOM     16  C   UNL     1      33.792 -10.688 -24.322  0.00  0.00    +0.053 C 
ATOM     17  C   UNL     1      34.878  -9.826 -24.602  0.00  0.00    +0.015 C 
ATOM     18  C   UNL     1      32.804 -10.220 -23.426  0.00  0.00    +0.015 C 
ATOM     19  C   UNL     1      34.970  -8.563 -24.015  0.00  0.00    +0.001 C 
ATOM     20  C   UNL     1      32.897  -8.958 -22.840  0.00  0.00    +0.001 C 
ATOM     21  C   UNL     1      33.980  -8.129 -23.134  0.00  0.00    +0.000 C 
ENDBRANCH   2  16
BRANCH   4  22
ATOM     22  O   UNL     1      32.087 -14.539 -25.151  0.00  0.00    -0.372 OA
ATOM     23  H   UNL     1      31.910 -14.958 -24.295  0.00  0.00    +0.211 HD
ENDBRANCH   4  22
TORSDOF 2
ENDMDL
MODEL 3
REMARK VINA RESULT:     -10.0      5.288      8.419
REMARK  Name = 5287792
REMARK  2 active torsions:
REMARK  status: ('A' for Active; 'I' for Inactive)
REMARK    1  A    between atoms: N_2  and  C_16
REMARK    2  A    between atoms: C_4  and  O_22
REMARK                            x       y       z     vdW  Elec       q    Type
REMARK                         _______ _______ _______ _____ _____    ______ ____
ROOT
ATOM      1  O   UNL     1      32.075 -21.723 -18.633  0.00  0.00    -0.288 OA
ATOM      2  N   UNL     1      34.908 -23.774 -15.648  0.00  0.00    -0.264 N 
ATOM      3  N   UNL     1      35.907 -22.430 -17.421  0.00  0.00    -0.392 NA
ATOM      4  C   UNL     1      33.591 -23.240 -17.536  0.00  0.00    +0.204 C 
ATOM      5  C   UNL     1      32.681 -23.479 -16.335  0.00  0.00    +0.065 C 
ATOM      6  C   UNL     1      33.560 -24.283 -15.368  0.00  0.00    +0.101 C 
ATOM      7  C   UNL     1      34.947 -23.095 -16.862  0.00  0.00    +0.195 C 
ATOM      8  C   UNL     1      33.225 -22.086 -18.426  0.00  0.00    +0.207 C 
ATOM      9  C   UNL     1      34.373 -21.463 -19.112  0.00  0.00    +0.063 C 
ATOM     10  C   UNL     1      35.661 -21.712 -18.610  0.00  0.00    +0.117 C 
ATOM     11  C   UNL     1      34.175 -20.674 -20.248  0.00  0.00    +0.001 C 
ATOM     12  C   UNL     1      36.752 -21.153 -19.284  0.00  0.00    +0.085 C 
ATOM     13  C   UNL     1      35.276 -20.129 -20.904  0.00  0.00    -0.026 C 
ATOM     14  C   UNL     1      36.563 -20.371 -20.425  0.00  0.00    -0.023 C 
ATOM     15  C   UNL     1      35.080 -19.289 -22.121  0.00  0.00    +0.031 C 
ENDROOT
BRANCH   2  16
ATOM     16  C   UNL     1      35.960 -24.000 -14.795  0.00  0.00    +0.053 C 
ATOM     17  C   UNL     1      36.178 -23.179 -13.664  0.00  0.00    +0.015 C 
ATOM     18  C   UNL     1      36.866 -25.064 -15.011  0.00  0.00    +0.015 C 
ATOM     19  C   UNL     1      37.246 -23.410 -12.797  0.00  0.00    +0.001 C 
ATOM     20  C   UNL     1      37.933 -25.294 -14.143  0.00  0.00    +0.001 C 
ATOM     21  C   UNL     1      38.124 -24.467 -13.037  0.00  0.00    +0.000 C 
ENDBRANCH   2  16
BRANCH   4  22
ATOM     22  O   UNL     1      33.644 -24.372 -18.390  0.00  0.00    -0.372 OA
ATOM     23  H   UNL     1      33.013 -25.041 -18.079  0.00  0.00    +0.211 HD
ENDBRANCH   4  22
TORSDOF 2
ENDMDL
MODEL 4
REMARK VINA RESULT:     -10.0      5.277      8.423
REMARK  Name = 5287792
REMARK  2 active torsions:
REMARK  status: ('A' for Active; 'I' for Inactive)
REMARK    1  A    between atoms: N_2  and  C_16
REMARK    2  A    between atoms: C_4  and  O_22
REMARK                            x       y       z     vdW  Elec       q    Type
REMARK                         _______ _______ _______ _____ _____    ______ ____
ROOT
ATOM      1  O   UNL     1      32.073 -21.727 -18.659  0.00  0.00    -0.288 OA
ATOM      2  N   UNL     1      34.900 -23.759 -15.656  0.00  0.00    -0.264 N 
ATOM      3  N   UNL     1      35.901 -22.413 -17.427  0.00  0.00    -0.392 NA
ATOM      4  C   UNL     1      33.590 -23.235 -17.552  0.00  0.00    +0.204 C 
ATOM      5  C   UNL     1      32.675 -23.475 -16.355  0.00  0.00    +0.065 C 
ATOM      6  C   UNL     1      33.553 -24.274 -15.382  0.00  0.00    +0.101 C 
ATOM      7  C   UNL     1      34.942 -23.081 -16.872  0.00  0.00    +0.195 C 
ATOM      8  C   UNL     1      33.223 -22.084 -18.446  0.00  0.00    +0.207 C 
ATOM      9  C   UNL     1      34.371 -21.457 -19.127  0.00  0.00    +0.063 C 
ATOM     10  C   UNL     1      35.657 -21.699 -18.618  0.00  0.00    +0.117 C 
ATOM     11  C   UNL     1      34.175 -20.671 -20.266  0.00  0.00    +0.001 C 
ATOM     12  C   UNL     1      36.750 -21.136 -19.288  0.00  0.00    +0.085 C 
ATOM     13  C   UNL     1      35.277 -20.122 -20.917  0.00  0.00    -0.026 C 
ATOM     14  C   UNL     1      36.562 -20.357 -20.432  0.00  0.00    -0.023 C 
ATOM     15  C   UNL     1      35.082 -19.285 -22.136  0.00  0.00    +0.031 C 
ENDROOT
BRANCH   2  16
ATOM     16  C   UNL     1      35.949 -23.978 -14.797  0.00  0.00    +0.053 C 
ATOM     17  C   UNL     1      36.892 -25.004 -15.037  0.00  0.00    +0.015 C 
ATOM     18  C   UNL     1      36.128 -23.188 -13.639  0.00  0.00    +0.015 C 
ATOM     19  C   UNL     1      37.958 -25.226 -14.165  0.00  0.00    +0.001 C 
ATOM     20  C   UNL     1      37.193 -23.411 -12.767  0.00  0.00    +0.001 C 
ATOM     21  C   UNL     1      38.109 -24.430 -13.029  0.00  0.00    +0.000 C 
ENDBRANCH   2  16
BRANCH   4  22
ATOM     22  O   UNL     1      33.653 -24.368 -18.403  0.00  0.00    -0.372 OA
ATOM     23  H   UNL     1      34.250 -25.029 -18.019  0.00  0.00    +0.211 HD
ENDBRANCH   4  22
TORSDOF 2
ENDMDL
MODEL 5
REMARK VINA RESULT:      -9.3      4.239      6.739
REMARK  Name = 5287792
REMARK  2 active torsions:
REMARK  status: ('A' for Active; 'I' for Inactive)
REMARK    1  A    between atoms: N_2  and  C_16
REMARK    2  A    between atoms: C_4  and  O_22
REMARK                            x       y       z     vdW  Elec       q    Type
REMARK                         _______ _______ _______ _____ _____    ______ ____
ROOT
ATOM      1  O   UNL     1      31.826  -9.726 -19.403  0.00  0.00    -0.288 OA
ATOM      2  N   UNL     1      32.562 -13.289 -22.213  0.00  0.00    -0.264 N 
ATOM      3  N   UNL     1      32.604 -11.052 -23.182  0.00  0.00    -0.392 NA
ATOM      4  C   UNL     1      31.584 -11.515 -20.997  0.00  0.00    +0.204 C 
ATOM      5  C   UNL     1      32.033 -12.605 -20.029  0.00  0.00    +0.065 C 
ATOM      6  C   UNL     1      32.160 -13.850 -20.917  0.00  0.00    +0.101 C 
ATOM      7  C   UNL     1      32.316 -11.920 -22.267  0.00  0.00    +0.195 C 
ATOM      8  C   UNL     1      31.845 -10.099 -20.567  0.00  0.00    +0.207 C 
ATOM      9  C   UNL     1      32.049  -9.156 -21.684  0.00  0.00    +0.063 C 
ATOM     10  C   UNL     1      32.362  -9.683 -22.948  0.00  0.00    +0.117 C 
ATOM     11  C   UNL     1      31.901  -7.781 -21.484  0.00  0.00    +0.001 C 
ATOM     12  C   UNL     1      32.517  -8.790 -24.015  0.00  0.00    +0.085 C 
ATOM     13  C   UNL     1      32.058  -6.912 -22.561  0.00  0.00    -0.026 C 
ATOM     14  C   UNL     1      32.361  -7.415 -23.825  0.00  0.00    -0.023 C 
ATOM     15  C   UNL     1      31.898  -5.442 -22.363  0.00  0.00    +0.031 C 
ENDROOT
BRANCH   2  16
ATOM     16  C   UNL     1      33.081 -14.075 -23.213  0.00  0.00    +0.053 C 
ATOM     17  C   UNL     1      34.081 -15.039 -22.945  0.00  0.00    +0.015 C 
ATOM     18  C   UNL     1      32.637 -13.952 -24.549  0.00  0.00    +0.015 C 
ATOM     19  C   UNL     1      34.607 -15.837 -23.961  0.00  0.00    +0.001 C 
ATOM     20  C   UNL     1      33.164 -14.750 -25.564  0.00  0.00    +0.001 C 
ATOM     21  C   UNL     1      34.149 -15.693 -25.271  0.00  0.00    +0.000 C 
ENDBRANCH   2  16
BRANCH   4  22
ATOM     22  O   UNL     1      30.190 -11.580 -21.253  0.00  0.00    -0.372 OA
ATOM     23  H   UNL     1      29.706 -11.564 -20.412  0.00  0.00    +0.211 HD
ENDBRANCH   4  22
TORSDOF 2
ENDMDL
