MODEL 1
REMARK VINA RESULT:      -7.1      0.000      0.000
REMARK  Name = 153005
REMARK  5 active torsions:
REMARK  status: ('A' for Active; 'I' for Inactive)
REMARK    1  A    between atoms: C_1  and  C_12
REMARK    2  A    between atoms: C_4  and  O_7
REMARK    3  A    between atoms: O_7  and  S_8
REMARK    4  A    between atoms: C_12  and  C_13
REMARK    5  A    between atoms: C_13  and  N_14
REMARK                            x       y       z     vdW  Elec       q    Type
REMARK                         _______ _______ _______ _____ _____    ______ ____
ROOT
ATOM      1  C   UNL     1      34.636 -21.108 -19.798  0.00  0.00    -0.024 C 
ATOM      2  C   UNL     1      35.805 -20.551 -20.315  0.00  0.00    -0.001 C 
ATOM      3  C   UNL     1      33.398 -20.542 -20.107  0.00  0.00    -0.001 C 
ATOM      4  C   UNL     1      34.503 -18.863 -21.449  0.00  0.00    +0.176 C 
ATOM      5  C   UNL     1      35.740 -19.429 -21.140  0.00  0.00    +0.040 C 
ATOM      6  C   UNL     1      33.333 -19.419 -20.932  0.00  0.00    +0.040 C 
ENDROOT
BRANCH   4   7
ATOM      7  O   UNL     1      34.439 -17.767 -22.254  0.00  0.00    -0.322 OA
BRANCH   7   8
ATOM      8  S   UNL     1      34.518 -16.272 -21.573  0.00  0.00    +0.282 S 
ATOM      9  O   UNL     1      32.955 -15.863 -21.344  0.00  0.00    -0.105 OA
ATOM     10  O   UNL     1      35.146 -16.380 -20.269  0.00  0.00    -0.105 OA
ATOM     11  O   UNL     1      35.062 -15.365 -22.566  0.00  0.00    -0.012 OA
ENDBRANCH   7   8
ENDBRANCH   4   7
BRANCH   1  12
ATOM     12  C   UNL     1      34.706 -22.308 -18.916  0.00  0.00    +0.002 C 
BRANCH  12  13
ATOM     13  C   UNL     1      33.342 -22.653 -18.300  0.00  0.00    -0.081 C 
BRANCH  13  14
ATOM     14  N   UNL     1      33.487 -23.229 -16.967  0.00  0.00    +0.381 N 
ATOM     15  H   UNL     1      32.873 -22.738 -16.316  0.00  0.00    -0.089 HD
ATOM     16  H   UNL     1      34.455 -23.136 -16.659  0.00  0.00    -0.089 HD
ATOM     17  H   UNL     1      33.232 -24.217 -16.995  0.00  0.00    -0.089 HD
ENDBRANCH  13  14
ENDBRANCH  12  13
ENDBRANCH   1  12
TORSDOF 5
ENDMDL
MODEL 2
REMARK VINA RESULT:      -7.1      3.360      4.411
REMARK  Name = 153005
REMARK  5 active torsions:
REMARK  status: ('A' for Active; 'I' for Inactive)
REMARK    1  A    between atoms: C_1  and  C_12
REMARK    2  A    between atoms: C_4  and  O_7
REMARK    3  A    between atoms: O_7  and  S_8
REMARK    4  A    between atoms: C_12  and  C_13
REMARK    5  A    between atoms: C_13  and  N_14
REMARK                            x       y       z     vdW  Elec       q    Type
REMARK                         _______ _______ _______ _____ _____    ______ ____
ROOT
ATOM      1  C   UNL     1      34.594 -18.746 -22.528  0.00  0.00    -0.024 C 
ATOM      2  C   UNL     1      34.704 -17.372 -22.313  0.00  0.00    -0.001 C 
ATOM      3  C   UNL     1      34.517 -19.244 -23.829  0.00  0.00    -0.001 C 
ATOM      4  C   UNL     1      34.658 -16.994 -24.699  0.00  0.00    +0.176 C 
ATOM      5  C   UNL     1      34.735 -16.496 -23.398  0.00  0.00    +0.040 C 
ATOM      6  C   UNL     1      34.549 -18.368 -24.914  0.00  0.00    +0.040 C 
ENDROOT
BRANCH   4   7
ATOM      7  O   UNL     1      34.688 -16.139 -25.757  0.00  0.00    -0.322 OA
BRANCH   7   8
ATOM      8  S   UNL     1      33.310 -15.350 -26.184  0.00  0.00    +0.282 S 
ATOM      9  O   UNL     1      33.772 -14.405 -27.433  0.00  0.00    -0.105 OA
ATOM     10  O   UNL     1      32.351 -16.316 -26.687  0.00  0.00    -0.105 OA
ATOM     11  O   UNL     1      32.948 -14.472 -25.088  0.00  0.00    -0.012 OA
ENDBRANCH   7   8
ENDBRANCH   4   7
BRANCH   1  12
ATOM     12  C   UNL     1      34.561 -19.682 -21.368  0.00  0.00    +0.002 C 
BRANCH  12  13
ATOM     13  C   UNL     1      33.156 -19.798 -20.759  0.00  0.00    -0.081 C 
BRANCH  13  14
ATOM     14  N   UNL     1      33.055 -20.941 -19.858  0.00  0.00    +0.381 N 
ATOM     15  H   UNL     1      32.587 -21.711 -20.337  0.00  0.00    -0.089 HD
ATOM     16  H   UNL     1      32.518 -20.677 -19.032  0.00  0.00    -0.089 HD
ATOM     17  H   UNL     1      33.991 -21.234 -19.575  0.00  0.00    -0.089 HD
ENDBRANCH  13  14
ENDBRANCH  12  13
ENDBRANCH   1  12
TORSDOF 5
ENDMDL
MODEL 3
REMARK VINA RESULT:      -7.0      9.520     10.411
REMARK  Name = 153005
REMARK  5 active torsions:
REMARK  status: ('A' for Active; 'I' for Inactive)
REMARK    1  A    between atoms: C_1  and  C_12
REMARK    2  A    between atoms: C_4  and  O_7
REMARK    3  A    between atoms: O_7  and  S_8
REMARK    4  A    between atoms: C_12  and  C_13
REMARK    5  A    between atoms: C_13  and  N_14
REMARK                            x       y       z     vdW  Elec       q    Type
REMARK                         _______ _______ _______ _____ _____    ______ ____
ROOT
ATOM      1  C   UNL     1      35.535 -24.726 -13.347  0.00  0.00    -0.024 C 
ATOM      2  C   UNL     1      36.404 -25.180 -12.355  0.00  0.00    -0.001 C 
ATOM      3  C   UNL     1      35.813 -24.986 -14.689  0.00  0.00    -0.001 C 
ATOM      4  C   UNL     1      37.829 -26.153 -14.045  0.00  0.00    +0.176 C 
ATOM      5  C   UNL     1      37.551 -25.893 -12.703  0.00  0.00    +0.040 C 
ATOM      6  C   UNL     1      36.960 -25.699 -15.038  0.00  0.00    +0.040 C 
ENDROOT
BRANCH   4   7
ATOM      7  O   UNL     1      38.948 -26.849 -14.385  0.00  0.00    -0.322 OA
BRANCH   7   8
ATOM      8  S   UNL     1      40.350 -26.028 -14.641  0.00  0.00    +0.282 S 
ATOM      9  O   UNL     1      41.476 -26.934 -13.883  0.00  0.00    -0.105 OA
ATOM     10  O   UNL     1      40.649 -26.039 -16.061  0.00  0.00    -0.105 OA
ATOM     11  O   UNL     1      40.258 -24.767 -13.929  0.00  0.00    -0.012 OA
ENDBRANCH   7   8
ENDBRANCH   4   7
BRANCH   1  12
ATOM     12  C   UNL     1      34.309 -23.964 -12.974  0.00  0.00    +0.002 C 
BRANCH  12  13
ATOM     13  C   UNL     1      33.188 -24.129 -14.011  0.00  0.00    -0.081 C 
BRANCH  13  14
ATOM     14  N   UNL     1      32.319 -25.255 -13.686  0.00  0.00    +0.381 N 
ATOM     15  H   UNL     1      31.741 -25.483 -14.495  0.00  0.00    -0.089 HD
ATOM     16  H   UNL     1      31.719 -25.005 -12.899  0.00  0.00    -0.089 HD
ATOM     17  H   UNL     1      32.889 -26.063 -13.436  0.00  0.00    -0.089 HD
ENDBRANCH  13  14
ENDBRANCH  12  13
ENDBRANCH   1  12
TORSDOF 5
ENDMDL
MODEL 4
REMARK VINA RESULT:      -6.9      6.913      7.948
REMARK  Name = 153005
REMARK  5 active torsions:
REMARK  status: ('A' for Active; 'I' for Inactive)
REMARK    1  A    between atoms: C_1  and  C_12
REMARK    2  A    between atoms: C_4  and  O_7
REMARK    3  A    between atoms: O_7  and  S_8
REMARK    4  A    between atoms: C_12  and  C_13
REMARK    5  A    between atoms: C_13  and  N_14
REMARK                            x       y       z     vdW  Elec       q    Type
REMARK                         _______ _______ _______ _____ _____    ______ ____
ROOT
ATOM      1  C   UNL     1      32.952 -23.509 -14.896  0.00  0.00    -0.024 C 
ATOM      2  C   UNL     1      32.958 -23.431 -16.289  0.00  0.00    -0.001 C 
ATOM      3  C   UNL     1      31.797 -23.181 -14.185  0.00  0.00    -0.001 C 
ATOM      4  C   UNL     1      30.656 -22.698 -16.259  0.00  0.00    +0.176 C 
ATOM      5  C   UNL     1      31.811 -23.026 -16.971  0.00  0.00    +0.040 C 
ATOM      6  C   UNL     1      30.650 -22.775 -14.866  0.00  0.00    +0.040 C 
ENDROOT
BRANCH   4   7
ATOM      7  O   UNL     1      29.537 -22.302 -16.924  0.00  0.00    -0.322 OA
BRANCH   7   8
ATOM      8  S   UNL     1      28.150 -23.166 -16.738  0.00  0.00    +0.282 S 
ATOM      9  O   UNL     1      27.373 -22.969 -18.160  0.00  0.00    -0.105 OA
ATOM     10  O   UNL     1      28.485 -24.572 -16.604  0.00  0.00    -0.105 OA
ATOM     11  O   UNL     1      27.357 -22.510 -15.716  0.00  0.00    -0.012 OA
ENDBRANCH   7   8
ENDBRANCH   4   7
BRANCH   1  12
ATOM     12  C   UNL     1      34.178 -23.943 -14.168  0.00  0.00    +0.002 C 
BRANCH  12  13
ATOM     13  C   UNL     1      35.270 -24.446 -15.123  0.00  0.00    -0.081 C 
BRANCH  13  14
ATOM     14  N   UNL     1      35.655 -25.821 -14.822  0.00  0.00    +0.381 N 
ATOM     15  H   UNL     1      36.075 -25.860 -13.893  0.00  0.00    -0.089 HD
ATOM     16  H   UNL     1      36.329 -26.145 -15.515  0.00  0.00    -0.089 HD
ATOM     17  H   UNL     1      34.827 -26.417 -14.847  0.00  0.00    -0.089 HD
ENDBRANCH  13  14
ENDBRANCH  12  13
ENDBRANCH   1  12
TORSDOF 5
ENDMDL
MODEL 5
REMARK VINA RESULT:      -6.9      6.762      7.849
REMARK  Name = 153005
REMARK  5 active torsions:
REMARK  status: ('A' for Active; 'I' for Inactive)
REMARK    1  A    between atoms: C_1  and  C_12
REMARK    2  A    between atoms: C_4  and  O_7
REMARK    3  A    between atoms: O_7  and  S_8
REMARK    4  A    between atoms: C_12  and  C_13
REMARK    5  A    between atoms: C_13  and  N_14
REMARK                            x       y       z     vdW  Elec       q    Type
REMARK                         _______ _______ _______ _____ _____    ______ ____
ROOT
ATOM      1  C   UNL     1      33.354 -23.549 -14.958  0.00  0.00    -0.024 C 
ATOM      2  C   UNL     1      32.208 -23.175 -14.256  0.00  0.00    -0.001 C 
ATOM      3  C   UNL     1      33.351 -23.540 -16.353  0.00  0.00    -0.001 C 
ATOM      4  C   UNL     1      31.057 -22.783 -16.343  0.00  0.00    +0.176 C 
ATOM      5  C   UNL     1      31.059 -22.793 -14.948  0.00  0.00    +0.040 C 
ATOM      6  C   UNL     1      32.202 -23.157 -17.045  0.00  0.00    +0.040 C 
ENDROOT
BRANCH   4   7
ATOM      7  O   UNL     1      29.935 -22.410 -17.018  0.00  0.00    -0.322 OA
BRANCH   7   8
ATOM      8  S   UNL     1      28.484 -23.033 -16.559  0.00  0.00    +0.282 S 
ATOM      9  O   UNL     1      27.654 -23.161 -17.958  0.00  0.00    -0.105 OA
ATOM     10  O   UNL     1      28.690 -24.373 -16.039  0.00  0.00    -0.105 OA
ATOM     11  O   UNL     1      27.814 -22.035 -15.747  0.00  0.00    -0.012 OA
ENDBRANCH   7   8
ENDBRANCH   4   7
BRANCH   1  12
ATOM     12  C   UNL     1      34.583 -23.958 -14.218  0.00  0.00    +0.002 C 
BRANCH  12  13
ATOM     13  C   UNL     1      35.637 -24.579 -15.147  0.00  0.00    -0.081 C 
BRANCH  13  14
ATOM     14  N   UNL     1      35.694 -26.029 -15.000  0.00  0.00    +0.381 N 
ATOM     15  H   UNL     1      36.350 -26.269 -14.256  0.00  0.00    -0.089 HD
ATOM     16  H   UNL     1      36.004 -26.448 -15.876  0.00  0.00    -0.089 HD
ATOM     17  H   UNL     1      34.767 -26.383 -14.763  0.00  0.00    -0.089 HD
ENDBRANCH  13  14
ENDBRANCH  12  13
ENDBRANCH   1  12
TORSDOF 5
ENDMDL
MODEL 6
REMARK VINA RESULT:      -6.9      4.986      6.106
REMARK  Name = 153005
REMARK  5 active torsions:
REMARK  status: ('A' for Active; 'I' for Inactive)
REMARK    1  A    between atoms: C_1  and  C_12
REMARK    2  A    between atoms: C_4  and  O_7
REMARK    3  A    between atoms: O_7  and  S_8
REMARK    4  A    between atoms: C_12  and  C_13
REMARK    5  A    between atoms: C_13  and  N_14
REMARK                            x       y       z     vdW  Elec       q    Type
REMARK                         _______ _______ _______ _____ _____    ______ ____
ROOT
ATOM      1  C   UNL     1      35.256 -19.243 -21.395  0.00  0.00    -0.024 C 
ATOM      2  C   UNL     1      33.868 -19.111 -21.354  0.00  0.00    -0.001 C 
ATOM      3  C   UNL     1      35.886 -20.217 -20.619  0.00  0.00    -0.001 C 
ATOM      4  C   UNL     1      33.741 -20.922 -19.761  0.00  0.00    +0.176 C 
ATOM      5  C   UNL     1      33.110 -19.949 -20.537  0.00  0.00    +0.040 C 
ATOM      6  C   UNL     1      35.128 -21.055 -19.802  0.00  0.00    +0.040 C 
ENDROOT
BRANCH   4   7
ATOM      7  O   UNL     1      33.001 -21.740 -18.964  0.00  0.00    -0.322 OA
BRANCH   7   8
ATOM      8  S   UNL     1      33.721 -23.049 -18.277  0.00  0.00    +0.282 S 
ATOM      9  O   UNL     1      32.643 -23.545 -17.156  0.00  0.00    -0.105 OA
ATOM     10  O   UNL     1      33.842 -24.097 -19.274  0.00  0.00    -0.105 OA
ATOM     11  O   UNL     1      34.898 -22.583 -17.569  0.00  0.00    -0.012 OA
ENDBRANCH   7   8
ENDBRANCH   4   7
BRANCH   1  12
ATOM     12  C   UNL     1      36.066 -18.347 -22.269  0.00  0.00    +0.002 C 
BRANCH  12  13
ATOM     13  C   UNL     1      35.268 -17.122 -22.738  0.00  0.00    -0.081 C 
BRANCH  13  14
ATOM     14  N   UNL     1      35.330 -16.963 -24.187  0.00  0.00    +0.381 N 
ATOM     15  H   UNL     1      34.981 -16.039 -24.443  0.00  0.00    -0.089 HD
ATOM     16  H   UNL     1      34.757 -17.680 -24.633  0.00  0.00    -0.089 HD
ATOM     17  H   UNL     1      36.297 -17.060 -24.498  0.00  0.00    -0.089 HD
ENDBRANCH  13  14
ENDBRANCH  12  13
ENDBRANCH   1  12
TORSDOF 5
ENDMDL
MODEL 7
REMARK VINA RESULT:      -6.8      2.340      3.467
REMARK  Name = 153005
REMARK  5 active torsions:
REMARK  status: ('A' for Active; 'I' for Inactive)
REMARK    1  A    between atoms: C_1  and  C_12
REMARK    2  A    between atoms: C_4  and  O_7
REMARK    3  A    between atoms: O_7  and  S_8
REMARK    4  A    between atoms: C_12  and  C_13
REMARK    5  A    between atoms: C_13  and  N_14
REMARK                            x       y       z     vdW  Elec       q    Type
REMARK                         _______ _______ _______ _____ _____    ______ ____
ROOT
ATOM      1  C   UNL     1      34.664 -18.798 -21.619  0.00  0.00    -0.024 C 
ATOM      2  C   UNL     1      34.700 -18.755 -23.012  0.00  0.00    -0.001 C 
ATOM      3  C   UNL     1      34.722 -17.614 -20.883  0.00  0.00    -0.001 C 
ATOM      4  C   UNL     1      34.853 -16.345 -22.936  0.00  0.00    +0.176 C 
ATOM      5  C   UNL     1      34.795 -17.530 -23.671  0.00  0.00    +0.040 C 
ATOM      6  C   UNL     1      34.817 -16.388 -21.542  0.00  0.00    +0.040 C 
ENDROOT
BRANCH   4   7
ATOM      7  O   UNL     1      34.947 -15.150 -23.579  0.00  0.00    -0.322 OA
BRANCH   7   8
ATOM      8  S   UNL     1      33.567 -14.378 -24.032  0.00  0.00    +0.282 S 
ATOM      9  O   UNL     1      34.034 -12.826 -24.226  0.00  0.00    -0.105 OA
ATOM     10  O   UNL     1      33.148 -14.883 -25.326  0.00  0.00    -0.105 OA
ATOM     11  O   UNL     1      32.652 -14.417 -22.907  0.00  0.00    -0.012 OA
ENDBRANCH   7   8
ENDBRANCH   4   7
BRANCH   1  12
ATOM     12  C   UNL     1      34.561 -20.108 -20.914  0.00  0.00    +0.002 C 
BRANCH  12  13
ATOM     13  C   UNL     1      33.148 -20.363 -20.371  0.00  0.00    -0.081 C 
BRANCH  13  14
ATOM     14  N   UNL     1      33.031 -21.692 -19.781  0.00  0.00    +0.381 N 
ATOM     15  H   UNL     1      33.349 -22.391 -20.453  0.00  0.00    -0.089 HD
ATOM     16  H   UNL     1      32.058 -21.873 -19.536  0.00  0.00    -0.089 HD
ATOM     17  H   UNL     1      33.608 -21.742 -18.940  0.00  0.00    -0.089 HD
ENDBRANCH  13  14
ENDBRANCH  12  13
ENDBRANCH   1  12
TORSDOF 5
ENDMDL
MODEL 8
REMARK VINA RESULT:      -6.8      2.398      3.565
REMARK  Name = 153005
REMARK  5 active torsions:
REMARK  status: ('A' for Active; 'I' for Inactive)
REMARK    1  A    between atoms: C_1  and  C_12
REMARK    2  A    between atoms: C_4  and  O_7
REMARK    3  A    between atoms: O_7  and  S_8
REMARK    4  A    between atoms: C_12  and  C_13
REMARK    5  A    between atoms: C_13  and  N_14
REMARK                            x       y       z     vdW  Elec       q    Type
REMARK                         _______ _______ _______ _____ _____    ______ ____
ROOT
ATOM      1  C   UNL     1      34.598 -18.683 -21.622  0.00  0.00    -0.024 C 
ATOM      2  C   UNL     1      34.640 -17.510 -20.868  0.00  0.00    -0.001 C 
ATOM      3  C   UNL     1      34.663 -18.619 -23.014  0.00  0.00    -0.001 C 
ATOM      4  C   UNL     1      34.812 -16.210 -22.897  0.00  0.00    +0.176 C 
ATOM      5  C   UNL     1      34.746 -16.274 -21.505  0.00  0.00    +0.040 C 
ATOM      6  C   UNL     1      34.770 -17.383 -23.651  0.00  0.00    +0.040 C 
ENDROOT
BRANCH   4   7
ATOM      7  O   UNL     1      34.915 -15.004 -23.518  0.00  0.00    -0.322 OA
BRANCH   7   8
ATOM      8  S   UNL     1      33.543 -14.235 -24.001  0.00  0.00    +0.282 S 
ATOM      9  O   UNL     1      34.017 -12.688 -24.213  0.00  0.00    -0.105 OA
ATOM     10  O   UNL     1      33.140 -14.760 -25.293  0.00  0.00    -0.105 OA
ATOM     11  O   UNL     1      32.613 -14.255 -22.888  0.00  0.00    -0.012 OA
ENDBRANCH   7   8
ENDBRANCH   4   7
BRANCH   1  12
ATOM     12  C   UNL     1      34.485 -20.004 -20.941  0.00  0.00    +0.002 C 
BRANCH  12  13
ATOM     13  C   UNL     1      33.035 -20.332 -20.552  0.00  0.00    -0.081 C 
BRANCH  13  14
ATOM     14  N   UNL     1      32.949 -21.585 -19.810  0.00  0.00    +0.381 N 
ATOM     15  H   UNL     1      33.040 -21.395 -18.811  0.00  0.00    -0.089 HD
ATOM     16  H   UNL     1      33.698 -22.209 -20.108  0.00  0.00    -0.089 HD
ATOM     17  H   UNL     1      32.047 -22.025 -19.991  0.00  0.00    -0.089 HD
ENDBRANCH  13  14
ENDBRANCH  12  13
ENDBRANCH   1  12
TORSDOF 5
ENDMDL
MODEL 9
REMARK VINA RESULT:      -6.7      5.398      6.224
REMARK  Name = 153005
REMARK  5 active torsions:
REMARK  status: ('A' for Active; 'I' for Inactive)
REMARK    1  A    between atoms: C_1  and  C_12
REMARK    2  A    between atoms: C_4  and  O_7
REMARK    3  A    between atoms: O_7  and  S_8
REMARK    4  A    between atoms: C_12  and  C_13
REMARK    5  A    between atoms: C_13  and  N_14
REMARK                            x       y       z     vdW  Elec       q    Type
REMARK                         _______ _______ _______ _____ _____    ______ ____
ROOT
ATOM      1  C   UNL     1      34.450 -20.168 -20.490  0.00  0.00    -0.024 C 
ATOM      2  C   UNL     1      35.623 -20.843 -20.154  0.00  0.00    -0.001 C 
ATOM      3  C   UNL     1      33.225 -20.605 -19.984  0.00  0.00    -0.001 C 
ATOM      4  C   UNL     1      34.348 -22.392 -18.808  0.00  0.00    +0.176 C 
ATOM      5  C   UNL     1      35.573 -21.955 -19.314  0.00  0.00    +0.040 C 
ATOM      6  C   UNL     1      33.175 -21.716 -19.144  0.00  0.00    +0.040 C 
ENDROOT
BRANCH   4   7
ATOM      7  O   UNL     1      34.300 -23.476 -17.988  0.00  0.00    -0.322 OA
BRANCH   7   8
ATOM      8  S   UNL     1      34.722 -23.302 -16.408  0.00  0.00    +0.282 S 
ATOM      9  O   UNL     1      33.315 -22.935 -15.666  0.00  0.00    -0.105 OA
ATOM     10  O   UNL     1      35.175 -24.583 -15.898  0.00  0.00    -0.105 OA
ATOM     11  O   UNL     1      35.581 -22.137 -16.309  0.00  0.00    -0.012 OA
ENDBRANCH   7   8
ENDBRANCH   4   7
BRANCH   1  12
ATOM     12  C   UNL     1      34.504 -18.979 -21.389  0.00  0.00    +0.002 C 
BRANCH  12  13
ATOM     13  C   UNL     1      35.932 -18.436 -21.543  0.00  0.00    -0.081 C 
BRANCH  13  14
ATOM     14  N   UNL     1      36.209 -18.041 -22.920  0.00  0.00    +0.381 N 
ATOM     15  H   UNL     1      36.639 -17.116 -22.928  0.00  0.00    -0.089 HD
ATOM     16  H   UNL     1      35.338 -18.016 -23.449  0.00  0.00    -0.089 HD
ATOM     17  H   UNL     1      36.846 -18.716 -23.345  0.00  0.00    -0.089 HD
ENDBRANCH  13  14
ENDBRANCH  12  13
ENDBRANCH   1  12
TORSDOF 5
ENDMDL
