MODEL 1
REMARK VINA RESULT:     -11.5      0.000      0.000
REMARK  Name = 71479709
REMARK  6 active torsions:
REMARK  status: ('A' for Active; 'I' for Inactive)
REMARK    1  A    between atoms: N_1  and  C_25
REMARK    2  A    between atoms: C_5  and  C_9
REMARK    3  A    between atoms: C_14  and  O_15
REMARK    4  A    between atoms: O_15  and  C_16
REMARK    5  A    between atoms: C_25  and  C_28
REMARK    6  A    between atoms: C_33  and  C_34
REMARK                            x       y       z     vdW  Elec       q    Type
REMARK                         _______ _______ _______ _____ _____    ______ ____
ROOT
ATOM      1  N   UNL     1      36.949 -22.751 -15.738  0.00  0.00    -0.321 N 
ATOM      2  N   UNL     1      38.964 -23.925 -15.552  0.00  0.00    -0.233 NA
ATOM      3  N   UNL     1      39.091 -25.909 -14.190  0.00  0.00    -0.234 NA
ATOM      4  C   UNL     1      37.664 -23.819 -15.210  0.00  0.00    +0.113 C 
ATOM      5  C   UNL     1      37.015 -24.706 -14.375  0.00  0.00    +0.129 C 
ATOM      6  C   UNL     1      37.787 -25.741 -13.890  0.00  0.00    +0.110 C 
ATOM      7  C   UNL     1      39.608 -24.978 -15.015  0.00  0.00    +0.252 C 
ATOM      8  H   UNL     1      35.999 -22.664 -15.495  0.00  0.00    +0.148 HD
ATOM      9  N   UNL     1      37.188 -26.694 -13.027  0.00  0.00    -0.346 N 
ATOM     10  H   UNL     1      37.723 -27.440 -12.672  0.00  0.00    +0.143 HD
ATOM     11  H   UNL     1      36.238 -26.609 -12.785  0.00  0.00    +0.143 HD
ENDROOT
BRANCH   5  12
ATOM     12  C   UNL     1      35.614 -24.559 -14.031  0.00  0.00    -0.009 C 
ATOM     13  C   UNL     1      34.629 -24.850 -14.976  0.00  0.00    -0.000 C 
ATOM     14  C   UNL     1      35.250 -24.125 -12.757  0.00  0.00    -0.000 C 
ATOM     15  C   UNL     1      33.282 -24.707 -14.646  0.00  0.00    +0.037 C 
ATOM     16  C   UNL     1      33.903 -23.983 -12.426  0.00  0.00    +0.037 C 
ATOM     17  C   UNL     1      32.919 -24.273 -13.371  0.00  0.00    +0.145 C 
BRANCH  17  18
ATOM     18  O   UNL     1      31.604 -24.132 -13.049  0.00  0.00    -0.453 OA
BRANCH  18  19
ATOM     19  C   UNL     1      30.698 -23.989 -14.087  0.00  0.00    +0.145 C 
ATOM     20  C   UNL     1      30.583 -22.767 -14.750  0.00  0.00    +0.037 C 
ATOM     21  C   UNL     1      29.901 -25.067 -14.470  0.00  0.00    +0.037 C 
ATOM     22  C   UNL     1      29.672 -22.624 -15.796  0.00  0.00    +0.003 C 
ATOM     23  C   UNL     1      28.988 -24.924 -15.515  0.00  0.00    +0.003 C 
ATOM     24  C   UNL     1      28.874 -23.702 -16.178  0.00  0.00    +0.000 C 
ENDBRANCH  18  19
ENDBRANCH  17  18
ENDBRANCH   5  12
BRANCH   1  25
ATOM     25  C   UNL     1      37.517 -21.763 -16.617  0.00  0.00    +0.088 C 
BRANCH  25  28
ATOM     26  O   UNL     1      32.620 -20.653 -20.300  0.00  0.00    -0.270 OA
ATOM     27  N   UNL     1      34.896 -20.981 -19.956  0.00  0.00    -0.276 N 
ATOM     28  C   UNL     1      36.856 -21.856 -17.991  0.00  0.00    +0.023 C 
ATOM     29  C   UNL     1      35.367 -22.203 -17.860  0.00  0.00    +0.023 C 
ATOM     30  C   UNL     1      37.021 -20.542 -18.767  0.00  0.00    +0.023 C 
ATOM     31  C   UNL     1      34.692 -22.236 -19.229  0.00  0.00    +0.094 C 
ATOM     32  C   UNL     1      36.305 -20.588 -20.117  0.00  0.00    +0.094 C 
ATOM     33  C   UNL     1      33.789 -20.297 -20.452  0.00  0.00    +0.249 C 
BRANCH  33  34
ATOM     34  C   UNL     1      34.032 -19.059 -21.218  0.00  0.00    +0.058 C 
ATOM     35  C   UNL     1      34.395 -19.154 -22.499  0.00  0.00    +0.005 C 
ENDBRANCH  33  34
ENDBRANCH  25  28
ENDBRANCH   1  25
TORSDOF 6
ENDMDL
MODEL 2
REMARK VINA RESULT:     -11.0      7.067     13.302
REMARK  Name = 71479709
REMARK  6 active torsions:
REMARK  status: ('A' for Active; 'I' for Inactive)
REMARK    1  A    between atoms: N_1  and  C_25
REMARK    2  A    between atoms: C_5  and  C_9
REMARK    3  A    between atoms: C_14  and  O_15
REMARK    4  A    between atoms: O_15  and  C_16
REMARK    5  A    between atoms: C_25  and  C_28
REMARK    6  A    between atoms: C_33  and  C_34
REMARK                            x       y       z     vdW  Elec       q    Type
REMARK                         _______ _______ _______ _____ _____    ______ ____
ROOT
ATOM      1  N   UNL     1      34.544 -15.414 -22.095  0.00  0.00    -0.321 N 
ATOM      2  N   UNL     1      34.698 -16.904 -23.891  0.00  0.00    -0.233 NA
ATOM      3  N   UNL     1      33.725 -16.339 -26.023  0.00  0.00    -0.234 NA
ATOM      4  C   UNL     1      34.262 -15.718 -23.420  0.00  0.00    +0.113 C 
ATOM      5  C   UNL     1      33.561 -14.801 -24.178  0.00  0.00    +0.129 C 
ATOM      6  C   UNL     1      33.319 -15.171 -25.485  0.00  0.00    +0.110 C 
ATOM      7  C   UNL     1      34.400 -17.147 -25.182  0.00  0.00    +0.252 C 
ATOM      8  H   UNL     1      34.231 -14.550 -21.740  0.00  0.00    +0.148 HD
ATOM      9  N   UNL     1      32.606 -14.279 -26.326  0.00  0.00    -0.346 N 
ATOM     10  H   UNL     1      32.424 -14.524 -27.262  0.00  0.00    +0.143 HD
ATOM     11  H   UNL     1      32.293 -13.414 -25.974  0.00  0.00    +0.143 HD
ENDROOT
BRANCH   5  12
ATOM     12  C   UNL     1      33.111 -13.535 -23.636  0.00  0.00    -0.009 C 
ATOM     13  C   UNL     1      33.629 -12.339 -24.133  0.00  0.00    -0.000 C 
ATOM     14  C   UNL     1      32.159 -13.511 -22.616  0.00  0.00    -0.000 C 
ATOM     15  C   UNL     1      33.197 -11.121 -23.610  0.00  0.00    +0.037 C 
ATOM     16  C   UNL     1      31.727 -12.293 -22.094  0.00  0.00    +0.037 C 
ATOM     17  C   UNL     1      32.246 -11.097 -22.591  0.00  0.00    +0.145 C 
BRANCH  17  18
ATOM     18  O   UNL     1      31.825  -9.908 -22.079  0.00  0.00    -0.453 OA
BRANCH  18  19
ATOM     19  C   UNL     1      32.120  -8.759 -22.793  0.00  0.00    +0.145 C 
ATOM     20  C   UNL     1      33.399  -8.205 -22.727  0.00  0.00    +0.037 C 
ATOM     21  C   UNL     1      31.140  -8.155 -23.579  0.00  0.00    +0.037 C 
ATOM     22  C   UNL     1      33.697  -7.048 -23.447  0.00  0.00    +0.003 C 
ATOM     23  C   UNL     1      31.436  -6.998 -24.298  0.00  0.00    +0.003 C 
ATOM     24  C   UNL     1      32.715  -6.444 -24.233  0.00  0.00    +0.000 C 
ENDBRANCH  18  19
ENDBRANCH  17  18
ENDBRANCH   5  12
BRANCH   1  25
ATOM     25  C   UNL     1      35.266 -16.288 -21.208  0.00  0.00    +0.088 C 
BRANCH  25  28
ATOM     26  O   UNL     1      35.348 -22.275 -19.498  0.00  0.00    -0.270 OA
ATOM     27  N   UNL     1      34.374 -20.465 -20.586  0.00  0.00    -0.276 N 
ATOM     28  C   UNL     1      34.866 -17.738 -21.474  0.00  0.00    +0.023 C 
ATOM     29  C   UNL     1      36.013 -18.695 -21.124  0.00  0.00    +0.023 C 
ATOM     30  C   UNL     1      33.609 -18.113 -20.678  0.00  0.00    +0.023 C 
ATOM     31  C   UNL     1      35.594 -20.148 -21.332  0.00  0.00    +0.094 C 
ATOM     32  C   UNL     1      33.233 -19.582 -20.874  0.00  0.00    +0.094 C 
ATOM     33  C   UNL     1      34.374 -21.555 -19.718  0.00  0.00    +0.249 C 
BRANCH  33  34
ATOM     34  C   UNL     1      33.116 -21.873 -19.015  0.00  0.00    +0.058 C 
ATOM     35  C   UNL     1      33.149 -22.729 -17.991  0.00  0.00    +0.005 C 
ENDBRANCH  33  34
ENDBRANCH  25  28
ENDBRANCH   1  25
TORSDOF 6
ENDMDL
MODEL 3
REMARK VINA RESULT:     -10.8     10.763     16.664
REMARK  Name = 71479709
REMARK  6 active torsions:
REMARK  status: ('A' for Active; 'I' for Inactive)
REMARK    1  A    between atoms: N_1  and  C_25
REMARK    2  A    between atoms: C_5  and  C_9
REMARK    3  A    between atoms: C_14  and  O_15
REMARK    4  A    between atoms: O_15  and  C_16
REMARK    5  A    between atoms: C_25  and  C_28
REMARK    6  A    between atoms: C_33  and  C_34
REMARK                            x       y       z     vdW  Elec       q    Type
REMARK                         _______ _______ _______ _____ _____    ______ ____
ROOT
ATOM      1  N   UNL     1      32.043 -11.269 -22.451  0.00  0.00    -0.321 N 
ATOM      2  N   UNL     1      31.567 -11.488 -20.172  0.00  0.00    -0.233 NA
ATOM      3  N   UNL     1      31.623  -9.558 -18.729  0.00  0.00    -0.234 NA
ATOM      4  C   UNL     1      31.905 -10.683 -21.199  0.00  0.00    +0.113 C 
ATOM      5  C   UNL     1      32.116  -9.325 -21.073  0.00  0.00    +0.129 C 
ATOM      6  C   UNL     1      31.960  -8.813 -19.802  0.00  0.00    +0.110 C 
ATOM      7  C   UNL     1      31.444 -10.869 -18.982  0.00  0.00    +0.252 C 
ATOM      8  H   UNL     1      32.289 -10.690 -23.209  0.00  0.00    +0.148 HD
ATOM      9  N   UNL     1      32.159  -7.424 -19.595  0.00  0.00    -0.346 N 
ATOM     10  H   UNL     1      32.051  -7.040 -18.695  0.00  0.00    +0.143 HD
ATOM     11  H   UNL     1      32.403  -6.844 -20.352  0.00  0.00    +0.143 HD
ENDROOT
BRANCH   5  12
ATOM     12  C   UNL     1      32.477  -8.491 -22.203  0.00  0.00    -0.009 C 
ATOM     13  C   UNL     1      33.807  -8.121 -22.401  0.00  0.00    -0.000 C 
ATOM     14  C   UNL     1      31.493  -8.057 -23.092  0.00  0.00    -0.000 C 
ATOM     15  C   UNL     1      34.153  -7.318 -23.487  0.00  0.00    +0.037 C 
ATOM     16  C   UNL     1      31.840  -7.254 -24.178  0.00  0.00    +0.037 C 
ATOM     17  C   UNL     1      33.170  -6.884 -24.375  0.00  0.00    +0.145 C 
BRANCH  17  18
ATOM     18  O   UNL     1      33.508  -6.098 -25.434  0.00  0.00    -0.453 OA
BRANCH  18  19
ATOM     19  C   UNL     1      32.752  -4.960 -25.659  0.00  0.00    +0.145 C 
ATOM     20  C   UNL     1      32.002  -4.404 -24.623  0.00  0.00    +0.037 C 
ATOM     21  C   UNL     1      32.742  -4.367 -26.921  0.00  0.00    +0.037 C 
ATOM     22  C   UNL     1      31.242  -3.257 -24.849  0.00  0.00    +0.003 C 
ATOM     23  C   UNL     1      31.981  -3.221 -27.148  0.00  0.00    +0.003 C 
ATOM     24  C   UNL     1      31.231  -2.665 -26.112  0.00  0.00    +0.000 C 
ENDBRANCH  18  19
ENDBRANCH  17  18
ENDBRANCH   5  12
BRANCH   1  25
ATOM     25  C   UNL     1      31.849 -12.672 -22.705  0.00  0.00    +0.088 C 
BRANCH  25  28
ATOM     26  O   UNL     1      34.978 -17.704 -20.792  0.00  0.00    -0.270 OA
ATOM     27  N   UNL     1      34.716 -15.854 -22.177  0.00  0.00    -0.276 N 
ATOM     28  C   UNL     1      33.174 -13.413 -22.542  0.00  0.00    +0.023 C 
ATOM     29  C   UNL     1      33.231 -14.142 -21.193  0.00  0.00    +0.023 C 
ATOM     30  C   UNL     1      33.385 -14.415 -23.686  0.00  0.00    +0.023 C 
ATOM     31  C   UNL     1      34.529 -14.933 -21.054  0.00  0.00    +0.094 C 
ATOM     32  C   UNL     1      34.672 -15.220 -23.504  0.00  0.00    +0.094 C 
ATOM     33  C   UNL     1      34.948 -17.203 -21.916  0.00  0.00    +0.249 C 
BRANCH  33  34
ATOM     34  C   UNL     1      35.176 -18.097 -23.069  0.00  0.00    +0.058 C 
ATOM     35  C   UNL     1      34.851 -19.386 -22.958  0.00  0.00    +0.005 C 
ENDBRANCH  33  34
ENDBRANCH  25  28
ENDBRANCH   1  25
TORSDOF 6
ENDMDL
MODEL 4
REMARK VINA RESULT:     -10.8     10.773     16.661
REMARK  Name = 71479709
REMARK  6 active torsions:
REMARK  status: ('A' for Active; 'I' for Inactive)
REMARK    1  A    between atoms: N_1  and  C_25
REMARK    2  A    between atoms: C_5  and  C_9
REMARK    3  A    between atoms: C_14  and  O_15
REMARK    4  A    between atoms: O_15  and  C_16
REMARK    5  A    between atoms: C_25  and  C_28
REMARK    6  A    between atoms: C_33  and  C_34
REMARK                            x       y       z     vdW  Elec       q    Type
REMARK                         _______ _______ _______ _____ _____    ______ ____
ROOT
ATOM      1  N   UNL     1      32.055 -11.249 -22.451  0.00  0.00    -0.321 N 
ATOM      2  N   UNL     1      31.584 -11.465 -20.170  0.00  0.00    -0.233 NA
ATOM      3  N   UNL     1      31.648  -9.534 -18.729  0.00  0.00    -0.234 NA
ATOM      4  C   UNL     1      31.921 -10.662 -21.199  0.00  0.00    +0.113 C 
ATOM      5  C   UNL     1      32.136  -9.304 -21.075  0.00  0.00    +0.129 C 
ATOM      6  C   UNL     1      31.984  -8.790 -19.804  0.00  0.00    +0.110 C 
ATOM      7  C   UNL     1      31.466 -10.844 -18.980  0.00  0.00    +0.252 C 
ATOM      8  H   UNL     1      32.301 -10.672 -23.210  0.00  0.00    +0.148 HD
ATOM      9  N   UNL     1      32.186  -7.402 -19.599  0.00  0.00    -0.346 N 
ATOM     10  H   UNL     1      32.081  -7.017 -18.699  0.00  0.00    +0.143 HD
ATOM     11  H   UNL     1      32.430  -6.823 -20.357  0.00  0.00    +0.143 HD
ENDROOT
BRANCH   5  12
ATOM     12  C   UNL     1      32.496  -8.472 -22.207  0.00  0.00    -0.009 C 
ATOM     13  C   UNL     1      31.511  -8.038 -23.095  0.00  0.00    -0.000 C 
ATOM     14  C   UNL     1      33.826  -8.108 -22.409  0.00  0.00    -0.000 C 
ATOM     15  C   UNL     1      31.858  -7.240 -24.185  0.00  0.00    +0.037 C 
ATOM     16  C   UNL     1      34.173  -7.309 -23.498  0.00  0.00    +0.037 C 
ATOM     17  C   UNL     1      33.189  -6.876 -24.387  0.00  0.00    +0.145 C 
BRANCH  17  18
ATOM     18  O   UNL     1      33.528  -6.098 -25.451  0.00  0.00    -0.453 OA
BRANCH  18  19
ATOM     19  C   UNL     1      32.775  -4.959 -25.683  0.00  0.00    +0.145 C 
ATOM     20  C   UNL     1      32.770  -4.370 -26.948  0.00  0.00    +0.037 C 
ATOM     21  C   UNL     1      32.021  -4.400 -24.651  0.00  0.00    +0.037 C 
ATOM     22  C   UNL     1      32.011  -3.224 -27.181  0.00  0.00    +0.003 C 
ATOM     23  C   UNL     1      31.263  -3.253 -24.884  0.00  0.00    +0.003 C 
ATOM     24  C   UNL     1      31.258  -2.664 -26.149  0.00  0.00    +0.000 C 
ENDBRANCH  18  19
ENDBRANCH  17  18
ENDBRANCH   5  12
BRANCH   1  25
ATOM     25  C   UNL     1      31.858 -12.652 -22.703  0.00  0.00    +0.088 C 
BRANCH  25  28
ATOM     26  O   UNL     1      34.994 -17.689 -20.812  0.00  0.00    -0.270 OA
ATOM     27  N   UNL     1      34.725 -15.838 -22.195  0.00  0.00    -0.276 N 
ATOM     28  C   UNL     1      33.183 -13.395 -22.549  0.00  0.00    +0.023 C 
ATOM     29  C   UNL     1      33.248 -14.124 -21.200  0.00  0.00    +0.023 C 
ATOM     30  C   UNL     1      33.385 -14.397 -23.695  0.00  0.00    +0.023 C 
ATOM     31  C   UNL     1      34.546 -14.917 -21.070  0.00  0.00    +0.094 C 
ATOM     32  C   UNL     1      34.672 -15.203 -23.521  0.00  0.00    +0.094 C 
ATOM     33  C   UNL     1      34.956 -17.187 -21.936  0.00  0.00    +0.249 C 
BRANCH  33  34
ATOM     34  C   UNL     1      35.176 -18.081 -23.090  0.00  0.00    +0.058 C 
ATOM     35  C   UNL     1      34.874 -19.375 -22.969  0.00  0.00    +0.005 C 
ENDBRANCH  33  34
ENDBRANCH  25  28
ENDBRANCH   1  25
TORSDOF 6
ENDMDL
MODEL 5
REMARK VINA RESULT:     -10.5      2.399      6.856
REMARK  Name = 71479709
REMARK  6 active torsions:
REMARK  status: ('A' for Active; 'I' for Inactive)
REMARK    1  A    between atoms: N_1  and  C_25
REMARK    2  A    between atoms: C_5  and  C_9
REMARK    3  A    between atoms: C_14  and  O_15
REMARK    4  A    between atoms: O_15  and  C_16
REMARK    5  A    between atoms: C_25  and  C_28
REMARK    6  A    between atoms: C_33  and  C_34
REMARK                            x       y       z     vdW  Elec       q    Type
REMARK                         _______ _______ _______ _____ _____    ______ ____
ROOT
ATOM      1  N   UNL     1      33.778 -22.915 -14.935  0.00  0.00    -0.321 N 
ATOM      2  N   UNL     1      35.274 -23.694 -13.314  0.00  0.00    -0.233 NA
ATOM      3  N   UNL     1      37.616 -23.924 -13.836  0.00  0.00    -0.234 NA
ATOM      4  C   UNL     1      35.076 -23.254 -14.574  0.00  0.00    +0.113 C 
ATOM      5  C   UNL     1      36.082 -23.123 -15.509  0.00  0.00    +0.129 C 
ATOM      6  C   UNL     1      37.345 -23.477 -15.079  0.00  0.00    +0.110 C 
ATOM      7  C   UNL     1      36.550 -24.007 -13.017  0.00  0.00    +0.252 C 
ATOM      8  H   UNL     1      33.621 -22.592 -15.852  0.00  0.00    +0.148 HD
ATOM      9  N   UNL     1      38.431 -23.366 -15.985  0.00  0.00    -0.346 N 
ATOM     10  H   UNL     1      39.339 -23.613 -15.696  0.00  0.00    +0.143 HD
ATOM     11  H   UNL     1      38.276 -23.042 -16.901  0.00  0.00    +0.143 HD
ENDROOT
BRANCH   5  12
ATOM     12  C   UNL     1      35.829 -22.644 -16.854  0.00  0.00    -0.009 C 
ATOM     13  C   UNL     1      34.657 -23.010 -17.516  0.00  0.00    -0.000 C 
ATOM     14  C   UNL     1      36.759 -21.819 -17.487  0.00  0.00    -0.000 C 
ATOM     15  C   UNL     1      34.416 -22.551 -18.811  0.00  0.00    +0.037 C 
ATOM     16  C   UNL     1      36.517 -21.359 -18.781  0.00  0.00    +0.037 C 
ATOM     17  C   UNL     1      35.345 -21.726 -19.443  0.00  0.00    +0.145 C 
BRANCH  17  18
ATOM     18  O   UNL     1      35.110 -21.279 -20.707  0.00  0.00    -0.453 OA
BRANCH  18  19
ATOM     19  C   UNL     1      34.779 -19.944 -20.867  0.00  0.00    +0.145 C 
ATOM     20  C   UNL     1      33.447 -19.539 -20.776  0.00  0.00    +0.037 C 
ATOM     21  C   UNL     1      35.777 -19.003 -21.118  0.00  0.00    +0.037 C 
ATOM     22  C   UNL     1      33.114 -18.194 -20.935  0.00  0.00    +0.003 C 
ATOM     23  C   UNL     1      35.445 -17.658 -21.279  0.00  0.00    +0.003 C 
ATOM     24  C   UNL     1      34.113 -17.253 -21.188  0.00  0.00    +0.000 C 
ENDBRANCH  18  19
ENDBRANCH  17  18
ENDBRANCH   5  12
BRANCH   1  25
ATOM     25  C   UNL     1      32.648 -23.011 -14.048  0.00  0.00    +0.088 C 
BRANCH  25  28
ATOM     26  O   UNL     1      26.580 -22.741 -15.418  0.00  0.00    -0.270 OA
ATOM     27  N   UNL     1      28.778 -23.294 -15.937  0.00  0.00    -0.276 N 
ATOM     28  C   UNL     1      31.445 -23.569 -14.804  0.00  0.00    +0.023 C 
ATOM     29  C   UNL     1      30.188 -23.548 -13.923  0.00  0.00    +0.023 C 
ATOM     30  C   UNL     1      31.193 -22.776 -16.094  0.00  0.00    +0.023 C 
ATOM     31  C   UNL     1      28.971 -24.049 -14.696  0.00  0.00    +0.094 C 
ATOM     32  C   UNL     1      29.948 -23.273 -16.829  0.00  0.00    +0.094 C 
ATOM     33  C   UNL     1      27.541 -22.705 -16.187  0.00  0.00    +0.249 C 
BRANCH  33  34
ATOM     34  C   UNL     1      27.366 -21.989 -17.466  0.00  0.00    +0.058 C 
ATOM     35  C   UNL     1      26.236 -21.310 -17.675  0.00  0.00    +0.005 C 
ENDBRANCH  33  34
ENDBRANCH  25  28
ENDBRANCH   1  25
TORSDOF 6
ENDMDL
MODEL 6
REMARK VINA RESULT:     -10.4      2.350      3.775
REMARK  Name = 71479709
REMARK  6 active torsions:
REMARK  status: ('A' for Active; 'I' for Inactive)
REMARK    1  A    between atoms: N_1  and  C_25
REMARK    2  A    between atoms: C_5  and  C_9
REMARK    3  A    between atoms: C_14  and  O_15
REMARK    4  A    between atoms: O_15  and  C_16
REMARK    5  A    between atoms: C_25  and  C_28
REMARK    6  A    between atoms: C_33  and  C_34
REMARK                            x       y       z     vdW  Elec       q    Type
REMARK                         _______ _______ _______ _____ _____    ______ ____
ROOT
ATOM      1  N   UNL     1      33.623 -23.093 -17.837  0.00  0.00    -0.321 N 
ATOM      2  N   UNL     1      35.720 -23.157 -16.803  0.00  0.00    -0.233 NA
ATOM      3  N   UNL     1      35.887 -23.441 -14.415  0.00  0.00    -0.234 NA
ATOM      4  C   UNL     1      34.378 -23.210 -16.678  0.00  0.00    +0.113 C 
ATOM      5  C   UNL     1      33.726 -23.374 -15.472  0.00  0.00    +0.129 C 
ATOM      6  C   UNL     1      34.540 -23.484 -14.364  0.00  0.00    +0.110 C 
ATOM      7  C   UNL     1      36.403 -23.278 -15.649  0.00  0.00    +0.252 C 
ATOM      8  H   UNL     1      32.642 -23.130 -17.758  0.00  0.00    +0.148 HD
ATOM      9  N   UNL     1      33.941 -23.657 -13.090  0.00  0.00    -0.346 N 
ATOM     10  H   UNL     1      34.505 -23.738 -12.288  0.00  0.00    +0.143 HD
ATOM     11  H   UNL     1      32.960 -23.696 -13.009  0.00  0.00    +0.143 HD
ENDROOT
BRANCH   5  12
ATOM     12  C   UNL     1      32.280 -23.427 -15.378  0.00  0.00    -0.009 C 
ATOM     13  C   UNL     1      31.588 -24.534 -15.871  0.00  0.00    -0.000 C 
ATOM     14  C   UNL     1      31.579 -22.371 -14.796  0.00  0.00    -0.000 C 
ATOM     15  C   UNL     1      30.198 -24.584 -15.782  0.00  0.00    +0.037 C 
ATOM     16  C   UNL     1      30.189 -22.421 -14.706  0.00  0.00    +0.037 C 
ATOM     17  C   UNL     1      29.498 -23.528 -15.200  0.00  0.00    +0.145 C 
BRANCH  17  18
ATOM     18  O   UNL     1      28.140 -23.576 -15.114  0.00  0.00    -0.453 OA
BRANCH  18  19
ATOM     19  C   UNL     1      27.410 -22.827 -16.022  0.00  0.00    +0.145 C 
ATOM     20  C   UNL     1      26.337 -22.050 -15.583  0.00  0.00    +0.037 C 
ATOM     21  C   UNL     1      27.748 -22.848 -17.375  0.00  0.00    +0.037 C 
ATOM     22  C   UNL     1      25.603 -21.295 -16.497  0.00  0.00    +0.003 C 
ATOM     23  C   UNL     1      27.013 -22.094 -18.289  0.00  0.00    +0.003 C 
ATOM     24  C   UNL     1      25.940 -21.317 -17.851  0.00  0.00    +0.000 C 
ENDBRANCH  18  19
ENDBRANCH  17  18
ENDBRANCH   5  12
BRANCH   1  25
ATOM     25  C   UNL     1      34.190 -22.918 -19.149  0.00  0.00    +0.088 C 
BRANCH  25  28
ATOM     26  O   UNL     1      36.829 -18.470 -22.616  0.00  0.00    -0.270 OA
ATOM     27  N   UNL     1      35.201 -19.223 -21.136  0.00  0.00    -0.276 N 
ATOM     28  C   UNL     1      34.477 -21.438 -19.393  0.00  0.00    +0.023 C 
ATOM     29  C   UNL     1      35.914 -21.236 -19.893  0.00  0.00    +0.023 C 
ATOM     30  C   UNL     1      33.484 -20.848 -20.404  0.00  0.00    +0.023 C 
ATOM     31  C   UNL     1      36.184 -19.765 -20.196  0.00  0.00    +0.094 C 
ATOM     32  C   UNL     1      33.799 -19.385 -20.718  0.00  0.00    +0.094 C 
ATOM     33  C   UNL     1      35.646 -18.589 -22.294  0.00  0.00    +0.249 C 
BRANCH  33  34
ATOM     34  C   UNL     1      34.631 -18.016 -23.199  0.00  0.00    +0.058 C 
ATOM     35  C   UNL     1      34.660 -18.346 -24.492  0.00  0.00    +0.005 C 
ENDBRANCH  33  34
ENDBRANCH  25  28
ENDBRANCH   1  25
TORSDOF 6
ENDMDL
MODEL 7
REMARK VINA RESULT:      -9.9      6.283     12.366
REMARK  Name = 71479709
REMARK  6 active torsions:
REMARK  status: ('A' for Active; 'I' for Inactive)
REMARK    1  A    between atoms: N_1  and  C_25
REMARK    2  A    between atoms: C_5  and  C_9
REMARK    3  A    between atoms: C_14  and  O_15
REMARK    4  A    between atoms: O_15  and  C_16
REMARK    5  A    between atoms: C_25  and  C_28
REMARK    6  A    between atoms: C_33  and  C_34
REMARK                            x       y       z     vdW  Elec       q    Type
REMARK                         _______ _______ _______ _____ _____    ______ ____
ROOT
ATOM      1  N   UNL     1      34.597 -15.736 -22.058  0.00  0.00    -0.321 N 
ATOM      2  N   UNL     1      34.884 -17.411 -23.666  0.00  0.00    -0.233 NA
ATOM      3  N   UNL     1      34.152 -17.053 -25.935  0.00  0.00    -0.234 NA
ATOM      4  C   UNL     1      34.442 -16.172 -23.368  0.00  0.00    +0.113 C 
ATOM      5  C   UNL     1      33.853 -15.325 -24.285  0.00  0.00    +0.129 C 
ATOM      6  C   UNL     1      33.733 -15.825 -25.566  0.00  0.00    +0.110 C 
ATOM      7  C   UNL     1      34.710 -17.782 -24.949  0.00  0.00    +0.252 C 
ATOM      8  H   UNL     1      34.279 -14.833 -21.830  0.00  0.00    +0.148 HD
ATOM      9  N   UNL     1      33.139 -15.011 -26.564  0.00  0.00    -0.346 N 
ATOM     10  H   UNL     1      33.046 -15.350 -27.484  0.00  0.00    +0.143 HD
ATOM     11  H   UNL     1      32.822 -14.107 -26.337  0.00  0.00    +0.143 HD
ENDROOT
BRANCH   5  12
ATOM     12  C   UNL     1      33.392 -13.998 -23.927  0.00  0.00    -0.009 C 
ATOM     13  C   UNL     1      34.021 -12.873 -24.460  0.00  0.00    -0.000 C 
ATOM     14  C   UNL     1      32.320 -13.846 -23.048  0.00  0.00    -0.000 C 
ATOM     15  C   UNL     1      33.579 -11.597 -24.113  0.00  0.00    +0.037 C 
ATOM     16  C   UNL     1      31.877 -12.570 -22.701  0.00  0.00    +0.037 C 
ATOM     17  C   UNL     1      32.508 -11.445 -23.234  0.00  0.00    +0.145 C 
BRANCH  17  18
ATOM     18  O   UNL     1      32.076 -10.199 -22.894  0.00  0.00    -0.453 OA
BRANCH  18  19
ATOM     19  C   UNL     1      31.912  -9.919 -21.548  0.00  0.00    +0.145 C 
ATOM     20  C   UNL     1      32.355  -8.703 -21.028  0.00  0.00    +0.037 C 
ATOM     21  C   UNL     1      31.301 -10.853 -20.711  0.00  0.00    +0.037 C 
ATOM     22  C   UNL     1      32.188  -8.420 -19.673  0.00  0.00    +0.003 C 
ATOM     23  C   UNL     1      31.134 -10.571 -19.355  0.00  0.00    +0.003 C 
ATOM     24  C   UNL     1      31.578  -9.355 -18.836  0.00  0.00    +0.000 C 
ENDBRANCH  18  19
ENDBRANCH  17  18
ENDBRANCH   5  12
BRANCH   1  25
ATOM     25  C   UNL     1      35.195 -16.528 -21.016  0.00  0.00    +0.088 C 
BRANCH  25  28
ATOM     26  O   UNL     1      35.394 -22.429 -19.039  0.00  0.00    -0.270 OA
ATOM     27  N   UNL     1      34.454 -20.719 -20.304  0.00  0.00    -0.276 N 
ATOM     28  C   UNL     1      34.900 -18.006 -21.258  0.00  0.00    +0.023 C 
ATOM     29  C   UNL     1      36.049 -18.885 -20.745  0.00  0.00    +0.023 C 
ATOM     30  C   UNL     1      33.585 -18.419 -20.583  0.00  0.00    +0.023 C 
ATOM     31  C   UNL     1      35.730 -20.365 -20.930  0.00  0.00    +0.094 C 
ATOM     32  C   UNL     1      33.307 -19.913 -20.752  0.00  0.00    +0.094 C 
ATOM     33  C   UNL     1      34.414 -21.773 -19.394  0.00  0.00    +0.249 C 
BRANCH  33  34
ATOM     34  C   UNL     1      33.105 -22.132 -18.814  0.00  0.00    +0.058 C 
ATOM     35  C   UNL     1      33.071 -22.935 -17.748  0.00  0.00    +0.005 C 
ENDBRANCH  33  34
ENDBRANCH  25  28
ENDBRANCH   1  25
TORSDOF 6
ENDMDL
MODEL 8
REMARK VINA RESULT:      -9.5      8.247     14.520
REMARK  Name = 71479709
REMARK  6 active torsions:
REMARK  status: ('A' for Active; 'I' for Inactive)
REMARK    1  A    between atoms: N_1  and  C_25
REMARK    2  A    between atoms: C_5  and  C_9
REMARK    3  A    between atoms: C_14  and  O_15
REMARK    4  A    between atoms: O_15  and  C_16
REMARK    5  A    between atoms: C_25  and  C_28
REMARK    6  A    between atoms: C_33  and  C_34
REMARK                            x       y       z     vdW  Elec       q    Type
REMARK                         _______ _______ _______ _____ _____    ______ ____
ROOT
ATOM      1  N   UNL     1      34.383 -13.795 -22.515  0.00  0.00    -0.321 N 
ATOM      2  N   UNL     1      33.880 -15.514 -24.020  0.00  0.00    -0.233 NA
ATOM      3  N   UNL     1      33.212 -14.994 -26.276  0.00  0.00    -0.234 NA
ATOM      4  C   UNL     1      33.986 -14.190 -23.786  0.00  0.00    +0.113 C 
ATOM      5  C   UNL     1      33.725 -13.220 -24.733  0.00  0.00    +0.129 C 
ATOM      6  C   UNL     1      33.337 -13.686 -25.972  0.00  0.00    +0.110 C 
ATOM      7  C   UNL     1      33.494 -15.841 -25.268  0.00  0.00    +0.252 C 
ATOM      8  H   UNL     1      34.463 -12.831 -22.333  0.00  0.00    +0.148 HD
ATOM      9  N   UNL     1      33.055 -12.748 -26.998  0.00  0.00    -0.346 N 
ATOM     10  H   UNL     1      32.778 -13.061 -27.889  0.00  0.00    +0.143 HD
ATOM     11  H   UNL     1      33.137 -11.783 -26.818  0.00  0.00    +0.143 HD
ENDROOT
BRANCH   5  12
ATOM     12  C   UNL     1      33.852 -11.805 -24.444  0.00  0.00    -0.009 C 
ATOM     13  C   UNL     1      32.953 -11.187 -23.574  0.00  0.00    -0.000 C 
ATOM     14  C   UNL     1      34.871 -11.060 -25.038  0.00  0.00    -0.000 C 
ATOM     15  C   UNL     1      33.074  -9.825 -23.299  0.00  0.00    +0.037 C 
ATOM     16  C   UNL     1      34.992  -9.699 -24.761  0.00  0.00    +0.037 C 
ATOM     17  C   UNL     1      34.093  -9.081 -23.892  0.00  0.00    +0.145 C 
BRANCH  17  18
ATOM     18  O   UNL     1      34.210  -7.752 -23.624  0.00  0.00    -0.453 OA
BRANCH  18  19
ATOM     19  C   UNL     1      33.069  -7.070 -23.234  0.00  0.00    +0.145 C 
ATOM     20  C   UNL     1      32.748  -6.964 -21.881  0.00  0.00    +0.037 C 
ATOM     21  C   UNL     1      32.243  -6.488 -24.195  0.00  0.00    +0.037 C 
ATOM     22  C   UNL     1      31.600  -6.276 -21.489  0.00  0.00    +0.003 C 
ATOM     23  C   UNL     1      31.094  -5.801 -23.803  0.00  0.00    +0.003 C 
ATOM     24  C   UNL     1      30.772  -5.695 -22.449  0.00  0.00    +0.000 C 
ENDBRANCH  18  19
ENDBRANCH  17  18
ENDBRANCH   5  12
BRANCH   1  25
ATOM     25  C   UNL     1      34.681 -14.713 -21.447  0.00  0.00    +0.088 C 
BRANCH  25  28
ATOM     26  O   UNL     1      35.423 -20.868 -20.871  0.00  0.00    -0.270 OA
ATOM     27  N   UNL     1      34.139 -18.993 -21.367  0.00  0.00    -0.276 N 
ATOM     28  C   UNL     1      34.286 -16.129 -21.859  0.00  0.00    +0.023 C 
ATOM     29  C   UNL     1      35.522 -17.034 -21.961  0.00  0.00    +0.023 C 
ATOM     30  C   UNL     1      33.280 -16.727 -20.866  0.00  0.00    +0.023 C 
ATOM     31  C   UNL     1      35.124 -18.464 -22.313  0.00  0.00    +0.094 C 
ATOM     32  C   UNL     1      32.927 -18.172 -21.221  0.00  0.00    +0.094 C 
ATOM     33  C   UNL     1      34.395 -20.204 -20.727  0.00  0.00    +0.249 C 
BRANCH  33  34
ATOM     34  C   UNL     1      33.363 -20.731 -19.813  0.00  0.00    +0.058 C 
ATOM     35  C   UNL     1      33.600 -21.874 -19.165  0.00  0.00    +0.005 C 
ENDBRANCH  33  34
ENDBRANCH  25  28
ENDBRANCH   1  25
TORSDOF 6
ENDMDL
MODEL 9
REMARK VINA RESULT:      -9.5      8.163     13.284
REMARK  Name = 71479709
REMARK  6 active torsions:
REMARK  status: ('A' for Active; 'I' for Inactive)
REMARK    1  A    between atoms: N_1  and  C_25
REMARK    2  A    between atoms: C_5  and  C_9
REMARK    3  A    between atoms: C_14  and  O_15
REMARK    4  A    between atoms: O_15  and  C_16
REMARK    5  A    between atoms: C_25  and  C_28
REMARK    6  A    between atoms: C_33  and  C_34
REMARK                            x       y       z     vdW  Elec       q    Type
REMARK                         _______ _______ _______ _____ _____    ______ ____
ROOT
ATOM      1  N   UNL     1      34.258 -12.354 -24.478  0.00  0.00    -0.321 N 
ATOM      2  N   UNL     1      33.218 -12.387 -26.573  0.00  0.00    -0.233 NA
ATOM      3  N   UNL     1      32.395 -14.460 -27.487  0.00  0.00    -0.234 NA
ATOM      4  C   UNL     1      33.632 -13.073 -25.488  0.00  0.00    +0.113 C 
ATOM      5  C   UNL     1      33.465 -14.434 -25.331  0.00  0.00    +0.129 C 
ATOM      6  C   UNL     1      32.835 -15.082 -26.373  0.00  0.00    +0.110 C 
ATOM      7  C   UNL     1      32.617 -13.132 -27.520  0.00  0.00    +0.252 C 
ATOM      8  H   UNL     1      34.564 -12.845 -23.681  0.00  0.00    +0.148 HD
ATOM      9  N   UNL     1      32.626 -16.482 -26.282  0.00  0.00    -0.346 N 
ATOM     10  H   UNL     1      32.177 -16.961 -27.015  0.00  0.00    +0.143 HD
ATOM     11  H   UNL     1      32.930 -16.973 -25.485  0.00  0.00    +0.143 HD
ENDROOT
BRANCH   5  12
ATOM     12  C   UNL     1      33.922 -15.137 -24.148  0.00  0.00    -0.009 C 
ATOM     13  C   UNL     1      33.329 -14.880 -22.911  0.00  0.00    -0.000 C 
ATOM     14  C   UNL     1      34.956 -16.068 -24.245  0.00  0.00    -0.000 C 
ATOM     15  C   UNL     1      33.771 -15.554 -21.773  0.00  0.00    +0.037 C 
ATOM     16  C   UNL     1      35.397 -16.742 -23.107  0.00  0.00    +0.037 C 
ATOM     17  C   UNL     1      34.804 -16.485 -21.870  0.00  0.00    +0.145 C 
BRANCH  17  18
ATOM     18  O   UNL     1      35.236 -17.142 -20.759  0.00  0.00    -0.453 OA
BRANCH  18  19
ATOM     19  C   UNL     1      34.976 -18.499 -20.672  0.00  0.00    +0.145 C 
ATOM     20  C   UNL     1      36.028 -19.403 -20.519  0.00  0.00    +0.037 C 
ATOM     21  C   UNL     1      33.663 -18.963 -20.734  0.00  0.00    +0.037 C 
ATOM     22  C   UNL     1      35.766 -20.770 -20.429  0.00  0.00    +0.003 C 
ATOM     23  C   UNL     1      33.400 -20.330 -20.646  0.00  0.00    +0.003 C 
ATOM     24  C   UNL     1      34.452 -21.234 -20.494  0.00  0.00    +0.000 C 
ENDBRANCH  18  19
ENDBRANCH  17  18
ENDBRANCH   5  12
BRANCH   1  25
ATOM     25  C   UNL     1      34.488 -10.935 -24.529  0.00  0.00    +0.088 C 
BRANCH  25  28
ATOM     26  O   UNL     1      31.717  -8.805 -19.376  0.00  0.00    -0.270 OA
ATOM     27  N   UNL     1      32.153  -8.714 -21.659  0.00  0.00    -0.276 N 
ATOM     28  C   UNL     1      33.323 -10.199 -23.871  0.00  0.00    +0.023 C 
ATOM     29  C   UNL     1      32.913 -10.885 -22.561  0.00  0.00    +0.023 C 
ATOM     30  C   UNL     1      33.685  -8.732 -23.602  0.00  0.00    +0.023 C 
ATOM     31  C   UNL     1      31.790 -10.118 -21.870  0.00  0.00    +0.094 C 
ATOM     32  C   UNL     1      32.557  -7.995 -22.877  0.00  0.00    +0.094 C 
ATOM     33  C   UNL     1      32.059  -8.175 -20.378  0.00  0.00    +0.249 C 
BRANCH  33  34
ATOM     34  C   UNL     1      32.390  -6.747 -20.206  0.00  0.00    +0.058 C 
ATOM     35  C   UNL     1      31.615  -5.831 -20.791  0.00  0.00    +0.005 C 
ENDBRANCH  33  34
ENDBRANCH  25  28
ENDBRANCH   1  25
TORSDOF 6
ENDMDL
