MODEL 1
REMARK VINA RESULT:     -11.8      0.000      0.000
REMARK  Name = 4470566
REMARK  6 active torsions:
REMARK  status: ('A' for Active; 'I' for Inactive)
REMARK    1  A    between atoms: N_4  and  C_23
REMARK    2  A    between atoms: C_13  and  C_14
REMARK    3  A    between atoms: C_17  and  N_22
REMARK    4  A    between atoms: C_23  and  C_24
REMARK    5  A    between atoms: C_24  and  C_25
REMARK    6  A    between atoms: C_25  and  N_27
REMARK                            x       y       z     vdW  Elec       q    Type
REMARK                         _______ _______ _______ _____ _____    ______ ____
ROOT
ATOM      1  S   UNL     1      35.270 -18.739 -23.379  0.00  0.00    -0.086 S 
ATOM      2  S   UNL     1      32.636 -14.062 -20.669  0.00  0.00    -0.017 S 
ATOM      3  O   UNL     1      33.237 -13.412 -25.699  0.00  0.00    -0.268 OA
ATOM      4  N   UNL     1      32.817 -13.408 -23.365  0.00  0.00    -0.237 N 
ATOM      5  N   UNL     1      33.625 -15.350 -22.891  0.00  0.00    -0.244 N 
ATOM      6  C   UNL     1      33.792 -15.190 -24.228  0.00  0.00    +0.112 C 
ATOM      7  C   UNL     1      34.126 -16.575 -22.538  0.00  0.00    +0.064 C 
ATOM      8  C   UNL     1      33.017 -14.269 -22.271  0.00  0.00    +0.152 C 
ATOM      9  C   UNL     1      33.270 -13.917 -24.588  0.00  0.00    +0.268 C 
ATOM     10  C   UNL     1      34.602 -17.167 -23.685  0.00  0.00    +0.045 C 
ATOM     11  C   UNL     1      34.393 -16.280 -24.791  0.00  0.00    +0.028 C 
ATOM     12  C   UNL     1      34.286 -17.378 -21.377  0.00  0.00    +0.022 C 
ATOM     13  C   UNL     1      34.893 -18.571 -21.709  0.00  0.00    +0.031 C 
ENDROOT
BRANCH  13  14
ATOM     14  C   UNL     1      35.237 -19.665 -20.829  0.00  0.00    +0.008 C 
ATOM     15  C   UNL     1      34.246 -20.534 -20.380  0.00  0.00    +0.025 C 
ATOM     16  C   UNL     1      36.561 -19.846 -20.434  0.00  0.00    +0.001 C 
ATOM     17  C   UNL     1      34.579 -21.590 -19.532  0.00  0.00    +0.143 C 
ATOM     18  C   UNL     1      36.894 -20.902 -19.586  0.00  0.00    +0.002 C 
ATOM     19  C   UNL     1      35.903 -21.774 -19.136  0.00  0.00    +0.024 C 
BRANCH  17  22
ATOM     20  O   UNL     1      32.489 -21.999 -18.649  0.00  0.00    -0.126 OA
ATOM     21  O   UNL     1      33.787 -23.712 -19.098  0.00  0.00    -0.126 OA
ATOM     22  N   UNL     1      33.570 -22.476 -19.072  0.00  0.00    +0.058 N 
ENDBRANCH  17  22
ENDBRANCH  13  14
BRANCH   4  23
ATOM     23  C   UNL     1      32.197 -12.093 -23.271  0.00  0.00    +0.098 C 
BRANCH  23  24
ATOM     24  C   UNL     1      33.217 -10.958 -23.328  0.00  0.00    -0.001 C 
BRANCH  24  25
ATOM     25  C   UNL     1      32.633  -9.602 -23.734  0.00  0.00    -0.075 C 
BRANCH  25  27
ATOM     26  O   UNL     1      31.816  -6.789 -20.728  0.00  0.00    -0.358 OA
ATOM     27  N   UNL     1      32.812  -8.596 -22.689  0.00  0.00    +0.390 N 
ATOM     28  C   UNL     1      32.274  -9.073 -21.407  0.00  0.00    -0.045 C 
ATOM     29  C   UNL     1      32.166  -7.331 -23.066  0.00  0.00    -0.045 C 
ATOM     30  C   UNL     1      32.461  -8.002 -20.336  0.00  0.00    +0.119 C 
ATOM     31  C   UNL     1      32.357  -6.301 -21.956  0.00  0.00    +0.119 C 
ATOM     32  H   UNL     1      33.813  -8.431 -22.582  0.00  0.00    -0.079 HD
ENDBRANCH  25  27
ENDBRANCH  24  25
ENDBRANCH  23  24
ENDBRANCH   4  23
TORSDOF 6
ENDMDL
MODEL 2
REMARK VINA RESULT:     -11.0      4.516      7.937
REMARK  Name = 4470566
REMARK  6 active torsions:
REMARK  status: ('A' for Active; 'I' for Inactive)
REMARK    1  A    between atoms: N_4  and  C_23
REMARK    2  A    between atoms: C_13  and  C_14
REMARK    3  A    between atoms: C_17  and  N_22
REMARK    4  A    between atoms: C_23  and  C_24
REMARK    5  A    between atoms: C_24  and  C_25
REMARK    6  A    between atoms: C_25  and  N_27
REMARK                            x       y       z     vdW  Elec       q    Type
REMARK                         _______ _______ _______ _____ _____    ______ ____
ROOT
ATOM      1  S   UNL     1      34.595 -23.771 -15.884  0.00  0.00    -0.086 S 
ATOM      2  S   UNL     1      37.268 -20.216 -19.929  0.00  0.00    -0.017 S 
ATOM      3  O   UNL     1      32.267 -20.828 -20.763  0.00  0.00    -0.268 OA
ATOM      4  N   UNL     1      34.587 -20.348 -20.650  0.00  0.00    -0.237 N 
ATOM      5  N   UNL     1      35.066 -21.497 -18.889  0.00  0.00    -0.244 N 
ATOM      6  C   UNL     1      33.737 -21.669 -19.100  0.00  0.00    +0.112 C 
ATOM      7  C   UNL     1      35.422 -22.211 -17.777  0.00  0.00    +0.064 C 
ATOM      8  C   UNL     1      35.678 -20.677 -19.825  0.00  0.00    +0.152 C 
ATOM      9  C   UNL     1      33.373 -20.925 -20.257  0.00  0.00    +0.268 C 
ATOM     10  C   UNL     1      34.285 -22.826 -17.304  0.00  0.00    +0.045 C 
ATOM     11  C   UNL     1      33.182 -22.483 -18.154  0.00  0.00    +0.028 C 
ATOM     12  C   UNL     1      36.579 -22.488 -17.000  0.00  0.00    +0.022 C 
ATOM     13  C   UNL     1      36.253 -23.320 -15.950  0.00  0.00    +0.031 C 
ENDROOT
BRANCH  13  14
ATOM     14  C   UNL     1      37.133 -23.841 -14.927  0.00  0.00    +0.008 C 
ATOM     15  C   UNL     1      38.255 -24.583 -15.287  0.00  0.00    +0.025 C 
ATOM     16  C   UNL     1      36.854 -23.598 -13.584  0.00  0.00    +0.001 C 
ATOM     17  C   UNL     1      39.104 -25.083 -14.300  0.00  0.00    +0.143 C 
ATOM     18  C   UNL     1      37.703 -24.099 -12.597  0.00  0.00    +0.002 C 
ATOM     19  C   UNL     1      38.828 -24.841 -12.955  0.00  0.00    +0.024 C 
BRANCH  17  22
ATOM     20  O   UNL     1      40.906 -26.419 -13.767  0.00  0.00    -0.126 OA
ATOM     21  O   UNL     1      40.570 -25.911 -15.876  0.00  0.00    -0.126 OA
ATOM     22  N   UNL     1      40.248 -25.841 -14.665  0.00  0.00    +0.058 N 
ENDBRANCH  17  22
ENDBRANCH  13  14
BRANCH   4  23
ATOM     23  C   UNL     1      34.675 -19.486 -21.820  0.00  0.00    +0.098 C 
BRANCH  23  24
ATOM     24  C   UNL     1      34.603 -18.003 -21.462  0.00  0.00    -0.001 C 
BRANCH  24  25
ATOM     25  C   UNL     1      35.118 -17.062 -22.556  0.00  0.00    -0.075 C 
BRANCH  25  27
ATOM     26  O   UNL     1      32.432 -13.842 -22.724  0.00  0.00    -0.358 OA
ATOM     27  N   UNL     1      34.550 -15.721 -22.434  0.00  0.00    +0.390 N 
ATOM     28  C   UNL     1      33.390 -15.725 -21.532  0.00  0.00    -0.045 C 
ATOM     29  C   UNL     1      34.161 -15.198 -23.752  0.00  0.00    -0.045 C 
ATOM     30  C   UNL     1      32.807 -14.318 -21.431  0.00  0.00    +0.119 C 
ATOM     31  C   UNL     1      33.561 -13.803 -23.598  0.00  0.00    +0.119 C 
ATOM     32  H   UNL     1      35.267 -15.112 -22.041  0.00  0.00    -0.079 HD
ENDBRANCH  25  27
ENDBRANCH  24  25
ENDBRANCH  23  24
ENDBRANCH   4  23
TORSDOF 6
ENDMDL
MODEL 3
REMARK VINA RESULT:     -10.5      4.728      8.151
REMARK  Name = 4470566
REMARK  6 active torsions:
REMARK  status: ('A' for Active; 'I' for Inactive)
REMARK    1  A    between atoms: N_4  and  C_23
REMARK    2  A    between atoms: C_13  and  C_14
REMARK    3  A    between atoms: C_17  and  N_22
REMARK    4  A    between atoms: C_23  and  C_24
REMARK    5  A    between atoms: C_24  and  C_25
REMARK    6  A    between atoms: C_25  and  N_27
REMARK                            x       y       z     vdW  Elec       q    Type
REMARK                         _______ _______ _______ _____ _____    ______ ____
ROOT
ATOM      1  S   UNL     1      33.532 -23.813 -15.818  0.00  0.00    -0.086 S 
ATOM      2  S   UNL     1      37.154 -20.854 -19.596  0.00  0.00    -0.017 S 
ATOM      3  O   UNL     1      32.220 -20.571 -20.883  0.00  0.00    -0.268 OA
ATOM      4  N   UNL     1      34.569 -20.513 -20.558  0.00  0.00    -0.237 N 
ATOM      5  N   UNL     1      34.673 -21.704 -18.763  0.00  0.00    -0.244 N 
ATOM      6  C   UNL     1      33.359 -21.638 -19.094  0.00  0.00    +0.112 C 
ATOM      7  C   UNL     1      34.793 -22.454 -17.624  0.00  0.00    +0.064 C 
ATOM      8  C   UNL     1      35.504 -21.020 -19.638  0.00  0.00    +0.152 C 
ATOM      9  C   UNL     1      33.240 -20.858 -20.278  0.00  0.00    +0.268 C 
ATOM     10  C   UNL     1      33.526 -22.848 -17.259  0.00  0.00    +0.045 C 
ATOM     11  C   UNL     1      32.584 -22.325 -18.204  0.00  0.00    +0.028 C 
ATOM     12  C   UNL     1      35.807 -22.923 -16.746  0.00  0.00    +0.022 C 
ATOM     13  C   UNL     1      35.244 -23.668 -15.731  0.00  0.00    +0.031 C 
ENDROOT
BRANCH  13  14
ATOM     14  C   UNL     1      35.920 -24.324 -14.634  0.00  0.00    +0.008 C 
ATOM     15  C   UNL     1      35.912 -23.744 -13.367  0.00  0.00    +0.025 C 
ATOM     16  C   UNL     1      36.575 -25.534 -14.848  0.00  0.00    +0.001 C 
ATOM     17  C   UNL     1      36.562 -24.378 -12.309  0.00  0.00    +0.143 C 
ATOM     18  C   UNL     1      37.226 -26.167 -13.789  0.00  0.00    +0.002 C 
ATOM     19  C   UNL     1      37.219 -25.589 -12.520  0.00  0.00    +0.024 C 
BRANCH  17  22
ATOM     20  O   UNL     1      37.264 -22.772 -10.810  0.00  0.00    -0.126 OA
ATOM     21  O   UNL     1      35.846 -24.299 -10.118  0.00  0.00    -0.126 OA
ATOM     22  N   UNL     1      36.557 -23.788 -11.018  0.00  0.00    +0.058 N 
ENDBRANCH  17  22
ENDBRANCH  13  14
BRANCH   4  23
ATOM     23  C   UNL     1      34.915 -19.698 -21.714  0.00  0.00    +0.098 C 
BRANCH  23  24
ATOM     24  C   UNL     1      35.055 -18.217 -21.366  0.00  0.00    -0.001 C 
BRANCH  24  25
ATOM     25  C   UNL     1      35.632 -17.354 -22.492  0.00  0.00    -0.075 C 
BRANCH  25  27
ATOM     26  O   UNL     1      32.659 -14.396 -22.648  0.00  0.00    -0.358 OA
ATOM     27  N   UNL     1      34.973 -16.053 -22.574  0.00  0.00    +0.390 N 
ATOM     28  C   UNL     1      34.174 -15.794 -21.368  0.00  0.00    -0.045 C 
ATOM     29  C   UNL     1      34.120 -15.975 -23.769  0.00  0.00    -0.045 C 
ATOM     30  C   UNL     1      33.485 -14.437 -21.483  0.00  0.00    +0.119 C 
ATOM     31  C   UNL     1      33.434 -14.613 -23.828  0.00  0.00    +0.119 C 
ATOM     32  H   UNL     1      35.697 -15.339 -22.645  0.00  0.00    -0.079 HD
ENDBRANCH  25  27
ENDBRANCH  24  25
ENDBRANCH  23  24
ENDBRANCH   4  23
TORSDOF 6
ENDMDL
MODEL 4
REMARK VINA RESULT:     -10.4      2.379      3.903
REMARK  Name = 4470566
REMARK  6 active torsions:
REMARK  status: ('A' for Active; 'I' for Inactive)
REMARK    1  A    between atoms: N_4  and  C_23
REMARK    2  A    between atoms: C_13  and  C_14
REMARK    3  A    between atoms: C_17  and  N_22
REMARK    4  A    between atoms: C_23  and  C_24
REMARK    5  A    between atoms: C_24  and  C_25
REMARK    6  A    between atoms: C_25  and  N_27
REMARK                            x       y       z     vdW  Elec       q    Type
REMARK                         _______ _______ _______ _____ _____    ______ ____
ROOT
ATOM      1  S   UNL     1      32.701 -15.394 -20.909  0.00  0.00    -0.086 S 
ATOM      2  S   UNL     1      34.281 -11.608 -25.304  0.00  0.00    -0.017 S 
ATOM      3  O   UNL     1      31.297  -9.461 -21.758  0.00  0.00    -0.268 OA
ATOM      4  N   UNL     1      32.680 -10.156 -23.555  0.00  0.00    -0.237 N 
ATOM      5  N   UNL     1      32.972 -12.209 -22.959  0.00  0.00    -0.244 N 
ATOM      6  C   UNL     1      32.178 -11.651 -22.011  0.00  0.00    +0.112 C 
ATOM      7  C   UNL     1      33.187 -13.519 -22.625  0.00  0.00    +0.064 C 
ATOM      8  C   UNL     1      33.333 -11.331 -23.970  0.00  0.00    +0.152 C 
ATOM      9  C   UNL     1      31.957 -10.291 -22.363  0.00  0.00    +0.268 C 
ATOM     10  C   UNL     1      32.511 -13.758 -21.451  0.00  0.00    +0.045 C 
ATOM     11  C   UNL     1      31.851 -12.554 -21.039  0.00  0.00    +0.028 C 
ATOM     12  C   UNL     1      33.881 -14.656 -23.121  0.00  0.00    +0.022 C 
ATOM     13  C   UNL     1      33.691 -15.728 -22.275  0.00  0.00    +0.031 C 
ENDROOT
BRANCH  13  14
ATOM     14  C   UNL     1      34.219 -17.068 -22.411  0.00  0.00    +0.008 C 
ATOM     15  C   UNL     1      34.182 -17.943 -21.329  0.00  0.00    +0.025 C 
ATOM     16  C   UNL     1      34.763 -17.477 -23.627  0.00  0.00    +0.001 C 
ATOM     17  C   UNL     1      34.690 -19.235 -21.461  0.00  0.00    +0.143 C 
ATOM     18  C   UNL     1      35.272 -18.769 -23.759  0.00  0.00    +0.002 C 
ATOM     19  C   UNL     1      35.235 -19.648 -22.677  0.00  0.00    +0.024 C 
BRANCH  17  22
ATOM     20  O   UNL     1      35.732 -20.456 -19.806  0.00  0.00    -0.126 OA
ATOM     21  O   UNL     1      33.545 -20.567 -19.967  0.00  0.00    -0.126 OA
ATOM     22  N   UNL     1      34.654 -20.128 -20.359  0.00  0.00    +0.058 N 
ENDBRANCH  17  22
ENDBRANCH  13  14
BRANCH   4  23
ATOM     23  C   UNL     1      32.729  -8.892 -24.277  0.00  0.00    +0.098 C 
BRANCH  23  24
ATOM     24  C   UNL     1      33.885  -8.003 -23.824  0.00  0.00    -0.001 C 
BRANCH  24  25
ATOM     25  C   UNL     1      33.540  -7.054 -22.673  0.00  0.00    -0.075 C 
BRANCH  25  27
ATOM     26  O   UNL     1      30.453  -4.214 -22.802  0.00  0.00    -0.358 OA
ATOM     27  N   UNL     1      32.225  -6.441 -22.846  0.00  0.00    +0.390 N 
ATOM     28  C   UNL     1      32.264  -5.407 -23.889  0.00  0.00    -0.045 C 
ATOM     29  C   UNL     1      31.748  -5.863 -21.582  0.00  0.00    -0.045 C 
ATOM     30  C   UNL     1      30.884  -4.773 -24.043  0.00  0.00    +0.119 C 
ATOM     31  C   UNL     1      30.380  -5.219 -21.790  0.00  0.00    +0.119 C 
ATOM     32  H   UNL     1      31.575  -7.172 -23.135  0.00  0.00    -0.079 HD
ENDBRANCH  25  27
ENDBRANCH  24  25
ENDBRANCH  23  24
ENDBRANCH   4  23
TORSDOF 6
ENDMDL
MODEL 5
REMARK VINA RESULT:     -10.4      2.019     10.515
REMARK  Name = 4470566
REMARK  6 active torsions:
REMARK  status: ('A' for Active; 'I' for Inactive)
REMARK    1  A    between atoms: N_4  and  C_23
REMARK    2  A    between atoms: C_13  and  C_14
REMARK    3  A    between atoms: C_17  and  N_22
REMARK    4  A    between atoms: C_23  and  C_24
REMARK    5  A    between atoms: C_24  and  C_25
REMARK    6  A    between atoms: C_25  and  N_27
REMARK                            x       y       z     vdW  Elec       q    Type
REMARK                         _______ _______ _______ _____ _____    ______ ____
ROOT
ATOM      1  S   UNL     1      33.409 -12.187 -25.847  0.00  0.00    -0.086 S 
ATOM      2  S   UNL     1      34.851 -15.757 -21.229  0.00  0.00    -0.017 S 
ATOM      3  O   UNL     1      33.890 -18.317 -25.544  0.00  0.00    -0.268 OA
ATOM      4  N   UNL     1      34.392 -17.430 -23.402  0.00  0.00    -0.237 N 
ATOM      5  N   UNL     1      34.137 -15.337 -23.854  0.00  0.00    -0.244 N 
ATOM      6  C   UNL     1      33.878 -16.004 -25.006  0.00  0.00    +0.112 C 
ATOM      7  C   UNL     1      33.986 -13.997 -24.089  0.00  0.00    +0.064 C 
ATOM      8  C   UNL     1      34.469 -16.165 -22.792  0.00  0.00    +0.152 C 
ATOM      9  C   UNL     1      34.035 -17.396 -24.756  0.00  0.00    +0.268 C 
ATOM     10  C   UNL     1      33.632 -13.851 -25.410  0.00  0.00    +0.045 C 
ATOM     11  C   UNL     1      33.557 -15.146 -26.019  0.00  0.00    +0.028 C 
ATOM     12  C   UNL     1      34.089 -12.763 -23.391  0.00  0.00    +0.022 C 
ATOM     13  C   UNL     1      33.799 -11.716 -24.240  0.00  0.00    +0.031 C 
ENDROOT
BRANCH  13  14
ATOM     14  C   UNL     1      33.788 -10.303 -23.932  0.00  0.00    +0.008 C 
ATOM     15  C   UNL     1      32.773  -9.772 -23.139  0.00  0.00    +0.025 C 
ATOM     16  C   UNL     1      34.794  -9.478 -24.429  0.00  0.00    +0.001 C 
ATOM     17  C   UNL     1      32.765  -8.410 -22.841  0.00  0.00    +0.143 C 
ATOM     18  C   UNL     1      34.785  -8.115 -24.131  0.00  0.00    +0.002 C 
ATOM     19  C   UNL     1      33.770  -7.582 -23.337  0.00  0.00    +0.024 C 
BRANCH  17  22
ATOM     20  O   UNL     1      31.735  -8.101 -20.801  0.00  0.00    -0.126 OA
ATOM     21  O   UNL     1      30.839  -7.169 -22.576  0.00  0.00    -0.126 OA
ATOM     22  N   UNL     1      31.730  -7.867 -22.034  0.00  0.00    +0.058 N 
ENDBRANCH  17  22
ENDBRANCH  13  14
BRANCH   4  23
ATOM     23  C   UNL     1      34.654 -18.688 -22.716  0.00  0.00    +0.098 C 
BRANCH  23  24
ATOM     24  C   UNL     1      33.931 -18.785 -21.374  0.00  0.00    -0.001 C 
BRANCH  24  25
ATOM     25  C   UNL     1      33.429 -20.189 -21.026  0.00  0.00    -0.075 C 
BRANCH  25  27
ATOM     26  O   UNL     1      35.474 -22.721 -18.375  0.00  0.00    -0.358 OA
ATOM     27  N   UNL     1      34.065 -20.712 -19.818  0.00  0.00    +0.390 N 
ATOM     28  C   UNL     1      35.495 -20.963 -20.047  0.00  0.00    -0.045 C 
ATOM     29  C   UNL     1      33.403 -21.946 -19.372  0.00  0.00    -0.045 C 
ATOM     30  C   UNL     1      36.133 -21.519 -18.777  0.00  0.00    +0.119 C 
ATOM     31  C   UNL     1      34.090 -22.479 -18.118  0.00  0.00    +0.119 C 
ATOM     32  H   UNL     1      33.970 -20.009 -19.085  0.00  0.00    -0.079 HD
ENDBRANCH  25  27
ENDBRANCH  24  25
ENDBRANCH  23  24
ENDBRANCH   4  23
TORSDOF 6
ENDMDL
MODEL 6
REMARK VINA RESULT:     -10.2      4.112      7.308
REMARK  Name = 4470566
REMARK  6 active torsions:
REMARK  status: ('A' for Active; 'I' for Inactive)
REMARK    1  A    between atoms: N_4  and  C_23
REMARK    2  A    between atoms: C_13  and  C_14
REMARK    3  A    between atoms: C_17  and  N_22
REMARK    4  A    between atoms: C_23  and  C_24
REMARK    5  A    between atoms: C_24  and  C_25
REMARK    6  A    between atoms: C_25  and  N_27
REMARK                            x       y       z     vdW  Elec       q    Type
REMARK                         _______ _______ _______ _____ _____    ______ ____
ROOT
ATOM      1  S   UNL     1      34.422 -23.306 -16.438  0.00  0.00    -0.086 S 
ATOM      2  S   UNL     1      32.703 -19.931 -21.108  0.00  0.00    -0.017 S 
ATOM      3  O   UNL     1      37.771 -20.110 -20.496  0.00  0.00    -0.268 OA
ATOM      4  N   UNL     1      35.481 -19.828 -21.044  0.00  0.00    -0.237 N 
ATOM      5  N   UNL     1      34.625 -21.037 -19.477  0.00  0.00    -0.244 N 
ATOM      6  C   UNL     1      35.969 -21.093 -19.303  0.00  0.00    +0.112 C 
ATOM      7  C   UNL     1      34.032 -21.793 -18.502  0.00  0.00    +0.064 C 
ATOM      8  C   UNL     1      34.234 -20.258 -20.555  0.00  0.00    +0.152 C 
ATOM      9  C   UNL     1      36.579 -20.306 -20.319  0.00  0.00    +0.268 C 
ATOM     10  C   UNL     1      35.038 -22.318 -17.723  0.00  0.00    +0.045 C 
ATOM     11  C   UNL     1      36.302 -21.871 -18.231  0.00  0.00    +0.028 C 
ATOM     12  C   UNL     1      32.731 -22.178 -18.080  0.00  0.00    +0.022 C 
ATOM     13  C   UNL     1      32.817 -22.996 -16.974  0.00  0.00    +0.031 C 
ENDROOT
BRANCH  13  14
ATOM     14  C   UNL     1      31.733 -23.605 -16.235  0.00  0.00    +0.008 C 
ATOM     15  C   UNL     1      30.417 -23.422 -16.655  0.00  0.00    +0.025 C 
ATOM     16  C   UNL     1      32.009 -24.373 -15.106  0.00  0.00    +0.001 C 
ATOM     17  C   UNL     1      29.372 -24.011 -15.943  0.00  0.00    +0.143 C 
ATOM     18  C   UNL     1      30.964 -24.961 -14.394  0.00  0.00    +0.002 C 
ATOM     19  C   UNL     1      29.646 -24.780 -14.813  0.00  0.00    +0.024 C 
BRANCH  17  22
ATOM     20  O   UNL     1      27.240 -23.191 -15.628  0.00  0.00    -0.126 OA
ATOM     21  O   UNL     1      27.672 -24.300 -17.473  0.00  0.00    -0.126 OA
ATOM     22  N   UNL     1      28.031 -23.825 -16.369  0.00  0.00    +0.058 N 
ENDBRANCH  17  22
ENDBRANCH  13  14
BRANCH   4  23
ATOM     23  C   UNL     1      35.653 -18.959 -22.200  0.00  0.00    +0.098 C 
BRANCH  23  24
ATOM     24  C   UNL     1      35.384 -17.491 -21.876  0.00  0.00    -0.001 C 
BRANCH  24  25
ATOM     25  C   UNL     1      34.960 -16.644 -23.080  0.00  0.00    -0.075 C 
BRANCH  25  27
ATOM     26  O   UNL     1      32.190 -13.569 -22.385  0.00  0.00    -0.358 OA
ATOM     27  N   UNL     1      34.377 -15.368 -22.671  0.00  0.00    +0.390 N 
ATOM     28  C   UNL     1      33.344 -15.570 -21.645  0.00  0.00    -0.045 C 
ATOM     29  C   UNL     1      33.807 -14.661 -23.826  0.00  0.00    -0.045 C 
ATOM     30  C   UNL     1      32.742 -14.226 -21.243  0.00  0.00    +0.119 C 
ATOM     31  C   UNL     1      33.195 -13.338 -23.373  0.00  0.00    +0.119 C 
ATOM     32  H   UNL     1      35.123 -14.796 -22.275  0.00  0.00    -0.079 HD
ENDBRANCH  25  27
ENDBRANCH  24  25
ENDBRANCH  23  24
ENDBRANCH   4  23
TORSDOF 6
ENDMDL
MODEL 7
REMARK VINA RESULT:     -10.1      2.787     11.192
REMARK  Name = 4470566
REMARK  6 active torsions:
REMARK  status: ('A' for Active; 'I' for Inactive)
REMARK    1  A    between atoms: N_4  and  C_23
REMARK    2  A    between atoms: C_13  and  C_14
REMARK    3  A    between atoms: C_17  and  N_22
REMARK    4  A    between atoms: C_23  and  C_24
REMARK    5  A    between atoms: C_24  and  C_25
REMARK    6  A    between atoms: C_25  and  N_27
REMARK                            x       y       z     vdW  Elec       q    Type
REMARK                         _______ _______ _______ _____ _____    ______ ____
ROOT
ATOM      1  S   UNL     1      31.600 -10.018 -20.641  0.00  0.00    -0.086 S 
ATOM      2  S   UNL     1      33.654 -12.551 -25.692  0.00  0.00    -0.017 S 
ATOM      3  O   UNL     1      32.863 -15.905 -21.921  0.00  0.00    -0.268 OA
ATOM      4  N   UNL     1      33.329 -14.613 -23.855  0.00  0.00    -0.237 N 
ATOM      5  N   UNL     1      32.795 -12.672 -23.080  0.00  0.00    -0.244 N 
ATOM      6  C   UNL     1      32.581 -13.552 -22.070  0.00  0.00    +0.112 C 
ATOM      7  C   UNL     1      32.469 -11.419 -22.636  0.00  0.00    +0.064 C 
ATOM      8  C   UNL     1      33.268 -13.262 -24.243  0.00  0.00    +0.152 C 
ATOM      9  C   UNL     1      32.921 -14.852 -22.537  0.00  0.00    +0.268 C 
ATOM     10  C   UNL     1      32.048 -11.544 -21.332  0.00  0.00    +0.045 C 
ATOM     11  C   UNL     1      32.116 -12.924 -20.950  0.00  0.00    +0.028 C 
ATOM     12  C   UNL     1      32.439 -10.082 -23.115  0.00  0.00    +0.022 C 
ATOM     13  C   UNL     1      31.986  -9.237 -22.124  0.00  0.00    +0.031 C 
ENDROOT
BRANCH  13  14
ATOM     14  C   UNL     1      31.806  -7.803 -22.195  0.00  0.00    +0.008 C 
ATOM     15  C   UNL     1      31.711  -7.176 -23.435  0.00  0.00    +0.025 C 
ATOM     16  C   UNL     1      31.727  -7.056 -21.023  0.00  0.00    +0.001 C 
ATOM     17  C   UNL     1      31.535  -5.794 -23.503  0.00  0.00    +0.143 C 
ATOM     18  C   UNL     1      31.552  -5.674 -21.091  0.00  0.00    +0.002 C 
ATOM     19  C   UNL     1      31.456  -5.043 -22.331  0.00  0.00    +0.024 C 
BRANCH  17  22
ATOM     20  O   UNL     1      32.295  -5.412 -25.646  0.00  0.00    -0.126 OA
ATOM     21  O   UNL     1      30.502  -4.342 -24.967  0.00  0.00    -0.126 OA
ATOM     22  N   UNL     1      31.439  -5.152 -24.766  0.00  0.00    +0.058 N 
ENDBRANCH  17  22
ENDBRANCH  13  14
BRANCH   4  23
ATOM     23  C   UNL     1      33.774 -15.695 -24.722  0.00  0.00    +0.098 C 
BRANCH  23  24
ATOM     24  C   UNL     1      35.056 -16.358 -24.221  0.00  0.00    -0.001 C 
BRANCH  24  25
ATOM     25  C   UNL     1      34.939 -17.868 -23.991  0.00  0.00    -0.075 C 
BRANCH  25  27
ATOM     26  O   UNL     1      35.555 -19.996 -20.427  0.00  0.00    -0.358 OA
ATOM     27  N   UNL     1      34.998 -18.209 -22.572  0.00  0.00    +0.390 N 
ATOM     28  C   UNL     1      36.377 -18.517 -22.165  0.00  0.00    -0.045 C 
ATOM     29  C   UNL     1      34.119 -19.349 -22.272  0.00  0.00    -0.045 C 
ATOM     30  C   UNL     1      36.411 -18.883 -20.684  0.00  0.00    +0.119 C 
ATOM     31  C   UNL     1      34.207 -19.694 -20.788  0.00  0.00    +0.119 C 
ATOM     32  H   UNL     1      34.674 -17.401 -22.042  0.00  0.00    -0.079 HD
ENDBRANCH  25  27
ENDBRANCH  24  25
ENDBRANCH  23  24
ENDBRANCH   4  23
TORSDOF 6
ENDMDL
MODEL 8
REMARK VINA RESULT:      -9.9      3.088      5.325
REMARK  Name = 4470566
REMARK  6 active torsions:
REMARK  status: ('A' for Active; 'I' for Inactive)
REMARK    1  A    between atoms: N_4  and  C_23
REMARK    2  A    between atoms: C_13  and  C_14
REMARK    3  A    between atoms: C_17  and  N_22
REMARK    4  A    between atoms: C_23  and  C_24
REMARK    5  A    between atoms: C_24  and  C_25
REMARK    6  A    between atoms: C_25  and  N_27
REMARK                            x       y       z     vdW  Elec       q    Type
REMARK                         _______ _______ _______ _____ _____    ______ ____
ROOT
ATOM      1  S   UNL     1      32.326 -14.267 -21.991  0.00  0.00    -0.086 S 
ATOM      2  S   UNL     1      35.119  -9.945 -25.099  0.00  0.00    -0.017 S 
ATOM      3  O   UNL     1      31.483  -8.170 -21.983  0.00  0.00    -0.268 OA
ATOM      4  N   UNL     1      33.221  -8.672 -23.516  0.00  0.00    -0.237 N 
ATOM      5  N   UNL     1      33.251 -10.815 -23.275  0.00  0.00    -0.244 N 
ATOM      6  C   UNL     1      32.282 -10.357 -22.444  0.00  0.00    +0.112 C 
ATOM      7  C   UNL     1      33.310 -12.178 -23.159  0.00  0.00    +0.064 C 
ATOM      8  C   UNL     1      33.892  -9.814 -23.989  0.00  0.00    +0.152 C 
ATOM      9  C   UNL     1      32.225  -8.941 -22.569  0.00  0.00    +0.268 C 
ATOM     10  C   UNL     1      32.358 -12.551 -22.237  0.00  0.00    +0.045 C 
ATOM     11  C   UNL     1      31.682 -11.379 -21.764  0.00  0.00    +0.028 C 
ATOM     12  C   UNL     1      34.042 -13.273 -23.692  0.00  0.00    +0.022 C 
ATOM     13  C   UNL     1      33.597 -14.453 -23.134  0.00  0.00    +0.031 C 
ENDROOT
BRANCH  13  14
ATOM     14  C   UNL     1      34.072 -15.793 -23.401  0.00  0.00    +0.008 C 
ATOM     15  C   UNL     1      34.398 -16.638 -22.343  0.00  0.00    +0.025 C 
ATOM     16  C   UNL     1      34.200 -16.234 -24.716  0.00  0.00    +0.001 C 
ATOM     17  C   UNL     1      34.853 -17.931 -22.601  0.00  0.00    +0.143 C 
ATOM     18  C   UNL     1      34.656 -17.526 -24.974  0.00  0.00    +0.002 C 
ATOM     19  C   UNL     1      34.982 -18.374 -23.916  0.00  0.00    +0.024 C 
BRANCH  17  22
ATOM     20  O   UNL     1      34.687 -19.944 -21.488  0.00  0.00    -0.126 OA
ATOM     21  O   UNL     1      35.972 -18.381 -20.636  0.00  0.00    -0.126 OA
ATOM     22  N   UNL     1      35.187 -18.793 -21.523  0.00  0.00    +0.058 N 
ENDBRANCH  17  22
ENDBRANCH  13  14
BRANCH   4  23
ATOM     23  C   UNL     1      33.509  -7.312 -23.952  0.00  0.00    +0.098 C 
BRANCH  23  24
ATOM     24  C   UNL     1      32.254  -6.558 -24.386  0.00  0.00    -0.001 C 
BRANCH  24  25
ATOM     25  C   UNL     1      32.513  -5.412 -25.368  0.00  0.00    -0.075 C 
BRANCH  25  27
ATOM     26  O   UNL     1      30.203  -2.176 -24.023  0.00  0.00    -0.358 OA
ATOM     27  N   UNL     1      32.131  -4.117 -24.807  0.00  0.00    +0.390 N 
ATOM     28  C   UNL     1      31.313  -4.291 -23.599  0.00  0.00    -0.045 C 
ATOM     29  C   UNL     1      31.401  -3.314 -25.799  0.00  0.00    -0.045 C 
ATOM     30  C   UNL     1      30.916  -2.928 -23.041  0.00  0.00    +0.119 C 
ATOM     31  C   UNL     1      31.004  -1.973 -25.188  0.00  0.00    +0.119 C 
ATOM     32  H   UNL     1      32.986  -3.622 -24.554  0.00  0.00    -0.079 HD
ENDBRANCH  25  27
ENDBRANCH  24  25
ENDBRANCH  23  24
ENDBRANCH   4  23
TORSDOF 6
ENDMDL
MODEL 9
REMARK VINA RESULT:      -9.7      5.355     11.625
REMARK  Name = 4470566
REMARK  6 active torsions:
REMARK  status: ('A' for Active; 'I' for Inactive)
REMARK    1  A    between atoms: N_4  and  C_23
REMARK    2  A    between atoms: C_13  and  C_14
REMARK    3  A    between atoms: C_17  and  N_22
REMARK    4  A    between atoms: C_23  and  C_24
REMARK    5  A    between atoms: C_24  and  C_25
REMARK    6  A    between atoms: C_25  and  N_27
REMARK                            x       y       z     vdW  Elec       q    Type
REMARK                         _______ _______ _______ _____ _____    ______ ____
ROOT
ATOM      1  S   UNL     1      37.134 -20.238 -19.735  0.00  0.00    -0.086 S 
ATOM      2  S   UNL     1      32.362 -23.111 -17.471  0.00  0.00    -0.017 S 
ATOM      3  O   UNL     1      36.667 -23.965 -14.858  0.00  0.00    -0.268 OA
ATOM      4  N   UNL     1      34.520 -23.771 -15.847  0.00  0.00    -0.237 N 
ATOM      5  N   UNL     1      35.032 -22.443 -17.468  0.00  0.00    -0.244 N 
ATOM      6  C   UNL     1      36.183 -22.662 -16.784  0.00  0.00    +0.112 C 
ATOM      7  C   UNL     1      35.306 -21.602 -18.513  0.00  0.00    +0.064 C 
ATOM      8  C   UNL     1      33.935 -23.108 -16.942  0.00  0.00    +0.152 C 
ATOM      9  C   UNL     1      35.893 -23.537 -15.699  0.00  0.00    +0.268 C 
ATOM     10  C   UNL     1      36.649 -21.306 -18.458  0.00  0.00    +0.045 C 
ATOM     11  C   UNL     1      37.232 -21.987 -17.340  0.00  0.00    +0.028 C 
ATOM     12  C   UNL     1      34.631 -20.971 -19.592  0.00  0.00    +0.022 C 
ATOM     13  C   UNL     1      35.518 -20.208 -20.321  0.00  0.00    +0.031 C 
ENDROOT
BRANCH  13  14
ATOM     14  C   UNL     1      35.242 -19.408 -21.494  0.00  0.00    +0.008 C 
ATOM     15  C   UNL     1      35.177 -18.021 -21.389  0.00  0.00    +0.025 C 
ATOM     16  C   UNL     1      35.044 -20.029 -22.725  0.00  0.00    +0.001 C 
ATOM     17  C   UNL     1      34.913 -17.250 -22.521  0.00  0.00    +0.143 C 
ATOM     18  C   UNL     1      34.779 -19.258 -23.857  0.00  0.00    +0.002 C 
ATOM     19  C   UNL     1      34.714 -17.869 -23.755  0.00  0.00    +0.024 C 
BRANCH  17  22
ATOM     20  O   UNL     1      34.979 -15.142 -23.454  0.00  0.00    -0.126 OA
ATOM     21  O   UNL     1      34.655 -15.318 -21.290  0.00  0.00    -0.126 OA
ATOM     22  N   UNL     1      34.845 -15.836 -22.417  0.00  0.00    +0.058 N 
ENDBRANCH  17  22
ENDBRANCH  13  14
BRANCH   4  23
ATOM     23  C   UNL     1      33.792 -24.635 -14.928  0.00  0.00    +0.098 C 
BRANCH  23  24
ATOM     24  C   UNL     1      32.749 -23.874 -14.111  0.00  0.00    -0.001 C 
BRANCH  24  25
ATOM     25  C   UNL     1      31.552 -24.721 -13.668  0.00  0.00    -0.075 C 
BRANCH  25  27
ATOM     26  O   UNL     1      28.818 -23.160 -16.443  0.00  0.00    -0.358 OA
ATOM     27  N   UNL     1      30.307 -24.270 -14.286  0.00  0.00    +0.390 N 
ATOM     28  C   UNL     1      30.014 -25.047 -15.499  0.00  0.00    -0.045 C 
ATOM     29  C   UNL     1      30.374 -22.838 -14.610  0.00  0.00    -0.045 C 
ATOM     30  C   UNL     1      28.719 -24.550 -16.133  0.00  0.00    +0.119 C 
ATOM     31  C   UNL     1      29.069 -22.393 -15.264  0.00  0.00    +0.119 C 
ATOM     32  H   UNL     1      29.554 -24.417 -13.615  0.00  0.00    -0.079 HD
ENDBRANCH  25  27
ENDBRANCH  24  25
ENDBRANCH  23  24
ENDBRANCH   4  23
TORSDOF 6
ENDMDL
