MODEL 1
REMARK VINA RESULT:     -10.4      0.000      0.000
REMARK  Name = 47965
REMARK  7 active torsions:
REMARK  status: ('A' for Active; 'I' for Inactive)
REMARK    1  A    between atoms: N_2  and  CA_9
REMARK    2  A    between atoms: C_3  and  CA_19
REMARK    3  A    between atoms: CA_11  and  C_16
REMARK    4  A    between atoms: C_16  and  O_17
REMARK    5  A    between atoms: CA_19  and  C_20
REMARK    6  A    between atoms: CA_19  and  N_28
REMARK    7  A    between atoms: C_25  and  O_26
REMARK                            x       y       z     vdW  Elec       q    Type
REMARK                         _______ _______ _______ _____ _____    ______ ____
ROOT
ATOM      1  O   UNL     1      36.719 -20.868 -20.282  0.00  0.00    -0.277 OA
ATOM      2  N   UNL     1      34.982 -19.383 -20.671  0.00  0.00    -0.298 N 
ATOM      3  C   UNL     1      35.518 -20.602 -20.256  0.00  0.00    +0.206 C 
ATOM      4  H   UNL     1      34.007 -19.253 -20.617  0.00  0.00    +0.150 HD
ENDROOT
BRANCH   2   9
ATOM      5  S   UNL     1      34.787 -19.105 -23.720  0.00  0.00    -0.114 S 
ATOM      6  O   UNL     1      34.820 -16.176 -20.111  0.00  0.00    -0.273 OA
ATOM      7  N   UNL     1      34.985 -16.827 -22.372  0.00  0.00    -0.242 N 
ATOM      8  C   UNL     1      35.784 -17.994 -22.702  0.00  0.00    +0.155 C 
ATOM      9  CA  UNL     1      35.805 -18.288 -21.186  0.00  0.00    +0.178 C 
ATOM     10  C   UNL     1      35.145 -16.889 -21.032  0.00  0.00    +0.251 C 
ATOM     11  CA  UNL     1      34.357 -16.056 -23.297  0.00  0.00    +0.124 C 
ATOM     12  C   UNL     1      34.577 -17.876 -25.053  0.00  0.00    +0.083 C 
ATOM     13  C   UNL     1      34.185 -16.480 -24.571  0.00  0.00    -0.013 C 
ATOM     14  C   UNL     1      33.572 -15.652 -25.674  0.00  0.00    +0.029 C 
BRANCH  11  16
ATOM     15  OXT UNL     1      32.686 -14.609 -22.423  0.00  0.00    -0.244 OA
ATOM     16  C   UNL     1      33.818 -14.768 -22.836  0.00  0.00    +0.351 C 
BRANCH  16  17
ATOM     17  O   UNL     1      34.768 -13.820 -22.947  0.00  0.00    -0.476 OA
ATOM     18  H   UNL     1      35.554 -13.999 -23.424  0.00  0.00    +0.295 HD
ENDBRANCH  16  17
ENDBRANCH  11  16
ENDBRANCH   2   9
BRANCH   3  19
ATOM     19  CA  UNL     1      34.455 -21.589 -19.782  0.00  0.00    +0.036 C 
BRANCH  19  20
ATOM     20  C   UNL     1      34.793 -22.125 -18.407  0.00  0.00    -0.034 C 
ATOM     21  C   UNL     1      33.840 -22.850 -17.713  0.00  0.00    -0.003 C 
ATOM     22  C   UNL     1      36.047 -21.880 -17.876  0.00  0.00    -0.003 C 
ATOM     23  C   UNL     1      34.151 -23.343 -16.446  0.00  0.00    +0.036 C 
ATOM     24  C   UNL     1      36.358 -22.374 -16.609  0.00  0.00    +0.036 C 
ATOM     25  C   UNL     1      35.409 -23.105 -15.894  0.00  0.00    +0.134 C 
BRANCH  25  26
ATOM     26  O   UNL     1      35.713 -23.587 -14.658  0.00  0.00    -0.506 OA
ATOM     27  H   UNL     1      36.530 -23.364 -14.256  0.00  0.00    +0.292 HD
ENDBRANCH  25  26
ENDBRANCH  19  20
BRANCH  19  28
ATOM     28  N   UNL     1      33.162 -20.900 -19.811  0.00  0.00    +0.390 N 
ATOM     29  H1  UNL     1      33.313 -19.891 -19.810  0.00  0.00    -0.088 HD
ATOM     30  H2  UNL     1      32.619 -21.163 -18.989  0.00  0.00    -0.088 HD
ATOM     31  H3  UNL     1      32.654 -21.166 -20.654  0.00  0.00    -0.088 HD
ENDBRANCH  19  28
ENDBRANCH   3  19
TORSDOF 7
ENDMDL
MODEL 2
REMARK VINA RESULT:      -9.7      1.270      1.593
REMARK  Name = 47965
REMARK  7 active torsions:
REMARK  status: ('A' for Active; 'I' for Inactive)
REMARK    1  A    between atoms: N_2  and  CA_9
REMARK    2  A    between atoms: C_3  and  CA_19
REMARK    3  A    between atoms: CA_11  and  C_16
REMARK    4  A    between atoms: C_16  and  O_17
REMARK    5  A    between atoms: CA_19  and  C_20
REMARK    6  A    between atoms: CA_19  and  N_28
REMARK    7  A    between atoms: C_25  and  O_26
REMARK                            x       y       z     vdW  Elec       q    Type
REMARK                         _______ _______ _______ _____ _____    ______ ____
ROOT
ATOM      1  O   UNL     1      36.210 -19.686 -21.146  0.00  0.00    -0.277 OA
ATOM      2  N   UNL     1      34.380 -18.263 -21.186  0.00  0.00    -0.298 N 
ATOM      3  C   UNL     1      34.999 -19.504 -21.030  0.00  0.00    +0.206 C 
ATOM      4  H   UNL     1      33.403 -18.206 -21.074  0.00  0.00    +0.150 HD
ENDROOT
BRANCH   2   9
ATOM      5  S   UNL     1      34.417 -17.678 -24.197  0.00  0.00    -0.114 S 
ATOM      6  O   UNL     1      33.821 -15.168 -20.330  0.00  0.00    -0.273 OA
ATOM      7  N   UNL     1      34.249 -15.551 -22.617  0.00  0.00    -0.242 N 
ATOM      8  C   UNL     1      35.195 -16.590 -22.983  0.00  0.00    +0.155 C 
ATOM      9  CA  UNL     1      35.119 -17.043 -21.508  0.00  0.00    +0.178 C 
ATOM     10  C   UNL     1      34.299 -15.741 -21.281  0.00  0.00    +0.251 C 
ATOM     11  CA  UNL     1      33.622 -14.751 -23.518  0.00  0.00    +0.124 C 
ATOM     12  C   UNL     1      34.188 -16.339 -25.416  0.00  0.00    +0.083 C 
ATOM     13  C   UNL     1      33.606 -15.050 -24.838  0.00  0.00    -0.013 C 
ATOM     14  C   UNL     1      33.002 -14.173 -25.909  0.00  0.00    +0.029 C 
BRANCH  11  16
ATOM     15  OXT UNL     1      33.272 -12.432 -23.132  0.00  0.00    -0.244 OA
ATOM     16  C   UNL     1      32.907 -13.581 -22.987  0.00  0.00    +0.351 C 
BRANCH  16  17
ATOM     17  O   UNL     1      31.805 -13.992 -22.328  0.00  0.00    -0.476 OA
ATOM     18  H   UNL     1      31.148 -13.371 -22.083  0.00  0.00    +0.295 HD
ENDBRANCH  16  17
ENDBRANCH  11  16
ENDBRANCH   2   9
BRANCH   3  19
ATOM     19  CA  UNL     1      34.013 -20.626 -20.718  0.00  0.00    +0.036 C 
BRANCH  19  20
ATOM     20  C   UNL     1      34.442 -21.393 -19.486  0.00  0.00    -0.034 C 
ATOM     21  C   UNL     1      33.512 -22.168 -18.816  0.00  0.00    -0.003 C 
ATOM     22  C   UNL     1      35.754 -21.303 -19.058  0.00  0.00    -0.003 C 
ATOM     23  C   UNL     1      33.907 -22.874 -17.681  0.00  0.00    +0.036 C 
ATOM     24  C   UNL     1      36.150 -22.010 -17.922  0.00  0.00    +0.036 C 
ATOM     25  C   UNL     1      35.225 -22.796 -17.233  0.00  0.00    +0.134 C 
BRANCH  25  26
ATOM     26  O   UNL     1      35.610 -23.485 -16.125  0.00  0.00    -0.506 OA
ATOM     27  H   UNL     1      35.086 -23.455 -15.349  0.00  0.00    +0.292 HD
ENDBRANCH  25  26
ENDBRANCH  19  20
BRANCH  19  28
ATOM     28  N   UNL     1      32.685 -20.024 -20.568  0.00  0.00    +0.390 N 
ATOM     29  H1  UNL     1      31.976 -20.759 -20.574  0.00  0.00    -0.088 HD
ATOM     30  H2  UNL     1      32.514 -19.380 -21.340  0.00  0.00    -0.088 HD
ATOM     31  H3  UNL     1      32.640 -19.516 -19.685  0.00  0.00    -0.088 HD
ENDBRANCH  19  28
ENDBRANCH   3  19
TORSDOF 7
ENDMDL
MODEL 3
REMARK VINA RESULT:      -9.5      6.334     11.808
REMARK  Name = 47965
REMARK  7 active torsions:
REMARK  status: ('A' for Active; 'I' for Inactive)
REMARK    1  A    between atoms: N_2  and  CA_9
REMARK    2  A    between atoms: C_3  and  CA_19
REMARK    3  A    between atoms: CA_11  and  C_16
REMARK    4  A    between atoms: C_16  and  O_17
REMARK    5  A    between atoms: CA_19  and  C_20
REMARK    6  A    between atoms: CA_19  and  N_28
REMARK    7  A    between atoms: C_25  and  O_26
REMARK                            x       y       z     vdW  Elec       q    Type
REMARK                         _______ _______ _______ _____ _____    ______ ____
ROOT
ATOM      1  O   UNL     1      31.273  -9.413 -20.096  0.00  0.00    -0.277 OA
ATOM      2  N   UNL     1      32.360 -10.201 -21.986  0.00  0.00    -0.298 N 
ATOM      3  C   UNL     1      32.108  -9.260 -20.988  0.00  0.00    +0.206 C 
ATOM      4  H   UNL     1      33.047  -9.999 -22.663  0.00  0.00    +0.150 HD
ENDROOT
BRANCH   2   9
ATOM      5  S   UNL     1      33.514 -12.041 -24.153  0.00  0.00    -0.114 S 
ATOM      6  O   UNL     1      32.015 -12.582 -19.786  0.00  0.00    -0.273 OA
ATOM      7  N   UNL     1      32.663 -13.256 -21.951  0.00  0.00    -0.242 N 
ATOM      8  C   UNL     1      32.135 -12.530 -23.092  0.00  0.00    +0.155 C 
ATOM      9  CA  UNL     1      31.647 -11.476 -22.073  0.00  0.00    +0.178 C 
ATOM     10  C   UNL     1      32.081 -12.506 -20.991  0.00  0.00    +0.251 C 
ATOM     11  CA  UNL     1      33.481 -14.335 -22.056  0.00  0.00    +0.124 C 
ATOM     12  C   UNL     1      34.028 -13.764 -24.468  0.00  0.00    +0.083 C 
ATOM     13  C   UNL     1      34.102 -14.641 -23.220  0.00  0.00    -0.013 C 
ATOM     14  C   UNL     1      34.958 -15.865 -23.438  0.00  0.00    +0.029 C 
BRANCH  11  16
ATOM     15  OXT UNL     1      34.778 -15.189 -20.256  0.00  0.00    -0.244 OA
ATOM     16  C   UNL     1      33.711 -15.119 -20.833  0.00  0.00    +0.351 C 
BRANCH  16  17
ATOM     17  O   UNL     1      32.566 -15.730 -20.472  0.00  0.00    -0.476 OA
ATOM     18  H   UNL     1      32.167 -15.528 -19.648  0.00  0.00    +0.295 HD
ENDBRANCH  16  17
ENDBRANCH  11  16
ENDBRANCH   2   9
BRANCH   3  19
ATOM     19  CA  UNL     1      32.963  -8.004 -21.125  0.00  0.00    +0.036 C 
BRANCH  19  20
ATOM     20  C   UNL     1      32.306  -7.005 -22.053  0.00  0.00    -0.034 C 
ATOM     21  C   UNL     1      31.443  -6.061 -21.526  0.00  0.00    -0.003 C 
ATOM     22  C   UNL     1      32.585  -7.057 -23.407  0.00  0.00    -0.003 C 
ATOM     23  C   UNL     1      30.838  -5.141 -22.381  0.00  0.00    +0.036 C 
ATOM     24  C   UNL     1      31.980  -6.137 -24.263  0.00  0.00    +0.036 C 
ATOM     25  C   UNL     1      31.106  -5.178 -23.749  0.00  0.00    +0.134 C 
BRANCH  25  26
ATOM     26  O   UNL     1      30.515  -4.280 -24.584  0.00  0.00    -0.506 OA
ATOM     27  H   UNL     1      30.846  -3.405 -24.641  0.00  0.00    +0.292 HD
ENDBRANCH  25  26
ENDBRANCH  19  20
BRANCH  19  28
ATOM     28  N   UNL     1      33.178  -7.461 -19.781  0.00  0.00    +0.390 N 
ATOM     29  H1  UNL     1      32.303  -7.074 -19.426  0.00  0.00    -0.088 HD
ATOM     30  H2  UNL     1      33.884  -6.727 -19.820  0.00  0.00    -0.088 HD
ATOM     31  H3  UNL     1      33.495  -8.206 -19.160  0.00  0.00    -0.088 HD
ENDBRANCH  19  28
ENDBRANCH   3  19
TORSDOF 7
ENDMDL
MODEL 4
REMARK VINA RESULT:      -8.7      4.833      7.669
REMARK  Name = 47965
REMARK  7 active torsions:
REMARK  status: ('A' for Active; 'I' for Inactive)
REMARK    1  A    between atoms: N_2  and  CA_9
REMARK    2  A    between atoms: C_3  and  CA_19
REMARK    3  A    between atoms: CA_11  and  C_16
REMARK    4  A    between atoms: C_16  and  O_17
REMARK    5  A    between atoms: CA_19  and  C_20
REMARK    6  A    between atoms: CA_19  and  N_28
REMARK    7  A    between atoms: C_25  and  O_26
REMARK                            x       y       z     vdW  Elec       q    Type
REMARK                         _______ _______ _______ _____ _____    ______ ____
ROOT
ATOM      1  O   UNL     1      31.612 -15.165 -21.387  0.00  0.00    -0.277 OA
ATOM      2  N   UNL     1      33.099 -13.502 -22.020  0.00  0.00    -0.298 N 
ATOM      3  C   UNL     1      32.764 -14.736 -21.462  0.00  0.00    +0.206 C 
ATOM      4  H   UNL     1      34.048 -13.236 -22.041  0.00  0.00    +0.150 HD
ENDROOT
BRANCH   2   9
ATOM      5  S   UNL     1      31.966 -11.588 -19.907  0.00  0.00    -0.114 S 
ATOM      6  O   UNL     1      33.390 -11.206 -24.316  0.00  0.00    -0.273 OA
ATOM      7  N   UNL     1      32.296 -10.556 -22.331  0.00  0.00    -0.242 N 
ATOM      8  C   UNL     1      31.468 -11.530 -21.643  0.00  0.00    +0.155 C 
ATOM      9  CA  UNL     1      32.104 -12.585 -22.575  0.00  0.00    +0.178 C 
ATOM     10  C   UNL     1      32.725 -11.369 -23.320  0.00  0.00    +0.251 C 
ATOM     11  CA  UNL     1      32.446  -9.270 -21.921  0.00  0.00    +0.124 C 
ATOM     12  C   UNL     1      31.552  -9.835 -19.614  0.00  0.00    +0.083 C 
ATOM     13  C   UNL     1      32.071  -8.874 -20.682  0.00  0.00    -0.013 C 
ATOM     14  C   UNL     1      32.130  -7.451 -20.182  0.00  0.00    +0.029 C 
BRANCH  11  16
ATOM     15  OXT UNL     1      34.276  -8.068 -22.846  0.00  0.00    -0.244 OA
ATOM     16  C   UNL     1      33.093  -8.342 -22.861  0.00  0.00    +0.351 C 
BRANCH  16  17
ATOM     17  O   UNL     1      32.171  -7.860 -23.718  0.00  0.00    -0.476 OA
ATOM     18  H   UNL     1      31.392  -7.457 -23.390  0.00  0.00    +0.295 HD
ENDBRANCH  16  17
ENDBRANCH  11  16
ENDBRANCH   2   9
BRANCH   3  19
ATOM     19  CA  UNL     1      33.974 -15.499 -20.933  0.00  0.00    +0.036 C 
BRANCH  19  20
ATOM     20  C   UNL     1      34.299 -16.679 -21.824  0.00  0.00    -0.034 C 
ATOM     21  C   UNL     1      34.660 -16.452 -23.140  0.00  0.00    -0.003 C 
ATOM     22  C   UNL     1      34.228 -17.958 -21.301  0.00  0.00    -0.003 C 
ATOM     23  C   UNL     1      34.958 -17.539 -23.960  0.00  0.00    +0.036 C 
ATOM     24  C   UNL     1      34.527 -19.046 -22.122  0.00  0.00    +0.036 C 
ATOM     25  C   UNL     1      34.891 -18.836 -23.452  0.00  0.00    +0.134 C 
BRANCH  25  26
ATOM     26  O   UNL     1      35.182 -19.897 -24.253  0.00  0.00    -0.506 OA
ATOM     27  H   UNL     1      34.532 -20.235 -24.838  0.00  0.00    +0.292 HD
ENDBRANCH  25  26
ENDBRANCH  19  20
BRANCH  19  28
ATOM     28  N   UNL     1      35.089 -14.553 -20.830  0.00  0.00    +0.390 N 
ATOM     29  H1  UNL     1      34.757 -13.680 -20.419  0.00  0.00    -0.088 HD
ATOM     30  H2  UNL     1      35.465 -14.369 -21.760  0.00  0.00    -0.088 HD
ATOM     31  H3  UNL     1      35.819 -14.950 -20.240  0.00  0.00    -0.088 HD
ENDBRANCH  19  28
ENDBRANCH   3  19
TORSDOF 7
ENDMDL
MODEL 5
REMARK VINA RESULT:      -8.6      3.949      9.348
REMARK  Name = 47965
REMARK  7 active torsions:
REMARK  status: ('A' for Active; 'I' for Inactive)
REMARK    1  A    between atoms: N_2  and  CA_9
REMARK    2  A    between atoms: C_3  and  CA_19
REMARK    3  A    between atoms: CA_11  and  C_16
REMARK    4  A    between atoms: C_16  and  O_17
REMARK    5  A    between atoms: CA_19  and  C_20
REMARK    6  A    between atoms: CA_19  and  N_28
REMARK    7  A    between atoms: C_25  and  O_26
REMARK                            x       y       z     vdW  Elec       q    Type
REMARK                         _______ _______ _______ _____ _____    ______ ____
ROOT
ATOM      1  O   UNL     1      33.930 -23.911 -19.349  0.00  0.00    -0.277 OA
ATOM      2  N   UNL     1      34.087 -22.955 -17.243  0.00  0.00    -0.298 N 
ATOM      3  C   UNL     1      33.845 -22.926 -18.616  0.00  0.00    +0.206 C 
ATOM      4  H   UNL     1      33.995 -22.119 -16.730  0.00  0.00    +0.150 HD
ENDROOT
BRANCH   2   9
ATOM      5  S   UNL     1      36.853 -22.721 -15.936  0.00  0.00    -0.114 S 
ATOM      6  O   UNL     1      32.715 -24.425 -14.676  0.00  0.00    -0.273 OA
ATOM      7  N   UNL     1      35.048 -24.099 -14.561  0.00  0.00    -0.242 N 
ATOM      8  C   UNL     1      35.825 -24.199 -15.784  0.00  0.00    +0.155 C 
ATOM      9  CA  UNL     1      34.473 -24.173 -16.530  0.00  0.00    +0.178 C 
ATOM     10  C   UNL     1      33.833 -24.296 -15.118  0.00  0.00    +0.251 C 
ATOM     11  CA  UNL     1      35.593 -23.871 -13.338  0.00  0.00    +0.124 C 
ATOM     12  C   UNL     1      37.755 -23.053 -14.384  0.00  0.00    +0.083 C 
ATOM     13  C   UNL     1      36.865 -23.429 -13.202  0.00  0.00    -0.013 C 
ATOM     14  C   UNL     1      37.566 -23.230 -11.880  0.00  0.00    +0.029 C 
BRANCH  11  16
ATOM     15  OXT UNL     1      34.919 -24.877 -11.293  0.00  0.00    -0.244 OA
ATOM     16  C   UNL     1      34.717 -24.064 -12.172  0.00  0.00    +0.351 C 
BRANCH  16  17
ATOM     17  O   UNL     1      33.680 -23.207 -12.245  0.00  0.00    -0.476 OA
ATOM     18  H   UNL     1      33.513 -22.741 -13.041  0.00  0.00    +0.295 HD
ENDBRANCH  16  17
ENDBRANCH  11  16
ENDBRANCH   2   9
BRANCH   3  19
ATOM     19  CA  UNL     1      33.480 -21.536 -19.127  0.00  0.00    +0.036 C 
BRANCH  19  20
ATOM     20  C   UNL     1      34.685 -20.853 -19.738  0.00  0.00    -0.034 C 
ATOM     21  C   UNL     1      35.953 -21.245 -19.347  0.00  0.00    -0.003 C 
ATOM     22  C   UNL     1      34.492 -19.852 -20.673  0.00  0.00    -0.003 C 
ATOM     23  C   UNL     1      37.063 -20.615 -19.909  0.00  0.00    +0.036 C 
ATOM     24  C   UNL     1      35.602 -19.222 -21.236  0.00  0.00    +0.036 C 
ATOM     25  C   UNL     1      36.888 -19.604 -20.853  0.00  0.00    +0.134 C 
BRANCH  25  26
ATOM     26  O   UNL     1      37.971 -18.990 -21.401  0.00  0.00    -0.506 OA
ATOM     27  H   UNL     1      38.825 -19.139 -21.044  0.00  0.00    +0.292 HD
ENDBRANCH  25  26
ENDBRANCH  19  20
BRANCH  19  28
ATOM     28  N   UNL     1      32.379 -21.685 -20.082  0.00  0.00    +0.390 N 
ATOM     29  H1  UNL     1      32.610 -21.197 -20.947  0.00  0.00    -0.088 HD
ATOM     30  H2  UNL     1      31.528 -21.287 -19.684  0.00  0.00    -0.088 HD
ATOM     31  H3  UNL     1      32.231 -22.675 -20.279  0.00  0.00    -0.088 HD
ENDBRANCH  19  28
ENDBRANCH   3  19
TORSDOF 7
ENDMDL
MODEL 6
REMARK VINA RESULT:      -8.5      5.354      8.229
REMARK  Name = 47965
REMARK  7 active torsions:
REMARK  status: ('A' for Active; 'I' for Inactive)
REMARK    1  A    between atoms: N_2  and  CA_9
REMARK    2  A    between atoms: C_3  and  CA_19
REMARK    3  A    between atoms: CA_11  and  C_16
REMARK    4  A    between atoms: C_16  and  O_17
REMARK    5  A    between atoms: CA_19  and  C_20
REMARK    6  A    between atoms: CA_19  and  N_28
REMARK    7  A    between atoms: C_25  and  O_26
REMARK                            x       y       z     vdW  Elec       q    Type
REMARK                         _______ _______ _______ _____ _____    ______ ____
ROOT
ATOM      1  O   UNL     1      32.215 -25.527 -13.839  0.00  0.00    -0.277 OA
ATOM      2  N   UNL     1      32.895 -23.620 -14.968  0.00  0.00    -0.298 N 
ATOM      3  C   UNL     1      32.027 -24.354 -14.160  0.00  0.00    +0.206 C 
ATOM      4  H   UNL     1      32.668 -22.684 -15.176  0.00  0.00    +0.150 HD
ENDROOT
BRANCH   2   9
ATOM      5  S   UNL     1      33.214 -23.016 -17.959  0.00  0.00    -0.114 S 
ATOM      6  O   UNL     1      36.011 -22.991 -14.246  0.00  0.00    -0.273 OA
ATOM      7  N   UNL     1      35.456 -22.990 -16.538  0.00  0.00    -0.242 N 
ATOM      8  C   UNL     1      34.453 -23.927 -17.011  0.00  0.00    +0.155 C 
ATOM      9  CA  UNL     1      34.128 -24.180 -15.522  0.00  0.00    +0.178 C 
ATOM     10  C   UNL     1      35.388 -23.317 -15.229  0.00  0.00    +0.251 C 
ATOM     11  CA  UNL     1      36.132 -22.135 -17.349  0.00  0.00    +0.124 C 
ATOM     12  C   UNL     1      34.423 -22.443 -19.200  0.00  0.00    +0.083 C 
ATOM     13  C   UNL     1      35.718 -21.883 -18.613  0.00  0.00    -0.013 C 
ATOM     14  C   UNL     1      36.457 -21.012 -19.599  0.00  0.00    +0.029 C 
BRANCH  11  16
ATOM     15  OXT UNL     1      37.543 -20.268 -16.932  0.00  0.00    -0.244 OA
ATOM     16  C   UNL     1      37.295 -21.446 -16.770  0.00  0.00    +0.351 C 
BRANCH  16  17
ATOM     17  O   UNL     1      38.021 -22.323 -16.049  0.00  0.00    -0.476 OA
ATOM     18  H   UNL     1      38.832 -22.055 -15.665  0.00  0.00    +0.295 HD
ENDBRANCH  16  17
ENDBRANCH  11  16
ENDBRANCH   2   9
BRANCH   3  19
ATOM     19  CA  UNL     1      30.801 -23.557 -13.726  0.00  0.00    +0.036 C 
BRANCH  19  20
ATOM     20  C   UNL     1      29.806 -23.438 -14.861  0.00  0.00    -0.034 C 
ATOM     21  C   UNL     1      29.162 -22.231 -15.071  0.00  0.00    -0.003 C 
ATOM     22  C   UNL     1      29.563 -24.539 -15.663  0.00  0.00    -0.003 C 
ATOM     23  C   UNL     1      28.245 -22.123 -16.115  0.00  0.00    +0.036 C 
ATOM     24  C   UNL     1      28.645 -24.430 -16.708  0.00  0.00    +0.036 C 
ATOM     25  C   UNL     1      27.986 -23.221 -16.934  0.00  0.00    +0.134 C 
BRANCH  25  26
ATOM     26  O   UNL     1      27.091 -23.115 -17.954  0.00  0.00    -0.506 OA
ATOM     27  H   UNL     1      27.378 -22.837 -18.802  0.00  0.00    +0.292 HD
ENDBRANCH  25  26
ENDBRANCH  19  20
BRANCH  19  28
ATOM     28  N   UNL     1      30.230 -24.219 -12.550  0.00  0.00    +0.390 N 
ATOM     29  H1  UNL     1      29.331 -24.634 -12.796  0.00  0.00    -0.088 HD
ATOM     30  H2  UNL     1      30.096 -23.534 -11.806  0.00  0.00    -0.088 HD
ATOM     31  H3  UNL     1      30.865 -24.950 -12.229  0.00  0.00    -0.088 HD
ENDBRANCH  19  28
ENDBRANCH   3  19
TORSDOF 7
ENDMDL
MODEL 7
REMARK VINA RESULT:      -8.5      3.390      5.525
REMARK  Name = 47965
REMARK  7 active torsions:
REMARK  status: ('A' for Active; 'I' for Inactive)
REMARK    1  A    between atoms: N_2  and  CA_9
REMARK    2  A    between atoms: C_3  and  CA_19
REMARK    3  A    between atoms: CA_11  and  C_16
REMARK    4  A    between atoms: C_16  and  O_17
REMARK    5  A    between atoms: CA_19  and  C_20
REMARK    6  A    between atoms: CA_19  and  N_28
REMARK    7  A    between atoms: C_25  and  O_26
REMARK                            x       y       z     vdW  Elec       q    Type
REMARK                         _______ _______ _______ _____ _____    ______ ____
ROOT
ATOM      1  O   UNL     1      34.064 -17.045 -24.022  0.00  0.00    -0.277 OA
ATOM      2  N   UNL     1      33.712 -15.429 -22.397  0.00  0.00    -0.298 N 
ATOM      3  C   UNL     1      34.307 -16.583 -22.907  0.00  0.00    +0.206 C 
ATOM      4  H   UNL     1      33.965 -15.128 -21.494  0.00  0.00    +0.150 HD
ENDROOT
BRANCH   2   9
ATOM      5  S   UNL     1      32.209 -13.432 -20.618  0.00  0.00    -0.114 S 
ATOM      6  O   UNL     1      34.113 -13.328 -24.857  0.00  0.00    -0.273 OA
ATOM      7  N   UNL     1      32.750 -12.595 -23.078  0.00  0.00    -0.242 N 
ATOM      8  C   UNL     1      31.915 -13.567 -22.396  0.00  0.00    +0.155 C 
ATOM      9  CA  UNL     1      32.728 -14.646 -23.145  0.00  0.00    +0.178 C 
ATOM     10  C   UNL     1      33.348 -13.456 -23.930  0.00  0.00    +0.251 C 
ATOM     11  CA  UNL     1      32.762 -11.270 -22.781  0.00  0.00    +0.124 C 
ATOM     12  C   UNL     1      31.643 -11.699 -20.543  0.00  0.00    +0.083 C 
ATOM     13  C   UNL     1      32.217 -10.797 -21.635  0.00  0.00    -0.013 C 
ATOM     14  C   UNL     1      32.119  -9.335 -21.272  0.00  0.00    +0.029 C 
BRANCH  11  16
ATOM     15  OXT UNL     1      32.892  -9.540 -24.406  0.00  0.00    -0.244 OA
ATOM     16  C   UNL     1      33.449 -10.380 -23.728  0.00  0.00    +0.351 C 
BRANCH  16  17
ATOM     17  O   UNL     1      34.770 -10.649 -23.717  0.00  0.00    -0.476 OA
ATOM     18  H   UNL     1      35.077 -11.470 -23.386  0.00  0.00    +0.295 HD
ENDBRANCH  16  17
ENDBRANCH  11  16
ENDBRANCH   2   9
BRANCH   3  19
ATOM     19  CA  UNL     1      35.282 -17.232 -21.930  0.00  0.00    +0.036 C 
BRANCH  19  20
ATOM     20  C   UNL     1      34.671 -18.465 -21.299  0.00  0.00    -0.034 C 
ATOM     21  C   UNL     1      33.299 -18.527 -21.129  0.00  0.00    -0.003 C 
ATOM     22  C   UNL     1      35.499 -19.502 -20.905  0.00  0.00    -0.003 C 
ATOM     23  C   UNL     1      32.738 -19.663 -20.547  0.00  0.00    +0.036 C 
ATOM     24  C   UNL     1      34.936 -20.638 -20.323  0.00  0.00    +0.036 C 
ATOM     25  C   UNL     1      33.555 -20.718 -20.143  0.00  0.00    +0.134 C 
BRANCH  25  26
ATOM     26  O   UNL     1      33.006 -21.826 -19.575  0.00  0.00    -0.506 OA
ATOM     27  H   UNL     1      32.101 -22.025 -19.715  0.00  0.00    +0.292 HD
ENDBRANCH  25  26
ENDBRANCH  19  20
BRANCH  19  28
ATOM     28  N   UNL     1      36.516 -17.531 -22.661  0.00  0.00    +0.390 N 
ATOM     29  H1  UNL     1      36.286 -17.988 -23.544  0.00  0.00    -0.088 HD
ATOM     30  H2  UNL     1      37.101 -18.150 -22.101  0.00  0.00    -0.088 HD
ATOM     31  H3  UNL     1      37.019 -16.664 -22.849  0.00  0.00    -0.088 HD
ENDBRANCH  19  28
ENDBRANCH   3  19
TORSDOF 7
ENDMDL
MODEL 8
REMARK VINA RESULT:      -8.5      3.166      5.051
REMARK  Name = 47965
REMARK  7 active torsions:
REMARK  status: ('A' for Active; 'I' for Inactive)
REMARK    1  A    between atoms: N_2  and  CA_9
REMARK    2  A    between atoms: C_3  and  CA_19
REMARK    3  A    between atoms: CA_11  and  C_16
REMARK    4  A    between atoms: C_16  and  O_17
REMARK    5  A    between atoms: CA_19  and  C_20
REMARK    6  A    between atoms: CA_19  and  N_28
REMARK    7  A    between atoms: C_25  and  O_26
REMARK                            x       y       z     vdW  Elec       q    Type
REMARK                         _______ _______ _______ _____ _____    ______ ____
ROOT
ATOM      1  O   UNL     1      34.412 -17.953 -24.081  0.00  0.00    -0.277 OA
ATOM      2  N   UNL     1      33.979 -16.099 -22.758  0.00  0.00    -0.298 N 
ATOM      3  C   UNL     1      34.588 -17.323 -23.038  0.00  0.00    +0.206 C 
ATOM      4  H   UNL     1      34.176 -15.661 -21.898  0.00  0.00    +0.150 HD
ENDROOT
BRANCH   2   9
ATOM      5  S   UNL     1      32.652 -13.623 -21.526  0.00  0.00    -0.114 S 
ATOM      6  O   UNL     1      34.546 -14.680 -25.638  0.00  0.00    -0.273 OA
ATOM      7  N   UNL     1      33.254 -13.438 -24.105  0.00  0.00    -0.242 N 
ATOM      8  C   UNL     1      32.344 -14.150 -23.227  0.00  0.00    +0.155 C 
ATOM      9  CA  UNL     1      33.061 -15.439 -23.686  0.00  0.00    +0.178 C 
ATOM     10  C   UNL     1      33.775 -14.522 -24.720  0.00  0.00    +0.251 C 
ATOM     11  CA  UNL     1      33.376 -12.086 -24.129  0.00  0.00    +0.124 C 
ATOM     12  C   UNL     1      32.233 -11.881 -21.872  0.00  0.00    +0.083 C 
ATOM     13  C   UNL     1      32.876 -11.313 -23.136  0.00  0.00    -0.013 C 
ATOM     14  C   UNL     1      32.901  -9.804 -23.130  0.00  0.00    +0.029 C 
BRANCH  11  16
ATOM     15  OXT UNL     1      35.083 -10.759 -25.118  0.00  0.00    -0.244 OA
ATOM     16  C   UNL     1      34.133 -11.505 -25.248  0.00  0.00    +0.351 C 
BRANCH  16  17
ATOM     17  O   UNL     1      33.604 -11.929 -26.413  0.00  0.00    -0.476 OA
ATOM     18  H   UNL     1      33.794 -11.470 -27.208  0.00  0.00    +0.295 HD
ENDBRANCH  16  17
ENDBRANCH  11  16
ENDBRANCH   2   9
BRANCH   3  19
ATOM     19  CA  UNL     1      35.484 -17.815 -21.906  0.00  0.00    +0.036 C 
BRANCH  19  20
ATOM     20  C   UNL     1      34.839 -18.973 -21.173  0.00  0.00    -0.034 C 
ATOM     21  C   UNL     1      35.643 -19.953 -20.619  0.00  0.00    -0.003 C 
ATOM     22  C   UNL     1      33.460 -19.024 -21.074  0.00  0.00    -0.003 C 
ATOM     23  C   UNL     1      35.049 -21.019 -19.946  0.00  0.00    +0.036 C 
ATOM     24  C   UNL     1      32.865 -20.091 -20.400  0.00  0.00    +0.036 C 
ATOM     25  C   UNL     1      33.661 -21.089 -19.836  0.00  0.00    +0.134 C 
BRANCH  25  26
ATOM     26  O   UNL     1      33.081 -22.130 -19.178  0.00  0.00    -0.506 OA
ATOM     27  H   UNL     1      32.294 -21.994 -18.687  0.00  0.00    +0.292 HD
ENDBRANCH  25  26
ENDBRANCH  19  20
BRANCH  19  28
ATOM     28  N   UNL     1      36.781 -18.174 -22.486  0.00  0.00    +0.390 N 
ATOM     29  H1  UNL     1      36.862 -19.190 -22.535  0.00  0.00    -0.088 HD
ATOM     30  H2  UNL     1      37.529 -17.801 -21.902  0.00  0.00    -0.088 HD
ATOM     31  H3  UNL     1      36.854 -17.783 -23.425  0.00  0.00    -0.088 HD
ENDBRANCH  19  28
ENDBRANCH   3  19
TORSDOF 7
ENDMDL
MODEL 9
REMARK VINA RESULT:      -8.4      3.654      8.954
REMARK  Name = 47965
REMARK  7 active torsions:
REMARK  status: ('A' for Active; 'I' for Inactive)
REMARK    1  A    between atoms: N_2  and  CA_9
REMARK    2  A    between atoms: C_3  and  CA_19
REMARK    3  A    between atoms: CA_11  and  C_16
REMARK    4  A    between atoms: C_16  and  O_17
REMARK    5  A    between atoms: CA_19  and  C_20
REMARK    6  A    between atoms: CA_19  and  N_28
REMARK    7  A    between atoms: C_25  and  O_26
REMARK                            x       y       z     vdW  Elec       q    Type
REMARK                         _______ _______ _______ _____ _____    ______ ____
ROOT
ATOM      1  O   UNL     1      34.047 -22.817 -20.241  0.00  0.00    -0.277 OA
ATOM      2  N   UNL     1      33.090 -22.230 -18.213  0.00  0.00    -0.298 N 
ATOM      3  C   UNL     1      33.559 -21.965 -19.500  0.00  0.00    +0.206 C 
ATOM      4  H   UNL     1      32.713 -21.488 -17.686  0.00  0.00    +0.150 HD
ENDROOT
BRANCH   2   9
ATOM      5  S   UNL     1      35.561 -22.636 -16.441  0.00  0.00    -0.114 S 
ATOM      6  O   UNL     1      31.040 -23.675 -16.129  0.00  0.00    -0.273 OA
ATOM      7  N   UNL     1      33.331 -23.793 -15.582  0.00  0.00    -0.242 N 
ATOM      8  C   UNL     1      34.297 -23.910 -16.659  0.00  0.00    +0.155 C 
ATOM      9  CA  UNL     1      33.132 -23.564 -17.612  0.00  0.00    +0.178 C 
ATOM     10  C   UNL     1      32.227 -23.709 -16.356  0.00  0.00    +0.251 C 
ATOM     11  CA  UNL     1      33.664 -23.792 -14.266  0.00  0.00    +0.124 C 
ATOM     12  C   UNL     1      36.089 -23.281 -14.817  0.00  0.00    +0.083 C 
ATOM     13  C   UNL     1      34.942 -23.605 -13.861  0.00  0.00    -0.013 C 
ATOM     14  C   UNL     1      35.405 -23.670 -12.425  0.00  0.00    +0.029 C 
BRANCH  11  16
ATOM     15  OXT UNL     1      32.035 -24.994 -13.021  0.00  0.00    -0.244 OA
ATOM     16  C   UNL     1      32.566 -23.938 -13.299  0.00  0.00    +0.351 C 
BRANCH  16  17
ATOM     17  O   UNL     1      32.256 -22.730 -12.789  0.00  0.00    -0.476 OA
ATOM     18  H   UNL     1      31.620 -22.660 -12.105  0.00  0.00    +0.295 HD
ENDBRANCH  16  17
ENDBRANCH  11  16
ENDBRANCH   2   9
BRANCH   3  19
ATOM     19  CA  UNL     1      33.426 -20.496 -19.890  0.00  0.00    +0.036 C 
BRANCH  19  20
ATOM     20  C   UNL     1      34.718 -19.977 -20.483  0.00  0.00    -0.034 C 
ATOM     21  C   UNL     1      35.923 -20.406 -19.955  0.00  0.00    -0.003 C 
ATOM     22  C   UNL     1      34.666 -19.084 -21.538  0.00  0.00    -0.003 C 
ATOM     23  C   UNL     1      37.113 -19.927 -20.501  0.00  0.00    +0.036 C 
ATOM     24  C   UNL     1      35.857 -18.604 -22.084  0.00  0.00    +0.036 C 
ATOM     25  C   UNL     1      37.081 -19.026 -21.565  0.00  0.00    +0.134 C 
BRANCH  25  26
ATOM     26  O   UNL     1      38.243 -18.558 -22.097  0.00  0.00    -0.506 OA
ATOM     27  H   UNL     1      39.045 -18.647 -21.620  0.00  0.00    +0.292 HD
ENDBRANCH  25  26
ENDBRANCH  19  20
BRANCH  19  28
ATOM     28  N   UNL     1      32.299 -20.381 -20.820  0.00  0.00    +0.390 N 
ATOM     29  H1  UNL     1      31.423 -20.410 -20.298  0.00  0.00    -0.088 HD
ATOM     30  H2  UNL     1      32.325 -21.156 -21.483  0.00  0.00    -0.088 HD
ATOM     31  H3  UNL     1      32.364 -19.498 -21.325  0.00  0.00    -0.088 HD
ENDBRANCH  19  28
ENDBRANCH   3  19
TORSDOF 7
ENDMDL
