MODEL 1
REMARK VINA RESULT:      -7.8      0.000      0.000
REMARK  Name = 86289080
REMARK  9 active torsions:
REMARK  status: ('A' for Active; 'I' for Inactive)
REMARK    1  A    between atoms: C_3  and  C_8
REMARK    2  A    between atoms: C_4  and  C_20
REMARK    3  A    between atoms: C_8  and  C_9
REMARK    4  A    between atoms: C_9  and  C_10
REMARK    5  A    between atoms: C_10  and  C_13
REMARK    6  A    between atoms: C_10  and  N_16
REMARK    7  A    between atoms: C_20  and  CA_21
REMARK    8  A    between atoms: CA_21  and  N_22
REMARK    9  A    between atoms: CA_21  and  C_28
REMARK                            x       y       z     vdW  Elec       q    Type
REMARK                         _______ _______ _______ _____ _____    ______ ____
ROOT
ATOM      1  N   UNL     1      31.834 -23.751 -15.617  0.00  0.00    -0.321 N 
ATOM      2  N   UNL     1      32.415 -24.912 -13.816  0.00  0.00    -0.317 N 
ATOM      3  C   UNL     1      32.838 -24.092 -14.752  0.00  0.00    +0.143 C 
ATOM      4  C   UNL     1      30.702 -24.395 -15.206  0.00  0.00    +0.036 C 
ATOM      5  C   UNL     1      31.085 -25.105 -14.092  0.00  0.00    +0.069 C 
ATOM      6  H   UNL     1      31.915 -23.152 -16.394  0.00  0.00    +0.148 HD
ATOM      7  H   UNL     1      32.938 -25.303 -13.078  0.00  0.00    +0.148 HD
ENDROOT
BRANCH   3   8
ATOM      8  C   UNL     1      34.236 -23.551 -14.918  0.00  0.00    +0.039 C 
BRANCH   8   9
ATOM      9  C   UNL     1      35.284 -24.668 -14.830  0.00  0.00    -0.008 C 
BRANCH   9  10
ATOM     10  C   UNL     1      36.404 -24.416 -13.813  0.00  0.00    +0.024 C 
BRANCH  10  13
ATOM     11  O   UNL     1      34.954 -24.841 -11.921  0.00  0.00    -0.278 OA
ATOM     12  N   UNL     1      36.561 -23.211 -11.724  0.00  0.00    -0.330 N 
ATOM     13  C   UNL     1      35.884 -24.201 -12.404  0.00  0.00    +0.200 C 
ATOM     14  H   UNL     1      36.306 -22.988 -10.799  0.00  0.00    +0.145 HD
ATOM     15  H   UNL     1      37.299 -22.729 -12.162  0.00  0.00    +0.145 HD
ENDBRANCH  10  13
BRANCH  10  16
ATOM     16  N   UNL     1      37.376 -25.544 -13.848  0.00  0.00    +0.393 N 
ATOM     17  C   UNL     1      36.948 -26.593 -14.881  0.00  0.00    -0.095 C 
ATOM     18  C   UNL     1      38.774 -25.041 -14.223  0.00  0.00    -0.095 C 
ATOM     19  C   UNL     1      37.461 -26.225 -12.477  0.00  0.00    -0.095 C 
ENDBRANCH  10  16
ENDBRANCH   9  10
ENDBRANCH   8   9
ENDBRANCH   3   8
BRANCH   4  20
ATOM     20  C   UNL     1      29.415 -24.261 -15.904  0.00  0.00    +0.031 C 
BRANCH  20  21
ATOM     21  CA  UNL     1      29.030 -22.799 -16.240  0.00  0.00    +0.046 C 
BRANCH  21  22
ATOM     22  N   UNL     1      28.789 -22.067 -14.956  0.00  0.00    +0.389 N 
ATOM     23  H1  UNL     1      27.794 -22.094 -14.731  0.00  0.00    -0.088 HD
ATOM     24  H2  UNL     1      29.090 -21.098 -15.056  0.00  0.00    -0.088 HD
ATOM     25  H3  UNL     1      29.318 -22.512 -14.207  0.00  0.00    -0.088 HD
ENDBRANCH  21  22
BRANCH  21  28
ATOM     26  O   UNL     1      27.515 -23.838 -17.725  0.00  0.00    -0.248 OA
ATOM     27  OXT UNL     1      27.254 -21.612 -17.277  0.00  0.00    -0.248 OA
ATOM     28  C   UNL     1      27.813 -22.740 -17.175  0.00  0.00    +0.345 C 
ENDBRANCH  21  28
ENDBRANCH  20  21
ENDBRANCH   4  20
TORSDOF 9
ENDMDL
MODEL 2
REMARK VINA RESULT:      -7.8      1.469      1.837
REMARK  Name = 86289080
REMARK  9 active torsions:
REMARK  status: ('A' for Active; 'I' for Inactive)
REMARK    1  A    between atoms: C_3  and  C_8
REMARK    2  A    between atoms: C_4  and  C_20
REMARK    3  A    between atoms: C_8  and  C_9
REMARK    4  A    between atoms: C_9  and  C_10
REMARK    5  A    between atoms: C_10  and  C_13
REMARK    6  A    between atoms: C_10  and  N_16
REMARK    7  A    between atoms: C_20  and  CA_21
REMARK    8  A    between atoms: CA_21  and  N_22
REMARK    9  A    between atoms: CA_21  and  C_28
REMARK                            x       y       z     vdW  Elec       q    Type
REMARK                         _______ _______ _______ _____ _____    ______ ____
ROOT
ATOM      1  N   UNL     1      32.410 -23.341 -16.376  0.00  0.00    -0.321 N 
ATOM      2  N   UNL     1      32.862 -22.983 -14.231  0.00  0.00    -0.317 N 
ATOM      3  C   UNL     1      33.363 -23.337 -15.394  0.00  0.00    +0.143 C 
ATOM      4  C   UNL     1      31.229 -22.964 -15.801  0.00  0.00    +0.036 C 
ATOM      5  C   UNL     1      31.533 -22.749 -14.478  0.00  0.00    +0.069 C 
ATOM      6  H   UNL     1      32.550 -23.573 -17.322  0.00  0.00    +0.148 HD
ATOM      7  H   UNL     1      33.337 -22.903 -13.372  0.00  0.00    +0.148 HD
ENDROOT
BRANCH   3   8
ATOM      8  C   UNL     1      34.795 -23.708 -15.688  0.00  0.00    +0.039 C 
BRANCH   8   9
ATOM      9  C   UNL     1      35.372 -24.625 -14.601  0.00  0.00    -0.008 C 
BRANCH   9  10
ATOM     10  C   UNL     1      36.814 -24.301 -14.190  0.00  0.00    +0.024 C 
BRANCH  10  13
ATOM     11  O   UNL     1      37.913 -22.856 -12.587  0.00  0.00    -0.278 OA
ATOM     12  N   UNL     1      35.704 -23.389 -12.246  0.00  0.00    -0.330 N 
ATOM     13  C   UNL     1      36.893 -23.442 -12.941  0.00  0.00    +0.200 C 
ATOM     14  H   UNL     1      35.642 -22.860 -11.418  0.00  0.00    +0.145 HD
ATOM     15  H   UNL     1      34.918 -23.881 -12.577  0.00  0.00    +0.145 HD
ENDBRANCH  10  13
BRANCH  10  16
ATOM     16  N   UNL     1      37.579 -25.565 -14.007  0.00  0.00    +0.393 N 
ATOM     17  C   UNL     1      37.400 -26.103 -12.583  0.00  0.00    -0.095 C 
ATOM     18  C   UNL     1      37.096 -26.636 -14.991  0.00  0.00    -0.095 C 
ATOM     19  C   UNL     1      39.075 -25.330 -14.249  0.00  0.00    -0.095 C 
ENDBRANCH  10  16
ENDBRANCH   9  10
ENDBRANCH   8   9
ENDBRANCH   3   8
BRANCH   4  20
ATOM     20  C   UNL     1      29.976 -22.856 -16.562  0.00  0.00    +0.031 C 
BRANCH  20  21
ATOM     21  CA  UNL     1      28.708 -23.193 -15.739  0.00  0.00    +0.046 C 
BRANCH  21  22
ATOM     22  N   UNL     1      28.758 -24.643 -15.367  0.00  0.00    +0.389 N 
ATOM     23  H1  UNL     1      29.580 -25.074 -15.788  0.00  0.00    -0.088 HD
ATOM     24  H2  UNL     1      27.917 -25.110 -15.705  0.00  0.00    -0.088 HD
ATOM     25  H3  UNL     1      28.811 -24.732 -14.352  0.00  0.00    -0.088 HD
ENDBRANCH  21  22
BRANCH  21  28
ATOM     26  O   UNL     1      26.523 -22.299 -15.813  0.00  0.00    -0.248 OA
ATOM     27  OXT UNL     1      27.434 -23.122 -17.742  0.00  0.00    -0.248 OA
ATOM     28  C   UNL     1      27.428 -22.840 -16.510  0.00  0.00    +0.345 C 
ENDBRANCH  21  28
ENDBRANCH  20  21
ENDBRANCH   4  20
TORSDOF 9
ENDMDL
MODEL 3
REMARK VINA RESULT:      -7.7      1.485      1.997
REMARK  Name = 86289080
REMARK  9 active torsions:
REMARK  status: ('A' for Active; 'I' for Inactive)
REMARK    1  A    between atoms: C_3  and  C_8
REMARK    2  A    between atoms: C_4  and  C_20
REMARK    3  A    between atoms: C_8  and  C_9
REMARK    4  A    between atoms: C_9  and  C_10
REMARK    5  A    between atoms: C_10  and  C_13
REMARK    6  A    between atoms: C_10  and  N_16
REMARK    7  A    between atoms: C_20  and  CA_21
REMARK    8  A    between atoms: CA_21  and  N_22
REMARK    9  A    between atoms: CA_21  and  C_28
REMARK                            x       y       z     vdW  Elec       q    Type
REMARK                         _______ _______ _______ _____ _____    ______ ____
ROOT
ATOM      1  N   UNL     1      31.803 -23.702 -15.458  0.00  0.00    -0.321 N 
ATOM      2  N   UNL     1      32.352 -24.987 -13.732  0.00  0.00    -0.317 N 
ATOM      3  C   UNL     1      32.780 -24.073 -14.575  0.00  0.00    +0.143 C 
ATOM      4  C   UNL     1      30.684 -24.426 -15.159  0.00  0.00    +0.036 C 
ATOM      5  C   UNL     1      31.047 -25.211 -14.091  0.00  0.00    +0.069 C 
ATOM      6  H   UNL     1      31.892 -23.037 -16.178  0.00  0.00    +0.148 HD
ATOM      7  H   UNL     1      32.858 -25.417 -13.004  0.00  0.00    +0.148 HD
ENDROOT
BRANCH   3   8
ATOM      8  C   UNL     1      34.158 -23.462 -14.624  0.00  0.00    +0.039 C 
BRANCH   8   9
ATOM      9  C   UNL     1      35.153 -24.377 -15.349  0.00  0.00    -0.008 C 
BRANCH   9  10
ATOM     10  C   UNL     1      36.219 -25.007 -14.445  0.00  0.00    +0.024 C 
BRANCH  10  13
ATOM     11  O   UNL     1      36.477 -26.850 -15.993  0.00  0.00    -0.278 OA
ATOM     12  N   UNL     1      36.987 -27.200 -13.781  0.00  0.00    -0.330 N 
ATOM     13  C   UNL     1      36.566 -26.430 -14.843  0.00  0.00    +0.200 C 
ATOM     14  H   UNL     1      37.239 -28.141 -13.925  0.00  0.00    +0.145 HD
ATOM     15  H   UNL     1      37.037 -26.810 -12.879  0.00  0.00    +0.145 HD
ENDBRANCH  10  13
BRANCH  10  16
ATOM     16  N   UNL     1      37.438 -24.151 -14.437  0.00  0.00    +0.393 N 
ATOM     17  C   UNL     1      37.408 -23.159 -15.605  0.00  0.00    -0.095 C 
ATOM     18  C   UNL     1      37.531 -23.355 -13.130  0.00  0.00    -0.095 C 
ATOM     19  C   UNL     1      38.701 -25.011 -14.568  0.00  0.00    -0.095 C 
ENDBRANCH  10  16
ENDBRANCH   9  10
ENDBRANCH   8   9
ENDBRANCH   3   8
BRANCH   4  20
ATOM     20  C   UNL     1      29.427 -24.288 -15.909  0.00  0.00    +0.031 C 
BRANCH  20  21
ATOM     21  CA  UNL     1      29.050 -22.823 -16.243  0.00  0.00    +0.046 C 
BRANCH  21  22
ATOM     22  N   UNL     1      28.810 -22.093 -14.958  0.00  0.00    +0.389 N 
ATOM     23  H1  UNL     1      29.657 -21.594 -14.687  0.00  0.00    -0.088 HD
ATOM     24  H2  UNL     1      28.560 -22.761 -14.229  0.00  0.00    -0.088 HD
ATOM     25  H3  UNL     1      28.049 -21.426 -15.083  0.00  0.00    -0.088 HD
ENDBRANCH  21  22
BRANCH  21  28
ATOM     26  O   UNL     1      27.536 -23.850 -17.737  0.00  0.00    -0.248 OA
ATOM     27  OXT UNL     1      27.280 -21.625 -17.277  0.00  0.00    -0.248 OA
ATOM     28  C   UNL     1      27.836 -22.756 -17.181  0.00  0.00    +0.345 C 
ENDBRANCH  21  28
ENDBRANCH  20  21
ENDBRANCH   4  20
TORSDOF 9
ENDMDL
MODEL 4
REMARK VINA RESULT:      -7.7      1.809      2.423
REMARK  Name = 86289080
REMARK  9 active torsions:
REMARK  status: ('A' for Active; 'I' for Inactive)
REMARK    1  A    between atoms: C_3  and  C_8
REMARK    2  A    between atoms: C_4  and  C_20
REMARK    3  A    between atoms: C_8  and  C_9
REMARK    4  A    between atoms: C_9  and  C_10
REMARK    5  A    between atoms: C_10  and  C_13
REMARK    6  A    between atoms: C_10  and  N_16
REMARK    7  A    between atoms: C_20  and  CA_21
REMARK    8  A    between atoms: CA_21  and  N_22
REMARK    9  A    between atoms: CA_21  and  C_28
REMARK                            x       y       z     vdW  Elec       q    Type
REMARK                         _______ _______ _______ _____ _____    ______ ____
ROOT
ATOM      1  N   UNL     1      32.409 -23.163 -16.369  0.00  0.00    -0.321 N 
ATOM      2  N   UNL     1      32.867 -23.074 -14.198  0.00  0.00    -0.317 N 
ATOM      3  C   UNL     1      33.375 -23.217 -15.402  0.00  0.00    +0.143 C 
ATOM      4  C   UNL     1      31.210 -22.973 -15.741  0.00  0.00    +0.036 C 
ATOM      5  C   UNL     1      31.519 -22.921 -14.402  0.00  0.00    +0.069 C 
ATOM      6  H   UNL     1      32.551 -23.247 -17.340  0.00  0.00    +0.148 HD
ATOM      7  H   UNL     1      33.349 -23.075 -13.339  0.00  0.00    +0.148 HD
ENDROOT
BRANCH   3   8
ATOM      8  C   UNL     1      34.828 -23.420 -15.754  0.00  0.00    +0.039 C 
BRANCH   8   9
ATOM      9  C   UNL     1      35.733 -23.232 -14.529  0.00  0.00    -0.008 C 
BRANCH   9  10
ATOM     10  C   UNL     1      36.474 -24.498 -14.081  0.00  0.00    +0.024 C 
BRANCH  10  13
ATOM     11  O   UNL     1      38.604 -23.892 -15.061  0.00  0.00    -0.278 OA
ATOM     12  N   UNL     1      37.834 -26.036 -15.357  0.00  0.00    -0.330 N 
ATOM     13  C   UNL     1      37.745 -24.749 -14.872  0.00  0.00    +0.200 C 
ATOM     14  H   UNL     1      38.619 -26.309 -15.885  0.00  0.00    +0.145 HD
ATOM     15  H   UNL     1      37.113 -26.681 -15.176  0.00  0.00    +0.145 HD
ENDBRANCH  10  13
BRANCH  10  16
ATOM     16  N   UNL     1      36.768 -24.417 -12.624  0.00  0.00    +0.393 N 
ATOM     17  C   UNL     1      37.775 -25.500 -12.216  0.00  0.00    -0.095 C 
ATOM     18  C   UNL     1      37.362 -23.050 -12.268  0.00  0.00    -0.095 C 
ATOM     19  C   UNL     1      35.489 -24.615 -11.803  0.00  0.00    -0.095 C 
ENDBRANCH  10  16
ENDBRANCH   9  10
ENDBRANCH   8   9
ENDBRANCH   3   8
BRANCH   4  20
ATOM     20  C   UNL     1      29.939 -22.866 -16.472  0.00  0.00    +0.031 C 
BRANCH  20  21
ATOM     21  CA  UNL     1      28.684 -23.054 -15.584  0.00  0.00    +0.046 C 
BRANCH  21  22
ATOM     22  N   UNL     1      28.429 -24.522 -15.433  0.00  0.00    +0.389 N 
ATOM     23  H1  UNL     1      27.476 -24.734 -15.728  0.00  0.00    -0.088 HD
ATOM     24  H2  UNL     1      28.550 -24.789 -14.456  0.00  0.00    -0.088 HD
ATOM     25  H3  UNL     1      29.087 -25.044 -16.011  0.00  0.00    -0.088 HD
ENDBRANCH  21  22
BRANCH  21  28
ATOM     26  O   UNL     1      27.688 -21.715 -17.255  0.00  0.00    -0.248 OA
ATOM     27  OXT UNL     1      26.404 -22.400 -15.492  0.00  0.00    -0.248 OA
ATOM     28  C   UNL     1      27.470 -22.315 -16.164  0.00  0.00    +0.345 C 
ENDBRANCH  21  28
ENDBRANCH  20  21
ENDBRANCH   4  20
TORSDOF 9
ENDMDL
MODEL 5
REMARK VINA RESULT:      -7.5      1.311      2.046
REMARK  Name = 86289080
REMARK  9 active torsions:
REMARK  status: ('A' for Active; 'I' for Inactive)
REMARK    1  A    between atoms: C_3  and  C_8
REMARK    2  A    between atoms: C_4  and  C_20
REMARK    3  A    between atoms: C_8  and  C_9
REMARK    4  A    between atoms: C_9  and  C_10
REMARK    5  A    between atoms: C_10  and  C_13
REMARK    6  A    between atoms: C_10  and  N_16
REMARK    7  A    between atoms: C_20  and  CA_21
REMARK    8  A    between atoms: CA_21  and  N_22
REMARK    9  A    between atoms: CA_21  and  C_28
REMARK                            x       y       z     vdW  Elec       q    Type
REMARK                         _______ _______ _______ _____ _____    ______ ____
ROOT
ATOM      1  N   UNL     1      32.624 -23.259 -15.005  0.00  0.00    -0.321 N 
ATOM      2  N   UNL     1      33.168 -23.155 -17.156  0.00  0.00    -0.317 N 
ATOM      3  C   UNL     1      33.622 -23.344 -15.937  0.00  0.00    +0.143 C 
ATOM      4  C   UNL     1      31.461 -22.999 -15.673  0.00  0.00    +0.036 C 
ATOM      5  C   UNL     1      31.822 -22.940 -16.999  0.00  0.00    +0.069 C 
ATOM      6  H   UNL     1      32.726 -23.364 -14.031  0.00  0.00    +0.148 HD
ATOM      7  H   UNL     1      33.681 -23.166 -17.997  0.00  0.00    +0.148 HD
ENDROOT
BRANCH   3   8
ATOM      8  C   UNL     1      35.049 -23.623 -15.536  0.00  0.00    +0.039 C 
BRANCH   8   9
ATOM      9  C   UNL     1      35.118 -24.499 -14.278  0.00  0.00    -0.008 C 
BRANCH   9  10
ATOM     10  C   UNL     1      36.363 -24.277 -13.411  0.00  0.00    +0.024 C 
BRANCH  10  13
ATOM     11  O   UNL     1      35.204 -25.008 -11.415  0.00  0.00    -0.278 OA
ATOM     12  N   UNL     1      36.833 -23.403 -11.207  0.00  0.00    -0.330 N 
ATOM     13  C   UNL     1      36.057 -24.288 -11.924  0.00  0.00    +0.200 C 
ATOM     14  H   UNL     1      36.719 -23.327 -10.232  0.00  0.00    +0.145 HD
ATOM     15  H   UNL     1      37.502 -22.848 -11.669  0.00  0.00    +0.145 HD
ENDBRANCH  10  13
BRANCH  10  16
ATOM     16  N   UNL     1      37.393 -25.300 -13.742  0.00  0.00    +0.393 N 
ATOM     17  C   UNL     1      38.073 -25.814 -12.468  0.00  0.00    -0.095 C 
ATOM     18  C   UNL     1      36.757 -26.494 -14.464  0.00  0.00    -0.095 C 
ATOM     19  C   UNL     1      38.471 -24.704 -14.656  0.00  0.00    -0.095 C 
ENDBRANCH  10  16
ENDBRANCH   9  10
ENDBRANCH   8   9
ENDBRANCH   3   8
BRANCH   4  20
ATOM     20  C   UNL     1      30.170 -22.842 -14.988  0.00  0.00    +0.031 C 
BRANCH  20  21
ATOM     21  CA  UNL     1      29.071 -23.816 -15.482  0.00  0.00    +0.046 C 
BRANCH  21  22
ATOM     22  N   UNL     1      29.715 -25.128 -15.809  0.00  0.00    +0.389 N 
ATOM     23  H1  UNL     1      29.851 -25.664 -14.952  0.00  0.00    -0.088 HD
ATOM     24  H2  UNL     1      30.619 -24.961 -16.253  0.00  0.00    -0.088 HD
ATOM     25  H3  UNL     1      29.116 -25.651 -16.446  0.00  0.00    -0.088 HD
ENDBRANCH  21  22
BRANCH  21  28
ATOM     26  O   UNL     1      28.278 -21.973 -16.728  0.00  0.00    -0.248 OA
ATOM     27  OXT UNL     1      27.802 -24.082 -17.470  0.00  0.00    -0.248 OA
ATOM     28  C   UNL     1      28.304 -23.236 -16.678  0.00  0.00    +0.345 C 
ENDBRANCH  21  28
ENDBRANCH  20  21
ENDBRANCH   4  20
TORSDOF 9
ENDMDL
MODEL 6
REMARK VINA RESULT:      -7.5      4.313      4.917
REMARK  Name = 86289080
REMARK  9 active torsions:
REMARK  status: ('A' for Active; 'I' for Inactive)
REMARK    1  A    between atoms: C_3  and  C_8
REMARK    2  A    between atoms: C_4  and  C_20
REMARK    3  A    between atoms: C_8  and  C_9
REMARK    4  A    between atoms: C_9  and  C_10
REMARK    5  A    between atoms: C_10  and  C_13
REMARK    6  A    between atoms: C_10  and  N_16
REMARK    7  A    between atoms: C_20  and  CA_21
REMARK    8  A    between atoms: CA_21  and  N_22
REMARK    9  A    between atoms: CA_21  and  C_28
REMARK                            x       y       z     vdW  Elec       q    Type
REMARK                         _______ _______ _______ _____ _____    ______ ____
ROOT
ATOM      1  N   UNL     1      35.230 -22.283 -17.775  0.00  0.00    -0.321 N 
ATOM      2  N   UNL     1      34.013 -23.375 -16.272  0.00  0.00    -0.317 N 
ATOM      3  C   UNL     1      35.171 -22.799 -16.510  0.00  0.00    +0.143 C 
ATOM      4  C   UNL     1      34.034 -22.548 -18.382  0.00  0.00    +0.036 C 
ATOM      5  C   UNL     1      33.301 -23.223 -17.435  0.00  0.00    +0.069 C 
ATOM      6  H   UNL     1      35.994 -21.809 -18.176  0.00  0.00    +0.148 HD
ATOM      7  H   UNL     1      33.722 -23.819 -15.443  0.00  0.00    +0.148 HD
ENDROOT
BRANCH   3   8
ATOM      8  C   UNL     1      36.335 -22.680 -15.558  0.00  0.00    +0.039 C 
BRANCH   8   9
ATOM      9  C   UNL     1      36.280 -23.757 -14.466  0.00  0.00    -0.008 C 
BRANCH   9  10
ATOM     10  C   UNL     1      37.596 -23.968 -13.708  0.00  0.00    +0.024 C 
BRANCH  10  13
ATOM     11  O   UNL     1      38.559 -23.160 -11.639  0.00  0.00    -0.278 OA
ATOM     12  N   UNL     1      36.271 -23.272 -11.811  0.00  0.00    -0.330 N 
ATOM     13  C   UNL     1      37.554 -23.428 -12.291  0.00  0.00    +0.200 C 
ATOM     14  H   UNL     1      36.125 -22.927 -10.900  0.00  0.00    +0.145 HD
ATOM     15  H   UNL     1      35.501 -23.505 -12.378  0.00  0.00    +0.145 HD
ENDBRANCH  10  13
BRANCH  10  16
ATOM     16  N   UNL     1      37.949 -25.415 -13.709  0.00  0.00    +0.393 N 
ATOM     17  C   UNL     1      39.471 -25.599 -13.699  0.00  0.00    -0.095 C 
ATOM     18  C   UNL     1      37.371 -26.112 -12.472  0.00  0.00    -0.095 C 
ATOM     19  C   UNL     1      37.387 -26.106 -14.957  0.00  0.00    -0.095 C 
ENDBRANCH  10  16
ENDBRANCH   9  10
ENDBRANCH   8   9
ENDBRANCH   3   8
BRANCH   4  20
ATOM     20  C   UNL     1      33.737 -22.137 -19.762  0.00  0.00    +0.031 C 
BRANCH  20  21
ATOM     21  CA  UNL     1      33.714 -20.603 -19.971  0.00  0.00    +0.046 C 
BRANCH  21  22
ATOM     22  N   UNL     1      32.485 -20.251 -20.751  0.00  0.00    +0.389 N 
ATOM     23  H1  UNL     1      31.657 -20.436 -20.185  0.00  0.00    -0.088 HD
ATOM     24  H2  UNL     1      32.450 -20.814 -21.601  0.00  0.00    -0.088 HD
ATOM     25  H3  UNL     1      32.512 -19.262 -21.000  0.00  0.00    -0.088 HD
ENDBRANCH  21  22
BRANCH  21  28
ATOM     26  O   UNL     1      34.841 -19.736 -21.856  0.00  0.00    -0.248 OA
ATOM     27  OXT UNL     1      36.041 -20.130 -19.950  0.00  0.00    -0.248 OA
ATOM     28  C   UNL     1      34.995 -20.111 -20.659  0.00  0.00    +0.345 C 
ENDBRANCH  21  28
ENDBRANCH  20  21
ENDBRANCH   4  20
TORSDOF 9
ENDMDL
MODEL 7
REMARK VINA RESULT:      -7.4      6.890      8.479
REMARK  Name = 86289080
REMARK  9 active torsions:
REMARK  status: ('A' for Active; 'I' for Inactive)
REMARK    1  A    between atoms: C_3  and  C_8
REMARK    2  A    between atoms: C_4  and  C_20
REMARK    3  A    between atoms: C_8  and  C_9
REMARK    4  A    between atoms: C_9  and  C_10
REMARK    5  A    between atoms: C_10  and  C_13
REMARK    6  A    between atoms: C_10  and  N_16
REMARK    7  A    between atoms: C_20  and  CA_21
REMARK    8  A    between atoms: CA_21  and  N_22
REMARK    9  A    between atoms: CA_21  and  C_28
REMARK                            x       y       z     vdW  Elec       q    Type
REMARK                         _______ _______ _______ _____ _____    ______ ____
ROOT
ATOM      1  N   UNL     1      32.664 -21.824 -18.847  0.00  0.00    -0.321 N 
ATOM      2  N   UNL     1      34.824 -21.608 -19.317  0.00  0.00    -0.317 N 
ATOM      3  C   UNL     1      33.613 -21.175 -19.588  0.00  0.00    +0.143 C 
ATOM      4  C   UNL     1      33.312 -22.728 -18.054  0.00  0.00    +0.036 C 
ATOM      5  C   UNL     1      34.643 -22.576 -18.361  0.00  0.00    +0.069 C 
ATOM      6  H   UNL     1      31.692 -21.669 -18.880  0.00  0.00    +0.148 HD
ATOM      7  H   UNL     1      35.673 -21.305 -19.712  0.00  0.00    +0.148 HD
ENDROOT
BRANCH   3   8
ATOM      8  C   UNL     1      33.237 -20.100 -20.578  0.00  0.00    +0.039 C 
BRANCH   8   9
ATOM      9  C   UNL     1      34.443 -19.224 -20.941  0.00  0.00    -0.008 C 
BRANCH   9  10
ATOM     10  C   UNL     1      34.105 -17.988 -21.783  0.00  0.00    +0.024 C 
BRANCH  10  13
ATOM     11  O   UNL     1      35.108 -16.357 -20.300  0.00  0.00    -0.278 OA
ATOM     12  N   UNL     1      32.991 -15.956 -21.097  0.00  0.00    -0.330 N 
ATOM     13  C   UNL     1      34.146 -16.699 -20.982  0.00  0.00    +0.200 C 
ATOM     14  H   UNL     1      32.908 -15.099 -20.619  0.00  0.00    +0.145 HD
ATOM     15  H   UNL     1      32.250 -16.281 -21.658  0.00  0.00    +0.145 HD
ENDBRANCH  10  13
BRANCH  10  16
ATOM     16  N   UNL     1      35.027 -17.910 -22.951  0.00  0.00    +0.393 N 
ATOM     17  C   UNL     1      35.047 -16.489 -23.528  0.00  0.00    -0.095 C 
ATOM     18  C   UNL     1      36.455 -18.283 -22.538  0.00  0.00    -0.095 C 
ATOM     19  C   UNL     1      34.579 -18.872 -24.056  0.00  0.00    -0.095 C 
ENDBRANCH  10  16
ENDBRANCH   9  10
ENDBRANCH   8   9
ENDBRANCH   3   8
BRANCH   4  20
ATOM     20  C   UNL     1      32.604 -23.612 -17.116  0.00  0.00    +0.031 C 
BRANCH  20  21
ATOM     21  CA  UNL     1      31.902 -22.865 -15.955  0.00  0.00    +0.046 C 
BRANCH  21  22
ATOM     22  N   UNL     1      32.372 -23.456 -14.661  0.00  0.00    +0.389 N 
ATOM     23  H1  UNL     1      33.172 -22.927 -14.316  0.00  0.00    -0.088 HD
ATOM     24  H2  UNL     1      32.645 -24.427 -14.811  0.00  0.00    -0.088 HD
ATOM     25  H3  UNL     1      31.618 -23.417 -13.976  0.00  0.00    -0.088 HD
ENDBRANCH  21  22
BRANCH  21  28
ATOM     26  O   UNL     1      29.920 -22.398 -17.150  0.00  0.00    -0.248 OA
ATOM     27  OXT UNL     1      29.758 -23.486 -15.146  0.00  0.00    -0.248 OA
ATOM     28  C   UNL     1      30.374 -22.921 -16.093  0.00  0.00    +0.345 C 
ENDBRANCH  21  28
ENDBRANCH  20  21
ENDBRANCH   4  20
TORSDOF 9
ENDMDL
MODEL 8
REMARK VINA RESULT:      -7.4      2.525      3.287
REMARK  Name = 86289080
REMARK  9 active torsions:
REMARK  status: ('A' for Active; 'I' for Inactive)
REMARK    1  A    between atoms: C_3  and  C_8
REMARK    2  A    between atoms: C_4  and  C_20
REMARK    3  A    between atoms: C_8  and  C_9
REMARK    4  A    between atoms: C_9  and  C_10
REMARK    5  A    between atoms: C_10  and  C_13
REMARK    6  A    between atoms: C_10  and  N_16
REMARK    7  A    between atoms: C_20  and  CA_21
REMARK    8  A    between atoms: CA_21  and  N_22
REMARK    9  A    between atoms: CA_21  and  C_28
REMARK                            x       y       z     vdW  Elec       q    Type
REMARK                         _______ _______ _______ _____ _____    ______ ____
ROOT
ATOM      1  N   UNL     1      33.197 -23.482 -15.497  0.00  0.00    -0.321 N 
ATOM      2  N   UNL     1      33.728 -22.884 -17.569  0.00  0.00    -0.317 N 
ATOM      3  C   UNL     1      34.200 -23.195 -16.382  0.00  0.00    +0.143 C 
ATOM      4  C   UNL     1      32.012 -23.345 -16.163  0.00  0.00    +0.036 C 
ATOM      5  C   UNL     1      32.365 -22.975 -17.439  0.00  0.00    +0.069 C 
ATOM      6  H   UNL     1      33.309 -23.739 -14.554  0.00  0.00    +0.148 HD
ATOM      7  H   UNL     1      34.240 -22.639 -18.374  0.00  0.00    +0.148 HD
ENDROOT
BRANCH   3   8
ATOM      8  C   UNL     1      35.650 -23.251 -15.971  0.00  0.00    +0.039 C 
BRANCH   8   9
ATOM      9  C   UNL     1      35.911 -24.398 -14.986  0.00  0.00    -0.008 C 
BRANCH   9  10
ATOM     10  C   UNL     1      37.038 -24.134 -13.981  0.00  0.00    +0.024 C 
BRANCH  10  13
ATOM     11  O   UNL     1      37.287 -22.884 -11.922  0.00  0.00    -0.278 OA
ATOM     12  N   UNL     1      35.190 -23.608 -12.515  0.00  0.00    -0.330 N 
ATOM     13  C   UNL     1      36.548 -23.474 -12.705  0.00  0.00    +0.200 C 
ATOM     14  H   UNL     1      34.763 -23.217 -11.718  0.00  0.00    +0.145 HD
ATOM     15  H   UNL     1      34.646 -24.094 -13.176  0.00  0.00    +0.145 HD
ENDBRANCH  10  13
BRANCH  10  16
ATOM     16  N   UNL     1      37.745 -25.408 -13.675  0.00  0.00    +0.393 N 
ATOM     17  C   UNL     1      39.251 -25.164 -13.514  0.00  0.00    -0.095 C 
ATOM     18  C   UNL     1      37.215 -26.022 -12.374  0.00  0.00    -0.095 C 
ATOM     19  C   UNL     1      37.540 -26.423 -14.805  0.00  0.00    -0.095 C 
ENDBRANCH  10  16
ENDBRANCH   9  10
ENDBRANCH   8   9
ENDBRANCH   3   8
BRANCH   4  20
ATOM     20  C   UNL     1      30.710 -23.576 -15.520  0.00  0.00    +0.031 C 
BRANCH  20  21
ATOM     21  CA  UNL     1      30.640 -24.883 -14.691  0.00  0.00    +0.046 C 
BRANCH  21  22
ATOM     22  N   UNL     1      29.216 -25.343 -14.654  0.00  0.00    +0.389 N 
ATOM     23  H1  UNL     1      28.727 -24.877 -13.890  0.00  0.00    -0.088 HD
ATOM     24  H2  UNL     1      29.189 -26.353 -14.510  0.00  0.00    -0.088 HD
ATOM     25  H3  UNL     1      28.761 -25.114 -15.538  0.00  0.00    -0.088 HD
ENDBRANCH  21  22
BRANCH  21  28
ATOM     26  O   UNL     1      32.413 -25.077 -13.143  0.00  0.00    -0.248 OA
ATOM     27  OXT UNL     1      30.444 -24.152 -12.441  0.00  0.00    -0.248 OA
ATOM     28  C   UNL     1      31.219 -24.686 -13.283  0.00  0.00    +0.345 C 
ENDBRANCH  21  28
ENDBRANCH  20  21
ENDBRANCH   4  20
TORSDOF 9
ENDMDL
MODEL 9
REMARK VINA RESULT:      -7.4      4.642      5.645
REMARK  Name = 86289080
REMARK  9 active torsions:
REMARK  status: ('A' for Active; 'I' for Inactive)
REMARK    1  A    between atoms: C_3  and  C_8
REMARK    2  A    between atoms: C_4  and  C_20
REMARK    3  A    between atoms: C_8  and  C_9
REMARK    4  A    between atoms: C_9  and  C_10
REMARK    5  A    between atoms: C_10  and  C_13
REMARK    6  A    between atoms: C_10  and  N_16
REMARK    7  A    between atoms: C_20  and  CA_21
REMARK    8  A    between atoms: CA_21  and  N_22
REMARK    9  A    between atoms: CA_21  and  C_28
REMARK                            x       y       z     vdW  Elec       q    Type
REMARK                         _______ _______ _______ _____ _____    ______ ____
ROOT
ATOM      1  N   UNL     1      34.656 -22.528 -17.854  0.00  0.00    -0.321 N 
ATOM      2  N   UNL     1      36.584 -22.159 -16.816  0.00  0.00    -0.317 N 
ATOM      3  C   UNL     1      35.379 -22.673 -16.702  0.00  0.00    +0.143 C 
ATOM      4  C   UNL     1      35.450 -21.880 -18.758  0.00  0.00    +0.036 C 
ATOM      5  C   UNL     1      36.635 -21.664 -18.094  0.00  0.00    +0.069 C 
ATOM      6  H   UNL     1      33.732 -22.833 -18.003  0.00  0.00    +0.148 HD
ATOM      7  H   UNL     1      37.294 -22.135 -16.133  0.00  0.00    +0.148 HD
ENDROOT
BRANCH   3   8
ATOM      8  C   UNL     1      34.796 -23.353 -15.488  0.00  0.00    +0.039 C 
BRANCH   8   9
ATOM      9  C   UNL     1      35.724 -23.225 -14.273  0.00  0.00    -0.008 C 
BRANCH   9  10
ATOM     10  C   UNL     1      36.471 -24.512 -13.901  0.00  0.00    +0.024 C 
BRANCH  10  13
ATOM     11  O   UNL     1      38.508 -23.938 -15.078  0.00  0.00    -0.278 OA
ATOM     12  N   UNL     1      37.695 -26.077 -15.277  0.00  0.00    -0.330 N 
ATOM     13  C   UNL     1      37.662 -24.784 -14.801  0.00  0.00    +0.200 C 
ATOM     14  H   UNL     1      38.426 -26.364 -15.871  0.00  0.00    +0.145 HD
ATOM     15  H   UNL     1      36.988 -26.713 -15.023  0.00  0.00    +0.145 HD
ENDBRANCH  10  13
BRANCH  10  16
ATOM     16  N   UNL     1      36.894 -24.450 -12.474  0.00  0.00    +0.393 N 
ATOM     17  C   UNL     1      37.461 -23.065 -12.138  0.00  0.00    -0.095 C 
ATOM     18  C   UNL     1      35.706 -24.723 -11.545  0.00  0.00    -0.095 C 
ATOM     19  C   UNL     1      37.978 -25.496 -12.188  0.00  0.00    -0.095 C 
ENDBRANCH  10  16
ENDBRANCH   9  10
ENDBRANCH   8   9
ENDBRANCH   3   8
BRANCH   4  20
ATOM     20  C   UNL     1      34.999 -21.551 -20.117  0.00  0.00    +0.031 C 
BRANCH  20  21
ATOM     21  CA  UNL     1      34.138 -20.266 -20.201  0.00  0.00    +0.046 C 
BRANCH  21  22
ATOM     22  N   UNL     1      32.742 -20.656 -20.577  0.00  0.00    +0.389 N 
ATOM     23  H1  UNL     1      32.270 -21.055 -19.766  0.00  0.00    -0.088 HD
ATOM     24  H2  UNL     1      32.773 -21.346 -21.327  0.00  0.00    -0.088 HD
ATOM     25  H3  UNL     1      32.232 -19.832 -20.895  0.00  0.00    -0.088 HD
ENDBRANCH  21  22
BRANCH  21  28
ATOM     26  O   UNL     1      34.248 -19.290 -22.349  0.00  0.00    -0.248 OA
ATOM     27  OXT UNL     1      35.638 -18.499 -20.716  0.00  0.00    -0.248 OA
ATOM     28  C   UNL     1      34.738 -19.252 -21.185  0.00  0.00    +0.345 C 
ENDBRANCH  21  28
ENDBRANCH  20  21
ENDBRANCH   4  20
TORSDOF 9
ENDMDL
