MODEL 1
REMARK VINA RESULT:      -7.9      0.000      0.000
REMARK  Name = 4828
REMARK  7 active torsions:
REMARK  status: ('A' for Active; 'I' for Inactive)
REMARK    1  A    between atoms: O_1  and  C_4
REMARK    2  A    between atoms: O_1  and  C_12
REMARK    3  A    between atoms: C_12  and  C_13
REMARK    4  A    between atoms: C_13  and  O_14
REMARK    5  A    between atoms: C_13  and  C_16
REMARK    6  A    between atoms: C_16  and  N_17
REMARK    7  A    between atoms: N_17  and  C_20
REMARK                            x       y       z     vdW  Elec       q    Type
REMARK                         _______ _______ _______ _____ _____    ______ ____
ROOT
ATOM      1  O   UNL     1      34.397 -17.825 -22.387  0.00  0.00    -0.473 OA
ENDROOT
BRANCH   1   4
ATOM      2  N   UNL     1      34.136 -21.434 -19.463  0.00  0.00    -0.311 N 
ATOM      3  C   UNL     1      34.337 -19.704 -20.859  0.00  0.00    +0.049 C 
ATOM      4  C   UNL     1      35.046 -18.733 -21.594  0.00  0.00    +0.140 C 
ATOM      5  C   UNL     1      35.054 -20.603 -20.066  0.00  0.00    +0.051 C 
ATOM      6  C   UNL     1      32.958 -20.023 -20.709  0.00  0.00    +0.020 C 
ATOM      7  C   UNL     1      36.443 -18.699 -21.510  0.00  0.00    +0.037 C 
ATOM      8  C   UNL     1      36.451 -20.580 -19.973  0.00  0.00    +0.015 C 
ATOM      9  C   UNL     1      32.867 -21.091 -19.846  0.00  0.00    +0.062 C 
ATOM     10  C   UNL     1      37.132 -19.609 -20.711  0.00  0.00    +0.004 C 
ATOM     11  H   UNL     1      34.360 -22.166 -18.845  0.00  0.00    +0.152 HD
ENDBRANCH   1   4
BRANCH   1  12
ATOM     12  C   UNL     1      34.598 -17.942 -23.791  0.00  0.00    +0.232 C 
BRANCH  12  13
ATOM     13  C   UNL     1      34.835 -16.550 -24.373  0.00  0.00    +0.133 C 
BRANCH  13  14
ATOM     14  O   UNL     1      34.866 -16.649 -25.800  0.00  0.00    -0.383 OA
ATOM     15  H   UNL     1      35.067 -17.562 -26.056  0.00  0.00    +0.210 HD
ENDBRANCH  13  14
BRANCH  13  16
ATOM     16  C   UNL     1      33.751 -15.540 -23.989  0.00  0.00    -0.048 C 
BRANCH  16  17
ATOM     17  N   UNL     1      33.989 -14.956 -22.676  0.00  0.00    +0.387 N 
ATOM     18  H   UNL     1      34.463 -14.060 -22.790  0.00  0.00    -0.084 HD
ATOM     19  H   UNL     1      34.565 -15.598 -22.133  0.00  0.00    -0.084 HD
BRANCH  17  20
ATOM     20  C   UNL     1      32.734 -14.742 -21.966  0.00  0.00    -0.062 C 
ATOM     21  C   UNL     1      32.285 -13.291 -22.109  0.00  0.00    -0.023 C 
ATOM     22  C   UNL     1      32.912 -15.120 -20.498  0.00  0.00    -0.023 C 
ENDBRANCH  17  20
ENDBRANCH  16  17
ENDBRANCH  13  16
ENDBRANCH  12  13
ENDBRANCH   1  12
TORSDOF 7
ENDMDL
MODEL 2
REMARK VINA RESULT:      -7.7      4.357      8.413
REMARK  Name = 4828
REMARK  7 active torsions:
REMARK  status: ('A' for Active; 'I' for Inactive)
REMARK    1  A    between atoms: O_1  and  C_4
REMARK    2  A    between atoms: O_1  and  C_12
REMARK    3  A    between atoms: C_12  and  C_13
REMARK    4  A    between atoms: C_13  and  O_14
REMARK    5  A    between atoms: C_13  and  C_16
REMARK    6  A    between atoms: C_16  and  N_17
REMARK    7  A    between atoms: N_17  and  C_20
REMARK                            x       y       z     vdW  Elec       q    Type
REMARK                         _______ _______ _______ _____ _____    ______ ____
ROOT
ATOM      1  O   UNL     1      35.584 -22.411 -18.802  0.00  0.00    -0.473 OA
ENDROOT
BRANCH   1   4
ATOM      2  N   UNL     1      35.586 -18.623 -21.504  0.00  0.00    -0.311 N 
ATOM      3  C   UNL     1      35.509 -20.440 -20.210  0.00  0.00    +0.049 C 
ATOM      4  C   UNL     1      34.868 -21.472 -19.496  0.00  0.00    +0.140 C 
ATOM      5  C   UNL     1      34.725 -19.512 -20.898  0.00  0.00    +0.051 C 
ATOM      6  C   UNL     1      36.869 -20.078 -20.423  0.00  0.00    +0.020 C 
ATOM      7  C   UNL     1      33.470 -21.536 -19.497  0.00  0.00    +0.037 C 
ATOM      8  C   UNL     1      33.326 -19.564 -20.908  0.00  0.00    +0.015 C 
ATOM      9  C   UNL     1      36.883 -18.958 -21.222  0.00  0.00    +0.062 C 
ATOM     10  C   UNL     1      32.713 -20.595 -20.193  0.00  0.00    +0.004 C 
ATOM     11  H   UNL     1      35.308 -17.858 -22.057  0.00  0.00    +0.152 HD
ENDBRANCH   1   4
BRANCH   1  12
ATOM     12  C   UNL     1      35.626 -22.266 -17.387  0.00  0.00    +0.232 C 
BRANCH  12  13
ATOM     13  C   UNL     1      37.075 -22.045 -16.958  0.00  0.00    +0.133 C 
BRANCH  13  14
ATOM     14  O   UNL     1      37.340 -20.639 -16.944  0.00  0.00    -0.383 OA
ATOM     15  H   UNL     1      37.598 -20.350 -17.832  0.00  0.00    +0.210 HD
ENDBRANCH  13  14
BRANCH  13  16
ATOM     16  C   UNL     1      37.386 -22.602 -15.566  0.00  0.00    -0.048 C 
BRANCH  16  17
ATOM     17  N   UNL     1      38.155 -23.837 -15.630  0.00  0.00    +0.387 N 
ATOM     18  H   UNL     1      39.142 -23.625 -15.478  0.00  0.00    -0.084 HD
ATOM     19  H   UNL     1      38.018 -24.258 -16.549  0.00  0.00    -0.084 HD
BRANCH  17  20
ATOM     20  C   UNL     1      37.710 -24.782 -14.614  0.00  0.00    -0.062 C 
ATOM     21  C   UNL     1      38.744 -25.888 -14.430  0.00  0.00    -0.023 C 
ATOM     22  C   UNL     1      36.356 -25.358 -15.017  0.00  0.00    -0.023 C 
ENDBRANCH  17  20
ENDBRANCH  16  17
ENDBRANCH  13  16
ENDBRANCH  12  13
ENDBRANCH   1  12
TORSDOF 7
ENDMDL
MODEL 3
REMARK VINA RESULT:      -7.7      1.117      2.378
REMARK  Name = 4828
REMARK  7 active torsions:
REMARK  status: ('A' for Active; 'I' for Inactive)
REMARK    1  A    between atoms: O_1  and  C_4
REMARK    2  A    between atoms: O_1  and  C_12
REMARK    3  A    between atoms: C_12  and  C_13
REMARK    4  A    between atoms: C_13  and  O_14
REMARK    5  A    between atoms: C_13  and  C_16
REMARK    6  A    between atoms: C_16  and  N_17
REMARK    7  A    between atoms: N_17  and  C_20
REMARK                            x       y       z     vdW  Elec       q    Type
REMARK                         _______ _______ _______ _____ _____    ______ ____
ROOT
ATOM      1  O   UNL     1      35.524 -18.722 -22.232  0.00  0.00    -0.473 OA
ENDROOT
BRANCH   1   4
ATOM      2  N   UNL     1      35.417 -21.838 -18.779  0.00  0.00    -0.311 N 
ATOM      3  C   UNL     1      35.392 -20.343 -20.436  0.00  0.00    +0.049 C 
ATOM      4  C   UNL     1      34.781 -19.494 -21.379  0.00  0.00    +0.140 C 
ATOM      5  C   UNL     1      34.581 -21.107 -19.594  0.00  0.00    +0.051 C 
ATOM      6  C   UNL     1      36.742 -20.642 -20.098  0.00  0.00    +0.020 C 
ATOM      7  C   UNL     1      33.383 -19.441 -21.445  0.00  0.00    +0.037 C 
ATOM      8  C   UNL     1      33.183 -21.064 -19.648  0.00  0.00    +0.015 C 
ATOM      9  C   UNL     1      36.725 -21.563 -19.077  0.00  0.00    +0.062 C 
ATOM     10  C   UNL     1      32.599 -20.215 -20.591  0.00  0.00    +0.004 C 
ATOM     11  H   UNL     1      35.117 -22.468 -18.084  0.00  0.00    +0.152 HD
ENDBRANCH   1   4
BRANCH   1  12
ATOM     12  C   UNL     1      35.156 -18.751 -23.606  0.00  0.00    +0.232 C 
BRANCH  12  13
ATOM     13  C   UNL     1      35.168 -17.323 -24.149  0.00  0.00    +0.133 C 
BRANCH  13  14
ATOM     14  O   UNL     1      34.759 -17.350 -25.519  0.00  0.00    -0.383 OA
ATOM     15  H   UNL     1      35.396 -17.867 -26.036  0.00  0.00    +0.210 HD
ENDBRANCH  13  14
BRANCH  13  16
ATOM     16  C   UNL     1      34.232 -16.379 -23.390  0.00  0.00    -0.048 C 
BRANCH  16  17
ATOM     17  N   UNL     1      34.812 -15.926 -22.133  0.00  0.00    +0.387 N 
ATOM     18  H   UNL     1      35.827 -15.886 -22.229  0.00  0.00    -0.084 HD
ATOM     19  H   UNL     1      34.548 -16.582 -21.399  0.00  0.00    -0.084 HD
BRANCH  17  20
ATOM     20  C   UNL     1      34.315 -14.604 -21.777  0.00  0.00    -0.062 C 
ATOM     21  C   UNL     1      33.079 -14.723 -20.891  0.00  0.00    -0.023 C 
ATOM     22  C   UNL     1      34.005 -13.819 -23.048  0.00  0.00    -0.023 C 
ENDBRANCH  17  20
ENDBRANCH  16  17
ENDBRANCH  13  16
ENDBRANCH  12  13
ENDBRANCH   1  12
TORSDOF 7
ENDMDL
MODEL 4
REMARK VINA RESULT:      -7.7      2.707      4.154
REMARK  Name = 4828
REMARK  7 active torsions:
REMARK  status: ('A' for Active; 'I' for Inactive)
REMARK    1  A    between atoms: O_1  and  C_4
REMARK    2  A    between atoms: O_1  and  C_12
REMARK    3  A    between atoms: C_12  and  C_13
REMARK    4  A    between atoms: C_13  and  O_14
REMARK    5  A    between atoms: C_13  and  C_16
REMARK    6  A    between atoms: C_16  and  N_17
REMARK    7  A    between atoms: N_17  and  C_20
REMARK                            x       y       z     vdW  Elec       q    Type
REMARK                         _______ _______ _______ _____ _____    ______ ____
ROOT
ATOM      1  O   UNL     1      34.965 -15.046 -23.164  0.00  0.00    -0.473 OA
ENDROOT
BRANCH   1   4
ATOM      2  N   UNL     1      35.008 -19.561 -22.042  0.00  0.00    -0.311 N 
ATOM      3  C   UNL     1      34.973 -17.415 -22.652  0.00  0.00    +0.049 C 
ATOM      4  C   UNL     1      34.839 -16.350 -23.565  0.00  0.00    +0.140 C 
ATOM      5  C   UNL     1      34.834 -18.723 -23.121  0.00  0.00    +0.051 C 
ATOM      6  C   UNL     1      35.236 -17.497 -21.256  0.00  0.00    +0.020 C 
ATOM      7  C   UNL     1      34.571 -16.633 -24.910  0.00  0.00    +0.037 C 
ATOM      8  C   UNL     1      34.566 -19.021 -24.462  0.00  0.00    +0.015 C 
ATOM      9  C   UNL     1      35.252 -18.829 -20.911  0.00  0.00    +0.062 C 
ATOM     10  C   UNL     1      34.438 -17.949 -25.349  0.00  0.00    +0.004 C 
ATOM     11  H   UNL     1      34.965 -20.544 -22.079  0.00  0.00    +0.152 HD
ENDBRANCH   1   4
BRANCH   1  12
ATOM     12  C   UNL     1      33.906 -14.513 -22.378  0.00  0.00    +0.232 C 
BRANCH  12  13
ATOM     13  C   UNL     1      32.820 -13.980 -23.310  0.00  0.00    +0.133 C 
BRANCH  13  14
ATOM     14  O   UNL     1      31.892 -13.210 -22.540  0.00  0.00    -0.383 OA
ATOM     15  H   UNL     1      31.176 -12.899 -23.115  0.00  0.00    +0.210 HD
ENDBRANCH  13  14
BRANCH  13  16
ATOM     16  C   UNL     1      33.366 -13.089 -24.429  0.00  0.00    -0.048 C 
BRANCH  16  17
ATOM     17  N   UNL     1      34.246 -12.047 -23.918  0.00  0.00    +0.387 N 
ATOM     18  H   UNL     1      35.207 -12.259 -24.186  0.00  0.00    -0.084 HD
ATOM     19  H   UNL     1      34.158 -12.015 -22.903  0.00  0.00    -0.084 HD
BRANCH  17  20
ATOM     20  C   UNL     1      33.878 -10.744 -24.458  0.00  0.00    -0.062 C 
ATOM     21  C   UNL     1      35.129  -9.956 -24.835  0.00  0.00    -0.023 C 
ATOM     22  C   UNL     1      33.042  -9.987 -23.430  0.00  0.00    -0.023 C 
ENDBRANCH  17  20
ENDBRANCH  16  17
ENDBRANCH  13  16
ENDBRANCH  12  13
ENDBRANCH   1  12
TORSDOF 7
ENDMDL
MODEL 5
REMARK VINA RESULT:      -7.5      1.471      2.636
REMARK  Name = 4828
REMARK  7 active torsions:
REMARK  status: ('A' for Active; 'I' for Inactive)
REMARK    1  A    between atoms: O_1  and  C_4
REMARK    2  A    between atoms: O_1  and  C_12
REMARK    3  A    between atoms: C_12  and  C_13
REMARK    4  A    between atoms: C_13  and  O_14
REMARK    5  A    between atoms: C_13  and  C_16
REMARK    6  A    between atoms: C_16  and  N_17
REMARK    7  A    between atoms: N_17  and  C_20
REMARK                            x       y       z     vdW  Elec       q    Type
REMARK                         _______ _______ _______ _____ _____    ______ ____
ROOT
ATOM      1  O   UNL     1      34.247 -17.822 -21.583  0.00  0.00    -0.473 OA
ENDROOT
BRANCH   1   4
ATOM      2  N   UNL     1      34.271 -21.924 -19.389  0.00  0.00    -0.311 N 
ATOM      3  C   UNL     1      34.335 -19.958 -20.443  0.00  0.00    +0.049 C 
ATOM      4  C   UNL     1      34.969 -18.854 -21.047  0.00  0.00    +0.140 C 
ATOM      5  C   UNL     1      35.126 -20.980 -19.913  0.00  0.00    +0.051 C 
ATOM      6  C   UNL     1      32.978 -20.321 -20.218  0.00  0.00    +0.020 C 
ATOM      7  C   UNL     1      36.368 -18.815 -21.100  0.00  0.00    +0.037 C 
ATOM      8  C   UNL     1      36.525 -20.954 -19.959  0.00  0.00    +0.015 C 
ATOM      9  C   UNL     1      32.971 -21.534 -19.569  0.00  0.00    +0.062 C 
ATOM     10  C   UNL     1      37.131 -19.850 -20.563  0.00  0.00    +0.004 C 
ATOM     11  H   UNL     1      34.553 -22.758 -18.948  0.00  0.00    +0.152 HD
ENDBRANCH   1   4
BRANCH   1  12
ATOM     12  C   UNL     1      34.577 -16.511 -21.139  0.00  0.00    +0.232 C 
BRANCH  12  13
ATOM     13  C   UNL     1      33.621 -15.514 -21.791  0.00  0.00    +0.133 C 
BRANCH  13  14
ATOM     14  O   UNL     1      33.789 -14.240 -21.162  0.00  0.00    -0.383 OA
ATOM     15  H   UNL     1      34.708 -14.143 -20.870  0.00  0.00    +0.210 HD
ENDBRANCH  13  14
BRANCH  13  16
ATOM     16  C   UNL     1      33.859 -15.340 -23.293  0.00  0.00    -0.048 C 
BRANCH  16  17
ATOM     17  N   UNL     1      35.014 -16.097 -23.755  0.00  0.00    +0.387 N 
ATOM     18  H   UNL     1      35.176 -16.881 -23.121  0.00  0.00    -0.084 HD
ATOM     19  H   UNL     1      35.824 -15.479 -23.770  0.00  0.00    -0.084 HD
BRANCH  17  20
ATOM     20  C   UNL     1      34.796 -16.611 -25.101  0.00  0.00    -0.062 C 
ATOM     21  C   UNL     1      33.642 -15.870 -25.769  0.00  0.00    -0.023 C 
ATOM     22  C   UNL     1      34.520 -18.110 -25.033  0.00  0.00    -0.023 C 
ENDBRANCH  17  20
ENDBRANCH  16  17
ENDBRANCH  13  16
ENDBRANCH  12  13
ENDBRANCH   1  12
TORSDOF 7
ENDMDL
MODEL 6
REMARK VINA RESULT:      -7.5      2.868      4.368
REMARK  Name = 4828
REMARK  7 active torsions:
REMARK  status: ('A' for Active; 'I' for Inactive)
REMARK    1  A    between atoms: O_1  and  C_4
REMARK    2  A    between atoms: O_1  and  C_12
REMARK    3  A    between atoms: C_12  and  C_13
REMARK    4  A    between atoms: C_13  and  O_14
REMARK    5  A    between atoms: C_13  and  C_16
REMARK    6  A    between atoms: C_16  and  N_17
REMARK    7  A    between atoms: N_17  and  C_20
REMARK                            x       y       z     vdW  Elec       q    Type
REMARK                         _______ _______ _______ _____ _____    ______ ____
ROOT
ATOM      1  O   UNL     1      34.895 -14.849 -22.419  0.00  0.00    -0.473 OA
ENDROOT
BRANCH   1   4
ATOM      2  N   UNL     1      34.555 -18.950 -24.589  0.00  0.00    -0.311 N 
ATOM      3  C   UNL     1      34.726 -17.020 -23.482  0.00  0.00    +0.049 C 
ATOM      4  C   UNL     1      34.884 -16.216 -22.336  0.00  0.00    +0.140 C 
ATOM      5  C   UNL     1      34.722 -18.408 -23.334  0.00  0.00    +0.051 C 
ATOM      6  C   UNL     1      34.554 -16.747 -24.869  0.00  0.00    +0.020 C 
ATOM      7  C   UNL     1      35.033 -16.830 -21.087  0.00  0.00    +0.037 C 
ATOM      8  C   UNL     1      34.871 -19.036 -22.092  0.00  0.00    +0.015 C 
ATOM      9  C   UNL     1      34.452 -17.953 -25.523  0.00  0.00    +0.062 C 
ATOM     10  C   UNL     1      35.026 -18.218 -20.969  0.00  0.00    +0.004 C 
ATOM     11  H   UNL     1      34.513 -19.913 -24.787  0.00  0.00    +0.152 HD
ENDBRANCH   1   4
BRANCH   1  12
ATOM     12  C   UNL     1      33.766 -14.166 -21.885  0.00  0.00    +0.232 C 
BRANCH  12  13
ATOM     13  C   UNL     1      32.769 -13.907 -23.012  0.00  0.00    +0.133 C 
BRANCH  13  14
ATOM     14  O   UNL     1      31.756 -13.018 -22.532  0.00  0.00    -0.383 OA
ATOM     15  H   UNL     1      32.145 -12.398 -21.896  0.00  0.00    +0.210 HD
ENDBRANCH  13  14
BRANCH  13  16
ATOM     16  C   UNL     1      33.408 -13.276 -24.252  0.00  0.00    -0.048 C 
BRANCH  16  17
ATOM     17  N   UNL     1      34.281 -12.162 -23.911  0.00  0.00    +0.387 N 
ATOM     18  H   UNL     1      35.248 -12.423 -24.108  0.00  0.00    -0.084 HD
ATOM     19  H   UNL     1      34.165 -11.948 -22.922  0.00  0.00    -0.084 HD
BRANCH  17  20
ATOM     20  C   UNL     1      33.941 -10.977 -24.688  0.00  0.00    -0.062 C 
ATOM     21  C   UNL     1      35.172 -10.454 -25.422  0.00  0.00    -0.023 C 
ATOM     22  C   UNL     1      33.362  -9.913 -23.761  0.00  0.00    -0.023 C 
ENDBRANCH  17  20
ENDBRANCH  16  17
ENDBRANCH  13  16
ENDBRANCH  12  13
ENDBRANCH   1  12
TORSDOF 7
ENDMDL
MODEL 7
REMARK VINA RESULT:      -7.5      1.459      2.368
REMARK  Name = 4828
REMARK  7 active torsions:
REMARK  status: ('A' for Active; 'I' for Inactive)
REMARK    1  A    between atoms: O_1  and  C_4
REMARK    2  A    between atoms: O_1  and  C_12
REMARK    3  A    between atoms: C_12  and  C_13
REMARK    4  A    between atoms: C_13  and  O_14
REMARK    5  A    between atoms: C_13  and  C_16
REMARK    6  A    between atoms: C_16  and  N_17
REMARK    7  A    between atoms: N_17  and  C_20
REMARK                            x       y       z     vdW  Elec       q    Type
REMARK                         _______ _______ _______ _____ _____    ______ ____
ROOT
ATOM      1  O   UNL     1      34.373 -17.867 -22.184  0.00  0.00    -0.473 OA
ENDROOT
BRANCH   1   4
ATOM      2  N   UNL     1      34.173 -21.575 -19.382  0.00  0.00    -0.311 N 
ATOM      3  C   UNL     1      34.345 -19.798 -20.721  0.00  0.00    +0.049 C 
ATOM      4  C   UNL     1      35.038 -18.801 -21.436  0.00  0.00    +0.140 C 
ATOM      5  C   UNL     1      35.078 -20.723 -19.975  0.00  0.00    +0.051 C 
ATOM      6  C   UNL     1      32.969 -20.125 -20.555  0.00  0.00    +0.020 C 
ATOM      7  C   UNL     1      36.436 -18.768 -21.379  0.00  0.00    +0.037 C 
ATOM      8  C   UNL     1      36.476 -20.702 -19.909  0.00  0.00    +0.015 C 
ATOM      9  C   UNL     1      32.896 -21.221 -19.728  0.00  0.00    +0.062 C 
ATOM     10  C   UNL     1      37.142 -19.704 -20.626  0.00  0.00    +0.004 C 
ATOM     11  H   UNL     1      34.410 -22.329 -18.795  0.00  0.00    +0.152 HD
ENDBRANCH   1   4
BRANCH   1  12
ATOM     12  C   UNL     1      34.962 -16.574 -22.265  0.00  0.00    +0.232 C 
BRANCH  12  13
ATOM     13  C   UNL     1      34.205 -15.629 -21.334  0.00  0.00    +0.133 C 
BRANCH  13  14
ATOM     14  O   UNL     1      34.909 -15.548 -20.091  0.00  0.00    -0.383 OA
ATOM     15  H   UNL     1      35.751 -15.087 -20.226  0.00  0.00    +0.210 HD
ENDBRANCH  13  14
BRANCH  13  16
ATOM     16  C   UNL     1      34.064 -14.211 -21.895  0.00  0.00    -0.048 C 
BRANCH  16  17
ATOM     17  N   UNL     1      34.454 -14.136 -23.296  0.00  0.00    +0.387 N 
ATOM     18  H   UNL     1      34.649 -15.077 -23.640  0.00  0.00    -0.084 HD
ATOM     19  H   UNL     1      35.285 -13.550 -23.372  0.00  0.00    -0.084 HD
BRANCH  17  20
ATOM     20  C   UNL     1      33.393 -13.546 -24.101  0.00  0.00    -0.062 C 
ATOM     21  C   UNL     1      33.096 -14.424 -25.312  0.00  0.00    -0.023 C 
ATOM     22  C   UNL     1      33.805 -12.141 -24.531  0.00  0.00    -0.023 C 
ENDBRANCH  17  20
ENDBRANCH  16  17
ENDBRANCH  13  16
ENDBRANCH  12  13
ENDBRANCH   1  12
TORSDOF 7
ENDMDL
MODEL 8
REMARK VINA RESULT:      -7.4      2.317      4.019
REMARK  Name = 4828
REMARK  7 active torsions:
REMARK  status: ('A' for Active; 'I' for Inactive)
REMARK    1  A    between atoms: O_1  and  C_4
REMARK    2  A    between atoms: O_1  and  C_12
REMARK    3  A    between atoms: C_12  and  C_13
REMARK    4  A    between atoms: C_13  and  O_14
REMARK    5  A    between atoms: C_13  and  C_16
REMARK    6  A    between atoms: C_16  and  N_17
REMARK    7  A    between atoms: N_17  and  C_20
REMARK                            x       y       z     vdW  Elec       q    Type
REMARK                         _______ _______ _______ _____ _____    ______ ____
ROOT
ATOM      1  O   UNL     1      35.021 -15.031 -22.859  0.00  0.00    -0.473 OA
ENDROOT
BRANCH   1   4
ATOM      2  N   UNL     1      34.937 -19.630 -22.160  0.00  0.00    -0.311 N 
ATOM      3  C   UNL     1      34.963 -17.436 -22.569  0.00  0.00    +0.049 C 
ATOM      4  C   UNL     1      34.874 -16.289 -23.381  0.00  0.00    +0.140 C 
ATOM      5  C   UNL     1      34.806 -18.692 -23.160  0.00  0.00    +0.051 C 
ATOM      6  C   UNL     1      35.194 -17.654 -21.181  0.00  0.00    +0.020 C 
ATOM      7  C   UNL     1      34.630 -16.440 -24.752  0.00  0.00    +0.037 C 
ATOM      8  C   UNL     1      34.561 -18.858 -24.528  0.00  0.00    +0.015 C 
ATOM      9  C   UNL     1      35.171 -19.012 -20.961  0.00  0.00    +0.062 C 
ATOM     10  C   UNL     1      34.476 -17.706 -25.314  0.00  0.00    +0.004 C 
ATOM     11  H   UNL     1      34.872 -20.604 -22.288  0.00  0.00    +0.152 HD
ENDBRANCH   1   4
BRANCH   1  12
ATOM     12  C   UNL     1      33.992 -14.093 -23.151  0.00  0.00    +0.232 C 
BRANCH  12  13
ATOM     13  C   UNL     1      32.904 -14.207 -22.084  0.00  0.00    +0.133 C 
BRANCH  13  14
ATOM     14  O   UNL     1      33.525 -14.481 -20.825  0.00  0.00    -0.383 OA
ATOM     15  H   UNL     1      33.171 -13.879 -20.152  0.00  0.00    +0.210 HD
ENDBRANCH  13  14
BRANCH  13  16
ATOM     16  C   UNL     1      32.066 -12.934 -21.936  0.00  0.00    -0.048 C 
BRANCH  16  17
ATOM     17  N   UNL     1      31.944 -12.518 -20.545  0.00  0.00    +0.387 N 
ATOM     18  H   UNL     1      32.877 -12.366 -20.159  0.00  0.00    -0.084 HD
ATOM     19  H   UNL     1      31.459 -13.250 -20.028  0.00  0.00    -0.084 HD
BRANCH  17  20
ATOM     20  C   UNL     1      31.177 -11.284 -20.436  0.00  0.00    -0.062 C 
ATOM     21  C   UNL     1      31.619 -10.290 -21.506  0.00  0.00    -0.023 C 
ATOM     22  C   UNL     1      31.354 -10.700 -19.038  0.00  0.00    -0.023 C 
ENDBRANCH  17  20
ENDBRANCH  16  17
ENDBRANCH  13  16
ENDBRANCH  12  13
ENDBRANCH   1  12
TORSDOF 7
ENDMDL
MODEL 9
REMARK VINA RESULT:      -7.3      5.128      8.731
REMARK  Name = 4828
REMARK  7 active torsions:
REMARK  status: ('A' for Active; 'I' for Inactive)
REMARK    1  A    between atoms: O_1  and  C_4
REMARK    2  A    between atoms: O_1  and  C_12
REMARK    3  A    between atoms: C_12  and  C_13
REMARK    4  A    between atoms: C_13  and  O_14
REMARK    5  A    between atoms: C_13  and  C_16
REMARK    6  A    between atoms: C_16  and  N_17
REMARK    7  A    between atoms: N_17  and  C_20
REMARK                            x       y       z     vdW  Elec       q    Type
REMARK                         _______ _______ _______ _____ _____    ______ ____
ROOT
ATOM      1  O   UNL     1      32.268 -10.426 -23.278  0.00  0.00    -0.473 OA
ENDROOT
BRANCH   1   4
ATOM      2  N   UNL     1      32.083  -7.968 -19.333  0.00  0.00    -0.311 N 
ATOM      3  C   UNL     1      32.150  -9.209 -21.186  0.00  0.00    +0.049 C 
ATOM      4  C   UNL     1      32.026 -10.399 -21.931  0.00  0.00    +0.140 C 
ATOM      5  C   UNL     1      31.891  -9.244 -19.814  0.00  0.00    +0.051 C 
ATOM      6  C   UNL     1      32.505  -7.869 -21.510  0.00  0.00    +0.020 C 
ATOM      7  C   UNL     1      31.646 -11.577 -21.276  0.00  0.00    +0.037 C 
ATOM      8  C   UNL     1      31.511 -10.414 -19.147  0.00  0.00    +0.015 C 
ATOM      9  C   UNL     1      32.454  -7.130 -20.351  0.00  0.00    +0.062 C 
ATOM     10  C   UNL     1      31.394 -11.582 -19.905  0.00  0.00    +0.004 C 
ATOM     11  H   UNL     1      31.971  -7.697 -18.393  0.00  0.00    +0.152 HD
ENDBRANCH   1   4
BRANCH   1  12
ATOM     12  C   UNL     1      33.630 -10.376 -23.685  0.00  0.00    +0.232 C 
BRANCH  12  13
ATOM     13  C   UNL     1      33.802 -11.231 -24.939  0.00  0.00    +0.133 C 
BRANCH  13  14
ATOM     14  O   UNL     1      35.112 -11.010 -25.468  0.00  0.00    -0.383 OA
ATOM     15  H   UNL     1      35.172 -10.107 -25.816  0.00  0.00    +0.210 HD
ENDBRANCH  13  14
BRANCH  13  16
ATOM     16  C   UNL     1      33.640 -12.730 -24.676  0.00  0.00    -0.048 C 
BRANCH  16  17
ATOM     17  N   UNL     1      34.132 -13.111 -23.360  0.00  0.00    +0.387 N 
ATOM     18  H   UNL     1      33.578 -12.637 -22.645  0.00  0.00    -0.084 HD
ATOM     19  H   UNL     1      35.112 -12.841 -23.288  0.00  0.00    -0.084 HD
BRANCH  17  20
ATOM     20  C   UNL     1      34.029 -14.551 -23.162  0.00  0.00    -0.062 C 
ATOM     21  C   UNL     1      33.749 -15.249 -24.489  0.00  0.00    -0.023 C 
ATOM     22  C   UNL     1      32.931 -14.847 -22.145  0.00  0.00    -0.023 C 
ENDBRANCH  17  20
ENDBRANCH  16  17
ENDBRANCH  13  16
ENDBRANCH  12  13
ENDBRANCH   1  12
TORSDOF 7
ENDMDL
