MODEL 1
REMARK VINA RESULT:     -10.5      0.000      0.000
REMARK  Name = 5289566
REMARK  8 active torsions:
REMARK  status: ('A' for Active; 'I' for Inactive)
REMARK    1  A    between atoms: O_1  and  C_3
REMARK    2  A    between atoms: O_1  and  C_14
REMARK    3  A    between atoms: C_2  and  C_12
REMARK    4  A    between atoms: C_14  and  C_15
REMARK    5  A    between atoms: C_15  and  C_16
REMARK    6  A    between atoms: C_16  and  C_17
REMARK    7  A    between atoms: C_17  and  C_18
REMARK    8  A    between atoms: C_18  and  C_21
REMARK                            x       y       z     vdW  Elec       q    Type
REMARK                         _______ _______ _______ _____ _____    ______ ____
ROOT
ATOM      1  O   UNL     1      33.878 -23.394 -18.235  0.00  0.00    -0.475 OA
ENDROOT
BRANCH   1   3
ATOM      2  C   UNL     1      34.679 -20.062 -20.577  0.00  0.00    +0.053 C 
ATOM      3  C   UNL     1      34.142 -22.293 -19.008  0.00  0.00    +0.139 C 
ATOM      4  C   UNL     1      33.360 -20.414 -20.294  0.00  0.00    +0.008 C 
ATOM      5  C   UNL     1      35.730 -20.829 -20.072  0.00  0.00    +0.008 C 
ATOM      6  C   UNL     1      33.090 -21.534 -19.506  0.00  0.00    +0.037 C 
ATOM      7  C   UNL     1      35.460 -21.948 -19.285  0.00  0.00    +0.037 C 
BRANCH   2  12
ATOM      8  O   UNL     1      35.066 -17.719 -20.720  0.00  0.00    -0.458 OA
ATOM      9  N   UNL     1      35.105 -18.871 -22.695  0.00  0.00    -0.236 NA
ATOM     10  C   UNL     1      35.459 -17.472 -22.984  0.00  0.00    +0.150 C 
ATOM     11  C   UNL     1      35.084 -16.716 -21.725  0.00  0.00    +0.231 C 
ATOM     12  C   UNL     1      34.962 -18.882 -21.407  0.00  0.00    +0.220 C 
ATOM     13  C   UNL     1      34.723 -16.985 -24.218  0.00  0.00    +0.030 C 
ENDBRANCH   2  12
ENDBRANCH   1   3
BRANCH   1  14
ATOM     14  C   UNL     1      33.740 -23.177 -16.837  0.00  0.00    +0.205 C 
BRANCH  14  15
ATOM     15  C   UNL     1      32.261 -23.216 -16.477  0.00  0.00    +0.047 C 
BRANCH  15  16
ATOM     16  C   UNL     1      32.051 -23.392 -14.976  0.00  0.00    +0.004 C 
BRANCH  16  17
ATOM     17  C   UNL     1      30.594 -23.139 -14.584  0.00  0.00    +0.008 C 
BRANCH  17  18
ATOM     18  C   UNL     1      29.655 -24.147 -15.253  0.00  0.00    +0.067 C 
BRANCH  18  21
ATOM     19  O   UNL     1      28.289 -24.092 -17.230  0.00  0.00    -0.358 OA
ATOM     20  N   UNL     1      27.326 -23.331 -17.882  0.00  0.00    -0.082 NA
ATOM     21  C   UNL     1      28.612 -23.456 -16.095  0.00  0.00    +0.154 C 
ATOM     22  C   UNL     1      27.927 -22.313 -15.936  0.00  0.00    +0.054 C 
ATOM     23  C   UNL     1      27.126 -22.274 -17.090  0.00  0.00    +0.101 C 
ATOM     24  C   UNL     1      26.151 -21.241 -17.477  0.00  0.00    +0.056 C 
ENDBRANCH  18  21
ENDBRANCH  17  18
ENDBRANCH  16  17
ENDBRANCH  15  16
ENDBRANCH  14  15
ENDBRANCH   1  14
TORSDOF 8
ENDMDL
MODEL 2
REMARK VINA RESULT:     -10.0      3.815      6.089
REMARK  Name = 5289566
REMARK  8 active torsions:
REMARK  status: ('A' for Active; 'I' for Inactive)
REMARK    1  A    between atoms: O_1  and  C_3
REMARK    2  A    between atoms: O_1  and  C_14
REMARK    3  A    between atoms: C_2  and  C_12
REMARK    4  A    between atoms: C_14  and  C_15
REMARK    5  A    between atoms: C_15  and  C_16
REMARK    6  A    between atoms: C_16  and  C_17
REMARK    7  A    between atoms: C_17  and  C_18
REMARK    8  A    between atoms: C_18  and  C_21
REMARK                            x       y       z     vdW  Elec       q    Type
REMARK                         _______ _______ _______ _____ _____    ______ ____
ROOT
ATOM      1  O   UNL     1      34.237 -23.124 -18.397  0.00  0.00    -0.475 OA
ENDROOT
BRANCH   1   3
ATOM      2  C   UNL     1      34.758 -19.790 -20.814  0.00  0.00    +0.053 C 
ATOM      3  C   UNL     1      34.409 -22.022 -19.195  0.00  0.00    +0.139 C 
ATOM      4  C   UNL     1      33.472 -20.208 -20.470  0.00  0.00    +0.008 C 
ATOM      5  C   UNL     1      35.868 -20.491 -20.344  0.00  0.00    +0.008 C 
ATOM      6  C   UNL     1      33.297 -21.328 -19.658  0.00  0.00    +0.037 C 
ATOM      7  C   UNL     1      35.693 -21.611 -19.532  0.00  0.00    +0.037 C 
BRANCH   2  12
ATOM      8  O   UNL     1      34.960 -17.428 -21.009  0.00  0.00    -0.458 OA
ATOM      9  N   UNL     1      35.073 -18.615 -22.960  0.00  0.00    -0.236 NA
ATOM     10  C   UNL     1      35.314 -17.199 -23.281  0.00  0.00    +0.150 C 
ATOM     11  C   UNL     1      34.892 -16.448 -22.034  0.00  0.00    +0.231 C 
ATOM     12  C   UNL     1      34.941 -18.610 -21.671  0.00  0.00    +0.220 C 
ATOM     13  C   UNL     1      34.533 -16.796 -24.517  0.00  0.00    +0.030 C 
ENDBRANCH   2  12
ENDBRANCH   1   3
BRANCH   1  14
ATOM     14  C   UNL     1      33.119 -23.112 -17.520  0.00  0.00    +0.205 C 
BRANCH  14  15
ATOM     15  C   UNL     1      33.595 -23.446 -16.113  0.00  0.00    +0.047 C 
BRANCH  15  16
ATOM     16  C   UNL     1      35.083 -23.156 -15.937  0.00  0.00    +0.004 C 
BRANCH  16  17
ATOM     17  C   UNL     1      35.492 -23.214 -14.464  0.00  0.00    +0.008 C 
BRANCH  17  18
ATOM     18  C   UNL     1      35.557 -24.659 -13.962  0.00  0.00    +0.067 C 
BRANCH  18  21
ATOM     19  O   UNL     1      36.911 -26.565 -14.517  0.00  0.00    -0.358 OA
ATOM     20  N   UNL     1      38.230 -26.965 -14.693  0.00  0.00    -0.082 NA
ATOM     21  C   UNL     1      36.918 -25.265 -14.193  0.00  0.00    +0.154 C 
ATOM     22  C   UNL     1      38.159 -24.757 -14.138  0.00  0.00    +0.054 C 
ATOM     23  C   UNL     1      38.957 -25.868 -14.462  0.00  0.00    +0.101 C 
ATOM     24  C   UNL     1      40.425 -25.926 -14.562  0.00  0.00    +0.056 C 
ENDBRANCH  18  21
ENDBRANCH  17  18
ENDBRANCH  16  17
ENDBRANCH  15  16
ENDBRANCH  14  15
ENDBRANCH   1  14
TORSDOF 8
ENDMDL
MODEL 3
REMARK VINA RESULT:     -10.0      1.303      1.889
REMARK  Name = 5289566
REMARK  8 active torsions:
REMARK  status: ('A' for Active; 'I' for Inactive)
REMARK    1  A    between atoms: O_1  and  C_3
REMARK    2  A    between atoms: O_1  and  C_14
REMARK    3  A    between atoms: C_2  and  C_12
REMARK    4  A    between atoms: C_14  and  C_15
REMARK    5  A    between atoms: C_15  and  C_16
REMARK    6  A    between atoms: C_16  and  C_17
REMARK    7  A    between atoms: C_17  and  C_18
REMARK    8  A    between atoms: C_18  and  C_21
REMARK                            x       y       z     vdW  Elec       q    Type
REMARK                         _______ _______ _______ _____ _____    ______ ____
ROOT
ATOM      1  O   UNL     1      34.188 -23.351 -18.430  0.00  0.00    -0.475 OA
ENDROOT
BRANCH   1   3
ATOM      2  C   UNL     1      34.747 -19.898 -20.665  0.00  0.00    +0.053 C 
ATOM      3  C   UNL     1      34.372 -22.210 -19.168  0.00  0.00    +0.139 C 
ATOM      4  C   UNL     1      33.457 -20.324 -20.351  0.00  0.00    +0.008 C 
ATOM      5  C   UNL     1      35.850 -20.631 -20.226  0.00  0.00    +0.008 C 
ATOM      6  C   UNL     1      33.269 -21.484 -19.600  0.00  0.00    +0.037 C 
ATOM      7  C   UNL     1      35.662 -21.790 -19.475  0.00  0.00    +0.037 C 
BRANCH   2  12
ATOM      8  O   UNL     1      35.008 -17.534 -20.730  0.00  0.00    -0.458 OA
ATOM      9  N   UNL     1      35.048 -18.609 -22.747  0.00  0.00    -0.236 NA
ATOM     10  C   UNL     1      35.321 -17.184 -22.992  0.00  0.00    +0.150 C 
ATOM     11  C   UNL     1      34.945 -16.496 -21.696  0.00  0.00    +0.231 C 
ATOM     12  C   UNL     1      34.944 -18.675 -21.457  0.00  0.00    +0.220 C 
ATOM     13  C   UNL     1      34.524 -16.692 -24.186  0.00  0.00    +0.030 C 
ENDBRANCH   2  12
ENDBRANCH   1   3
BRANCH   1  14
ATOM     14  C   UNL     1      33.591 -23.196 -17.150  0.00  0.00    +0.205 C 
BRANCH  14  15
ATOM     15  C   UNL     1      34.688 -23.174 -16.095  0.00  0.00    +0.047 C 
BRANCH  15  16
ATOM     16  C   UNL     1      34.419 -24.181 -14.980  0.00  0.00    +0.004 C 
BRANCH  16  17
ATOM     17  C   UNL     1      33.273 -23.720 -14.078  0.00  0.00    +0.008 C 
BRANCH  17  18
ATOM     18  C   UNL     1      32.206 -24.809 -13.933  0.00  0.00    +0.067 C 
BRANCH  18  21
ATOM     19  O   UNL     1      29.962 -25.337 -14.613  0.00  0.00    -0.358 OA
ATOM     20  N   UNL     1      28.819 -24.776 -15.168  0.00  0.00    -0.082 NA
ATOM     21  C   UNL     1      30.887 -24.372 -14.519  0.00  0.00    +0.154 C 
ATOM     22  C   UNL     1      30.442 -23.190 -14.974  0.00  0.00    +0.054 C 
ATOM     23  C   UNL     1      29.129 -23.493 -15.375  0.00  0.00    +0.101 C 
ATOM     24  C   UNL     1      28.132 -22.582 -15.961  0.00  0.00    +0.056 C 
ENDBRANCH  18  21
ENDBRANCH  17  18
ENDBRANCH  16  17
ENDBRANCH  15  16
ENDBRANCH  14  15
ENDBRANCH   1  14
TORSDOF 8
ENDMDL
MODEL 4
REMARK VINA RESULT:      -9.8      3.376      9.408
REMARK  Name = 5289566
REMARK  8 active torsions:
REMARK  status: ('A' for Active; 'I' for Inactive)
REMARK    1  A    between atoms: O_1  and  C_3
REMARK    2  A    between atoms: O_1  and  C_14
REMARK    3  A    between atoms: C_2  and  C_12
REMARK    4  A    between atoms: C_14  and  C_15
REMARK    5  A    between atoms: C_15  and  C_16
REMARK    6  A    between atoms: C_16  and  C_17
REMARK    7  A    between atoms: C_17  and  C_18
REMARK    8  A    between atoms: C_18  and  C_21
REMARK                            x       y       z     vdW  Elec       q    Type
REMARK                         _______ _______ _______ _____ _____    ______ ____
ROOT
ATOM      1  O   UNL     1      34.681 -18.741 -22.539  0.00  0.00    -0.475 OA
ENDROOT
BRANCH   1   3
ATOM      2  C   UNL     1      33.945 -21.370 -19.412  0.00  0.00    +0.053 C 
ATOM      3  C   UNL     1      34.437 -19.610 -21.506  0.00  0.00    +0.139 C 
ATOM      4  C   UNL     1      32.893 -20.655 -19.983  0.00  0.00    +0.008 C 
ATOM      5  C   UNL     1      35.244 -21.204 -19.893  0.00  0.00    +0.008 C 
ATOM      6  C   UNL     1      33.140 -19.771 -21.034  0.00  0.00    +0.037 C 
ATOM      7  C   UNL     1      35.491 -20.321 -20.943  0.00  0.00    +0.037 C 
BRANCH   2  12
ATOM      8  O   UNL     1      32.372 -22.555 -18.076  0.00  0.00    -0.458 OA
ATOM      9  N   UNL     1      34.577 -22.866 -17.555  0.00  0.00    -0.236 NA
ATOM     10  C   UNL     1      33.781 -23.750 -16.689  0.00  0.00    +0.150 C 
ATOM     11  C   UNL     1      32.358 -23.252 -16.840  0.00  0.00    +0.231 C 
ATOM     12  C   UNL     1      33.684 -22.301 -18.304  0.00  0.00    +0.220 C 
ATOM     13  C   UNL     1      34.290 -23.688 -15.261  0.00  0.00    +0.030 C 
ENDBRANCH   2  12
ENDBRANCH   1   3
BRANCH   1  14
ATOM     14  C   UNL     1      35.671 -17.745 -22.317  0.00  0.00    +0.205 C 
BRANCH  14  15
ATOM     15  C   UNL     1      34.991 -16.385 -22.239  0.00  0.00    +0.047 C 
BRANCH  15  16
ATOM     16  C   UNL     1      34.424 -16.118 -20.847  0.00  0.00    +0.004 C 
BRANCH  16  17
ATOM     17  C   UNL     1      33.637 -14.807 -20.808  0.00  0.00    +0.008 C 
BRANCH  17  18
ATOM     18  C   UNL     1      32.719 -14.674 -22.026  0.00  0.00    +0.067 C 
BRANCH  18  21
ATOM     19  O   UNL     1      32.451 -12.319 -22.429  0.00  0.00    -0.358 OA
ATOM     20  N   UNL     1      32.858 -11.294 -23.274  0.00  0.00    -0.082 NA
ATOM     21  C   UNL     1      33.050 -13.447 -22.837  0.00  0.00    +0.154 C 
ATOM     22  C   UNL     1      33.839 -13.250 -23.905  0.00  0.00    +0.054 C 
ATOM     23  C   UNL     1      33.686 -11.874 -24.147  0.00  0.00    +0.101 C 
ATOM     24  C   UNL     1      34.317 -11.068 -25.206  0.00  0.00    +0.056 C 
ENDBRANCH  18  21
ENDBRANCH  17  18
ENDBRANCH  16  17
ENDBRANCH  15  16
ENDBRANCH  14  15
ENDBRANCH   1  14
TORSDOF 8
ENDMDL
MODEL 5
REMARK VINA RESULT:      -9.7      1.553      2.419
REMARK  Name = 5289566
REMARK  8 active torsions:
REMARK  status: ('A' for Active; 'I' for Inactive)
REMARK    1  A    between atoms: O_1  and  C_3
REMARK    2  A    between atoms: O_1  and  C_14
REMARK    3  A    between atoms: C_2  and  C_12
REMARK    4  A    between atoms: C_14  and  C_15
REMARK    5  A    between atoms: C_15  and  C_16
REMARK    6  A    between atoms: C_16  and  C_17
REMARK    7  A    between atoms: C_17  and  C_18
REMARK    8  A    between atoms: C_18  and  C_21
REMARK                            x       y       z     vdW  Elec       q    Type
REMARK                         _______ _______ _______ _____ _____    ______ ____
ROOT
ATOM      1  O   UNL     1      35.224 -22.376 -19.158  0.00  0.00    -0.475 OA
ENDROOT
BRANCH   1   3
ATOM      2  C   UNL     1      34.690 -18.857 -21.293  0.00  0.00    +0.053 C 
ATOM      3  C   UNL     1      35.048 -21.214 -19.864  0.00  0.00    +0.139 C 
ATOM      4  C   UNL     1      35.976 -19.284 -20.963  0.00  0.00    +0.008 C 
ATOM      5  C   UNL     1      33.583 -19.613 -20.907  0.00  0.00    +0.008 C 
ATOM      6  C   UNL     1      36.155 -20.467 -20.246  0.00  0.00    +0.037 C 
ATOM      7  C   UNL     1      33.762 -20.795 -20.190  0.00  0.00    +0.037 C 
BRANCH   2  12
ATOM      8  O   UNL     1      34.942 -17.652 -23.329  0.00  0.00    -0.458 OA
ATOM      9  N   UNL     1      33.974 -16.515 -21.596  0.00  0.00    -0.236 NA
ATOM     10  C   UNL     1      33.950 -15.639 -22.779  0.00  0.00    +0.150 C 
ATOM     11  C   UNL     1      34.891 -16.302 -23.764  0.00  0.00    +0.231 C 
ATOM     12  C   UNL     1      34.501 -17.610 -22.048  0.00  0.00    +0.220 C 
ATOM     13  C   UNL     1      34.371 -14.231 -22.401  0.00  0.00    +0.030 C 
ENDBRANCH   2  12
ENDBRANCH   1   3
BRANCH   1  14
ATOM     14  C   UNL     1      34.395 -22.565 -18.019  0.00  0.00    +0.205 C 
BRANCH  14  15
ATOM     15  C   UNL     1      35.280 -22.807 -16.804  0.00  0.00    +0.047 C 
BRANCH  15  16
ATOM     16  C   UNL     1      34.470 -23.293 -15.605  0.00  0.00    +0.004 C 
BRANCH  16  17
ATOM     17  C   UNL     1      33.012 -23.557 -15.988  0.00  0.00    +0.008 C 
BRANCH  17  18
ATOM     18  C   UNL     1      32.054 -23.075 -14.895  0.00  0.00    +0.067 C 
BRANCH  18  21
ATOM     19  O   UNL     1      30.603 -22.681 -16.771  0.00  0.00    -0.358 OA
ATOM     20  N   UNL     1      29.272 -22.468 -17.107  0.00  0.00    -0.082 NA
ATOM     21  C   UNL     1      30.669 -22.834 -15.441  0.00  0.00    +0.154 C 
ATOM     22  C   UNL     1      29.465 -22.740 -14.855  0.00  0.00    +0.054 C 
ATOM     23  C   UNL     1      28.612 -22.508 -15.947  0.00  0.00    +0.101 C 
ATOM     24  C   UNL     1      27.152 -22.319 -15.927  0.00  0.00    +0.056 C 
ENDBRANCH  18  21
ENDBRANCH  17  18
ENDBRANCH  16  17
ENDBRANCH  15  16
ENDBRANCH  14  15
ENDBRANCH   1  14
TORSDOF 8
ENDMDL
MODEL 6
REMARK VINA RESULT:      -9.7      5.683     10.733
REMARK  Name = 5289566
REMARK  8 active torsions:
REMARK  status: ('A' for Active; 'I' for Inactive)
REMARK    1  A    between atoms: O_1  and  C_3
REMARK    2  A    between atoms: O_1  and  C_14
REMARK    3  A    between atoms: C_2  and  C_12
REMARK    4  A    between atoms: C_14  and  C_15
REMARK    5  A    between atoms: C_15  and  C_16
REMARK    6  A    between atoms: C_16  and  C_17
REMARK    7  A    between atoms: C_17  and  C_18
REMARK    8  A    between atoms: C_18  and  C_21
REMARK                            x       y       z     vdW  Elec       q    Type
REMARK                         _______ _______ _______ _____ _____    ______ ____
ROOT
ATOM      1  O   UNL     1      34.452 -14.196 -23.430  0.00  0.00    -0.475 OA
ENDROOT
BRANCH   1   3
ATOM      2  C   UNL     1      34.931 -17.890 -21.597  0.00  0.00    +0.053 C 
ATOM      3  C   UNL     1      34.611 -15.417 -22.824  0.00  0.00    +0.139 C 
ATOM      4  C   UNL     1      34.999 -17.787 -22.986  0.00  0.00    +0.008 C 
ATOM      5  C   UNL     1      34.703 -16.751 -20.823  0.00  0.00    +0.008 C 
ATOM      6  C   UNL     1      34.839 -16.546 -23.602  0.00  0.00    +0.037 C 
ATOM      7  C   UNL     1      34.542 -15.511 -21.439  0.00  0.00    +0.037 C 
BRANCH   2  12
ATOM      8  O   UNL     1      33.955 -19.909 -20.801  0.00  0.00    -0.458 OA
ATOM      9  N   UNL     1      36.215 -19.698 -20.516  0.00  0.00    -0.236 NA
ATOM     10  C   UNL     1      35.826 -21.040 -20.053  0.00  0.00    +0.150 C 
ATOM     11  C   UNL     1      34.315 -20.985 -19.948  0.00  0.00    +0.231 C 
ATOM     12  C   UNL     1      35.100 -19.198 -20.948  0.00  0.00    +0.220 C 
ATOM     13  C   UNL     1      36.508 -21.362 -18.737  0.00  0.00    +0.030 C 
ENDBRANCH   2  12
ENDBRANCH   1   3
BRANCH   1  14
ATOM     14  C   UNL     1      33.125 -13.820 -23.773  0.00  0.00    +0.205 C 
BRANCH  14  15
ATOM     15  C   UNL     1      32.769 -12.541 -23.029  0.00  0.00    +0.047 C 
BRANCH  15  16
ATOM     16  C   UNL     1      32.091 -12.836 -21.693  0.00  0.00    +0.004 C 
BRANCH  16  17
ATOM     17  C   UNL     1      31.117 -11.722 -21.305  0.00  0.00    +0.008 C 
BRANCH  17  18
ATOM     18  C   UNL     1      31.588 -10.984 -20.049  0.00  0.00    +0.067 C 
BRANCH  18  21
ATOM     19  O   UNL     1      32.228  -8.802 -19.269  0.00  0.00    -0.358 OA
ATOM     20  N   UNL     1      32.454  -7.501 -19.700  0.00  0.00    -0.082 NA
ATOM     21  C   UNL     1      31.875  -9.532 -20.336  0.00  0.00    +0.154 C 
ATOM     22  C   UNL     1      31.849  -8.807 -21.466  0.00  0.00    +0.054 C 
ATOM     23  C   UNL     1      32.222  -7.528 -21.016  0.00  0.00    +0.101 C 
ATOM     24  C   UNL     1      32.370  -6.299 -21.812  0.00  0.00    +0.056 C 
ENDBRANCH  18  21
ENDBRANCH  17  18
ENDBRANCH  16  17
ENDBRANCH  15  16
ENDBRANCH  14  15
ENDBRANCH   1  14
TORSDOF 8
ENDMDL
MODEL 7
REMARK VINA RESULT:      -9.7      4.860      9.321
REMARK  Name = 5289566
REMARK  8 active torsions:
REMARK  status: ('A' for Active; 'I' for Inactive)
REMARK    1  A    between atoms: O_1  and  C_3
REMARK    2  A    between atoms: O_1  and  C_14
REMARK    3  A    between atoms: C_2  and  C_12
REMARK    4  A    between atoms: C_14  and  C_15
REMARK    5  A    between atoms: C_15  and  C_16
REMARK    6  A    between atoms: C_16  and  C_17
REMARK    7  A    between atoms: C_17  and  C_18
REMARK    8  A    between atoms: C_18  and  C_21
REMARK                            x       y       z     vdW  Elec       q    Type
REMARK                         _______ _______ _______ _____ _____    ______ ____
ROOT
ATOM      1  O   UNL     1      33.597 -16.117 -25.756  0.00  0.00    -0.475 OA
ENDROOT
BRANCH   1   3
ATOM      2  C   UNL     1      33.668 -12.177 -24.452  0.00  0.00    +0.053 C 
ATOM      3  C   UNL     1      33.622 -14.815 -25.325  0.00  0.00    +0.139 C 
ATOM      4  C   UNL     1      33.868 -13.215 -23.543  0.00  0.00    +0.008 C 
ATOM      5  C   UNL     1      33.447 -12.462 -25.800  0.00  0.00    +0.008 C 
ATOM      6  C   UNL     1      33.844 -14.540 -23.981  0.00  0.00    +0.037 C 
ATOM      7  C   UNL     1      33.423 -13.785 -26.237  0.00  0.00    +0.037 C 
BRANCH   2  12
ATOM      8  O   UNL     1      32.599 -10.399 -23.287  0.00  0.00    -0.458 OA
ATOM      9  N   UNL     1      34.640  -9.923 -24.203  0.00  0.00    -0.236 NA
ATOM     10  C   UNL     1      34.196  -8.737 -23.452  0.00  0.00    +0.150 C 
ATOM     11  C   UNL     1      32.729  -8.990 -23.173  0.00  0.00    +0.231 C 
ATOM     12  C   UNL     1      33.693 -10.781 -23.990  0.00  0.00    +0.220 C 
ATOM     13  C   UNL     1      34.445  -7.477 -24.260  0.00  0.00    +0.030 C 
ENDBRANCH   2  12
ENDBRANCH   1   3
BRANCH   1  14
ATOM     14  C   UNL     1      34.673 -16.949 -25.342  0.00  0.00    +0.205 C 
BRANCH  14  15
ATOM     15  C   UNL     1      34.153 -18.367 -25.155  0.00  0.00    +0.047 C 
BRANCH  15  16
ATOM     16  C   UNL     1      34.801 -19.051 -23.954  0.00  0.00    +0.004 C 
BRANCH  16  17
ATOM     17  C   UNL     1      35.519 -18.041 -23.058  0.00  0.00    +0.008 C 
BRANCH  17  18
ATOM     18  C   UNL     1      34.780 -17.849 -21.731  0.00  0.00    +0.067 C 
BRANCH  18  21
ATOM     19  O   UNL     1      35.883 -19.548 -20.437  0.00  0.00    -0.358 OA
ATOM     20  N   UNL     1      35.651 -20.732 -19.749  0.00  0.00    -0.082 NA
ATOM     21  C   UNL     1      34.714 -19.134 -20.944  0.00  0.00    +0.154 C 
ATOM     22  C   UNL     1      33.703 -19.963 -20.642  0.00  0.00    +0.054 C 
ATOM     23  C   UNL     1      34.342 -20.960 -19.886  0.00  0.00    +0.101 C 
ATOM     24  C   UNL     1      33.737 -22.153 -19.270  0.00  0.00    +0.056 C 
ENDBRANCH  18  21
ENDBRANCH  17  18
ENDBRANCH  16  17
ENDBRANCH  15  16
ENDBRANCH  14  15
ENDBRANCH   1  14
TORSDOF 8
ENDMDL
MODEL 8
REMARK VINA RESULT:      -9.7      3.887      8.958
REMARK  Name = 5289566
REMARK  8 active torsions:
REMARK  status: ('A' for Active; 'I' for Inactive)
REMARK    1  A    between atoms: O_1  and  C_3
REMARK    2  A    between atoms: O_1  and  C_14
REMARK    3  A    between atoms: C_2  and  C_12
REMARK    4  A    between atoms: C_14  and  C_15
REMARK    5  A    between atoms: C_15  and  C_16
REMARK    6  A    between atoms: C_16  and  C_17
REMARK    7  A    between atoms: C_17  and  C_18
REMARK    8  A    between atoms: C_18  and  C_21
REMARK                            x       y       z     vdW  Elec       q    Type
REMARK                         _______ _______ _______ _____ _____    ______ ____
ROOT
ATOM      1  O   UNL     1      35.343 -18.894 -22.280  0.00  0.00    -0.475 OA
ENDROOT
BRANCH   1   3
ATOM      2  C   UNL     1      34.175 -21.485 -19.255  0.00  0.00    +0.053 C 
ATOM      3  C   UNL     1      34.958 -19.749 -21.280  0.00  0.00    +0.139 C 
ATOM      4  C   UNL     1      35.529 -21.305 -19.534  0.00  0.00    +0.008 C 
ATOM      5  C   UNL     1      33.213 -20.792 -19.991  0.00  0.00    +0.008 C 
ATOM      6  C   UNL     1      35.922 -20.434 -20.551  0.00  0.00    +0.037 C 
ATOM      7  C   UNL     1      33.606 -19.922 -21.007  0.00  0.00    +0.037 C 
BRANCH   2  12
ATOM      8  O   UNL     1      32.427 -22.626 -18.114  0.00  0.00    -0.458 OA
ATOM      9  N   UNL     1      34.546 -22.984 -17.331  0.00  0.00    -0.236 NA
ATOM     10  C   UNL     1      33.632 -23.845 -16.564  0.00  0.00    +0.150 C 
ATOM     11  C   UNL     1      32.249 -23.316 -16.886  0.00  0.00    +0.231 C 
ATOM     12  C   UNL     1      33.762 -22.403 -18.184  0.00  0.00    +0.220 C 
ATOM     13  C   UNL     1      33.967 -23.787 -15.086  0.00  0.00    +0.030 C 
ENDBRANCH   2  12
ENDBRANCH   1   3
BRANCH   1  14
ATOM     14  C   UNL     1      34.716 -17.619 -22.310  0.00  0.00    +0.205 C 
BRANCH  14  15
ATOM     15  C   UNL     1      35.049 -16.878 -21.022  0.00  0.00    +0.047 C 
BRANCH  15  16
ATOM     16  C   UNL     1      34.593 -15.422 -21.075  0.00  0.00    +0.004 C 
BRANCH  16  17
ATOM     17  C   UNL     1      33.074 -15.320 -21.225  0.00  0.00    +0.008 C 
BRANCH  17  18
ATOM     18  C   UNL     1      32.687 -14.253 -22.253  0.00  0.00    +0.067 C 
BRANCH  18  21
ATOM     19  O   UNL     1      31.659 -12.087 -22.427  0.00  0.00    -0.358 OA
ATOM     20  N   UNL     1      31.191 -11.026 -21.662  0.00  0.00    -0.082 NA
ATOM     21  C   UNL     1      32.132 -13.019 -21.588  0.00  0.00    +0.154 C 
ATOM     22  C   UNL     1      32.012 -12.657 -20.301  0.00  0.00    +0.054 C 
ATOM     23  C   UNL     1      31.412 -11.389 -20.395  0.00  0.00    +0.101 C 
ATOM     24  C   UNL     1      31.030 -10.488 -19.296  0.00  0.00    +0.056 C 
ENDBRANCH  18  21
ENDBRANCH  17  18
ENDBRANCH  16  17
ENDBRANCH  15  16
ENDBRANCH  14  15
ENDBRANCH   1  14
TORSDOF 8
ENDMDL
MODEL 9
REMARK VINA RESULT:      -9.6      3.116      9.116
REMARK  Name = 5289566
REMARK  8 active torsions:
REMARK  status: ('A' for Active; 'I' for Inactive)
REMARK    1  A    between atoms: O_1  and  C_3
REMARK    2  A    between atoms: O_1  and  C_14
REMARK    3  A    between atoms: C_2  and  C_12
REMARK    4  A    between atoms: C_14  and  C_15
REMARK    5  A    between atoms: C_15  and  C_16
REMARK    6  A    between atoms: C_16  and  C_17
REMARK    7  A    between atoms: C_17  and  C_18
REMARK    8  A    between atoms: C_18  and  C_21
REMARK                            x       y       z     vdW  Elec       q    Type
REMARK                         _______ _______ _______ _____ _____    ______ ____
ROOT
ATOM      1  O   UNL     1      35.901 -19.205 -21.979  0.00  0.00    -0.475 OA
ENDROOT
BRANCH   1   3
ATOM      2  C   UNL     1      34.194 -21.616 -19.062  0.00  0.00    +0.053 C 
ATOM      3  C   UNL     1      35.337 -20.001 -21.014  0.00  0.00    +0.139 C 
ATOM      4  C   UNL     1      35.576 -21.621 -19.250  0.00  0.00    +0.008 C 
ATOM      5  C   UNL     1      33.386 -20.799 -19.852  0.00  0.00    +0.008 C 
ATOM      6  C   UNL     1      36.150 -20.811 -20.230  0.00  0.00    +0.037 C 
ATOM      7  C   UNL     1      33.959 -19.989 -20.832  0.00  0.00    +0.037 C 
BRANCH   2  12
ATOM      8  O   UNL     1      32.236 -22.494 -18.036  0.00  0.00    -0.458 OA
ATOM      9  N   UNL     1      34.231 -23.167 -17.144  0.00  0.00    -0.236 NA
ATOM     10  C   UNL     1      33.158 -23.888 -16.441  0.00  0.00    +0.150 C 
ATOM     11  C   UNL     1      31.889 -23.158 -16.830  0.00  0.00    +0.231 C 
ATOM     12  C   UNL     1      33.591 -22.470 -18.029  0.00  0.00    +0.220 C 
ATOM     13  C   UNL     1      33.415 -23.890 -14.946  0.00  0.00    +0.030 C 
ENDBRANCH   2  12
ENDBRANCH   1   3
BRANCH   1  14
ATOM     14  C   UNL     1      35.010 -18.429 -22.768  0.00  0.00    +0.205 C 
BRANCH  14  15
ATOM     15  C   UNL     1      34.872 -19.081 -24.137  0.00  0.00    +0.047 C 
BRANCH  15  16
ATOM     16  C   UNL     1      34.261 -18.124 -25.158  0.00  0.00    +0.004 C 
BRANCH  16  17
ATOM     17  C   UNL     1      34.820 -16.710 -25.000  0.00  0.00    +0.008 C 
BRANCH  17  18
ATOM     18  C   UNL     1      33.769 -15.653 -25.349  0.00  0.00    +0.067 C 
BRANCH  18  21
ATOM     19  O   UNL     1      32.761 -13.700 -24.376  0.00  0.00    -0.358 OA
ATOM     20  N   UNL     1      32.412 -13.133 -23.157  0.00  0.00    -0.082 NA
ATOM     21  C   UNL     1      33.323 -14.891 -24.127  0.00  0.00    +0.154 C 
ATOM     22  C   UNL     1      33.375 -15.168 -22.815  0.00  0.00    +0.054 C 
ATOM     23  C   UNL     1      32.788 -14.028 -22.239  0.00  0.00    +0.101 C 
ATOM     24  C   UNL     1      32.564 -13.752 -20.810  0.00  0.00    +0.056 C 
ENDBRANCH  18  21
ENDBRANCH  17  18
ENDBRANCH  16  17
ENDBRANCH  15  16
ENDBRANCH  14  15
ENDBRANCH   1  14
TORSDOF 8
ENDMDL
