MODEL 1
REMARK VINA RESULT:      -5.5      0.000      0.000
REMARK  Name = 441575
REMARK  0 active torsions:
REMARK  status: ('A' for Active; 'I' for Inactive)
REMARK                            x       y       z     vdW  Elec       q    Type
REMARK                         _______ _______ _______ _____ _____    ______ ____
ROOT
ATOM      1  O   UNL     1      35.870 -19.763 -20.186  0.00  0.00    -0.449 OA
ATOM      2  O   UNL     1      35.746 -17.929 -21.514  0.00  0.00    -0.245 OA
ATOM      3  C   UNL     1      35.359 -21.093 -19.950  0.00  0.00    +0.174 C 
ATOM      4  C   UNL     1      33.866 -21.048 -19.655  0.00  0.00    +0.070 C 
ATOM      5  C   UNL     1      36.139 -21.695 -18.790  0.00  0.00    +0.048 C 
ATOM      6  C   UNL     1      33.189 -20.244 -20.713  0.00  0.00    -0.016 C 
ATOM      7  C   UNL     1      33.832 -19.289 -21.390  0.00  0.00    +0.077 C 
ATOM      8  C   UNL     1      35.223 -18.937 -21.053  0.00  0.00    +0.341 C 
ENDROOT
TORSDOF 0
ENDMDL
MODEL 2
REMARK VINA RESULT:      -5.5      1.238      2.941
REMARK  Name = 441575
REMARK  0 active torsions:
REMARK  status: ('A' for Active; 'I' for Inactive)
REMARK                            x       y       z     vdW  Elec       q    Type
REMARK                         _______ _______ _______ _____ _____    ______ ____
ROOT
ATOM      1  O   UNL     1      35.695 -20.577 -20.399  0.00  0.00    -0.449 OA
ATOM      2  O   UNL     1      35.348 -22.381 -19.071  0.00  0.00    -0.245 OA
ATOM      3  C   UNL     1      35.193 -19.281 -20.794  0.00  0.00    +0.174 C 
ATOM      4  C   UNL     1      33.813 -19.410 -21.423  0.00  0.00    +0.070 C 
ATOM      5  C   UNL     1      36.194 -18.669 -21.765  0.00  0.00    +0.048 C 
ATOM      6  C   UNL     1      32.946 -20.222 -20.521  0.00  0.00    -0.016 C 
ATOM      7  C   UNL     1      33.456 -21.125 -19.680  0.00  0.00    +0.077 C 
ATOM      8  C   UNL     1      34.902 -21.413 -19.675  0.00  0.00    +0.341 C 
ENDROOT
TORSDOF 0
ENDMDL
MODEL 3
REMARK VINA RESULT:      -5.3      3.202      4.235
REMARK  Name = 441575
REMARK  0 active torsions:
REMARK  status: ('A' for Active; 'I' for Inactive)
REMARK                            x       y       z     vdW  Elec       q    Type
REMARK                         _______ _______ _______ _____ _____    ______ ____
ROOT
ATOM      1  O   UNL     1      34.639 -16.644 -23.404  0.00  0.00    -0.449 OA
ATOM      2  O   UNL     1      34.668 -17.259 -25.586  0.00  0.00    -0.245 OA
ATOM      3  C   UNL     1      35.077 -16.983 -22.070  0.00  0.00    +0.174 C 
ATOM      4  C   UNL     1      34.501 -18.326 -21.643  0.00  0.00    +0.070 C 
ATOM      5  C   UNL     1      34.639 -15.865 -21.135  0.00  0.00    +0.048 C 
ATOM      6  C   UNL     1      34.767 -19.328 -22.714  0.00  0.00    -0.016 C 
ATOM      7  C   UNL     1      34.920 -18.968 -23.992  0.00  0.00    +0.077 C 
ATOM      8  C   UNL     1      34.746 -17.563 -24.401  0.00  0.00    +0.341 C 
ENDROOT
TORSDOF 0
ENDMDL
MODEL 4
REMARK VINA RESULT:      -5.3      2.077      3.043
REMARK  Name = 441575
REMARK  0 active torsions:
REMARK  status: ('A' for Active; 'I' for Inactive)
REMARK                            x       y       z     vdW  Elec       q    Type
REMARK                         _______ _______ _______ _____ _____    ______ ____
ROOT
ATOM      1  O   UNL     1      35.214 -17.834 -20.620  0.00  0.00    -0.449 OA
ATOM      2  O   UNL     1      34.861 -15.601 -20.450  0.00  0.00    -0.245 OA
ATOM      3  C   UNL     1      35.758 -18.890 -21.442  0.00  0.00    +0.174 C 
ATOM      4  C   UNL     1      35.030 -18.959 -22.777  0.00  0.00    +0.070 C 
ATOM      5  C   UNL     1      35.633 -20.196 -20.670  0.00  0.00    +0.048 C 
ATOM      6  C   UNL     1      34.988 -17.593 -23.374  0.00  0.00    -0.016 C 
ATOM      7  C   UNL     1      35.033 -16.493 -22.619  0.00  0.00    +0.077 C 
ATOM      8  C   UNL     1      35.040 -16.592 -21.148  0.00  0.00    +0.341 C 
ENDROOT
TORSDOF 0
ENDMDL
MODEL 5
REMARK VINA RESULT:      -5.3      2.472      4.154
REMARK  Name = 441575
REMARK  0 active torsions:
REMARK  status: ('A' for Active; 'I' for Inactive)
REMARK                            x       y       z     vdW  Elec       q    Type
REMARK                         _______ _______ _______ _____ _____    ______ ____
ROOT
ATOM      1  O   UNL     1      35.338 -17.407 -20.632  0.00  0.00    -0.449 OA
ATOM      2  O   UNL     1      36.117 -19.531 -20.482  0.00  0.00    -0.245 OA
ATOM      3  C   UNL     1      34.495 -16.502 -21.379  0.00  0.00    +0.174 C 
ATOM      4  C   UNL     1      34.998 -16.360 -22.809  0.00  0.00    +0.070 C 
ATOM      5  C   UNL     1      34.488 -15.164 -20.654  0.00  0.00    +0.048 C 
ATOM      6  C   UNL     1      35.204 -17.720 -23.385  0.00  0.00    -0.016 C 
ATOM      7  C   UNL     1      35.472 -18.778 -22.614  0.00  0.00    +0.077 C 
ATOM      8  C   UNL     1      35.660 -18.618 -21.161  0.00  0.00    +0.341 C 
ENDROOT
TORSDOF 0
ENDMDL
MODEL 6
REMARK VINA RESULT:      -5.2      1.786      3.514
REMARK  Name = 441575
REMARK  0 active torsions:
REMARK  status: ('A' for Active; 'I' for Inactive)
REMARK                            x       y       z     vdW  Elec       q    Type
REMARK                         _______ _______ _______ _____ _____    ______ ____
ROOT
ATOM      1  O   UNL     1      33.680 -20.102 -20.633  0.00  0.00    -0.449 OA
ATOM      2  O   UNL     1      32.678 -21.654 -19.319  0.00  0.00    -0.245 OA
ATOM      3  C   UNL     1      34.846 -19.796 -21.430  0.00  0.00    +0.174 C 
ATOM      4  C   UNL     1      36.099 -19.793 -20.565  0.00  0.00    +0.070 C 
ATOM      5  C   UNL     1      34.619 -18.443 -22.090  0.00  0.00    +0.048 C 
ATOM      6  C   UNL     1      36.138 -21.053 -19.769  0.00  0.00    -0.016 C 
ATOM      7  C   UNL     1      35.025 -21.716 -19.445  0.00  0.00    +0.077 C 
ATOM      8  C   UNL     1      33.700 -21.174 -19.795  0.00  0.00    +0.341 C 
ENDROOT
TORSDOF 0
ENDMDL
MODEL 7
REMARK VINA RESULT:      -5.2      4.849      5.915
REMARK  Name = 441575
REMARK  0 active torsions:
REMARK  status: ('A' for Active; 'I' for Inactive)
REMARK                            x       y       z     vdW  Elec       q    Type
REMARK                         _______ _______ _______ _____ _____    ______ ____
ROOT
ATOM      1  O   UNL     1      33.839 -15.255 -24.316  0.00  0.00    -0.449 OA
ATOM      2  O   UNL     1      33.392 -15.805 -26.470  0.00  0.00    -0.245 OA
ATOM      3  C   UNL     1      34.743 -15.446 -23.206  0.00  0.00    +0.174 C 
ATOM      4  C   UNL     1      34.767 -16.908 -22.781  0.00  0.00    +0.070 C 
ATOM      5  C   UNL     1      34.288 -14.542 -22.070  0.00  0.00    +0.048 C 
ATOM      6  C   UNL     1      34.990 -17.757 -23.986  0.00  0.00    -0.016 C 
ATOM      7  C   UNL     1      34.630 -17.355 -25.207  0.00  0.00    +0.077 C 
ATOM      8  C   UNL     1      33.915 -16.079 -25.396  0.00  0.00    +0.341 C 
ENDROOT
TORSDOF 0
ENDMDL
MODEL 8
REMARK VINA RESULT:      -5.2      2.828      4.348
REMARK  Name = 441575
REMARK  0 active torsions:
REMARK  status: ('A' for Active; 'I' for Inactive)
REMARK                            x       y       z     vdW  Elec       q    Type
REMARK                         _______ _______ _______ _____ _____    ______ ____
ROOT
ATOM      1  O   UNL     1      34.962 -16.543 -22.747  0.00  0.00    -0.449 OA
ATOM      2  O   UNL     1      35.045 -16.145 -20.517  0.00  0.00    -0.245 OA
ATOM      3  C   UNL     1      34.500 -17.448 -23.774  0.00  0.00    +0.174 C 
ATOM      4  C   UNL     1      35.143 -18.818 -23.609  0.00  0.00    +0.070 C 
ATOM      5  C   UNL     1      34.836 -16.833 -25.125  0.00  0.00    +0.048 C 
ATOM      6  C   UNL     1      34.976 -19.261 -22.195  0.00  0.00    -0.016 C 
ATOM      7  C   UNL     1      34.845 -18.387 -21.194  0.00  0.00    +0.077 C 
ATOM      8  C   UNL     1      34.946 -16.938 -21.445  0.00  0.00    +0.341 C 
ENDROOT
TORSDOF 0
ENDMDL
MODEL 9
REMARK VINA RESULT:      -5.1      5.864      6.919
REMARK  Name = 441575
REMARK  0 active torsions:
REMARK  status: ('A' for Active; 'I' for Inactive)
REMARK                            x       y       z     vdW  Elec       q    Type
REMARK                         _______ _______ _______ _____ _____    ______ ____
ROOT
ATOM      1  O   UNL     1      31.055 -22.664 -17.085  0.00  0.00    -0.449 OA
ATOM      2  O   UNL     1      28.826 -22.249 -17.038  0.00  0.00    -0.245 OA
ATOM      3  C   UNL     1      32.134 -23.417 -16.488  0.00  0.00    +0.174 C 
ATOM      4  C   UNL     1      32.286 -23.059 -15.016  0.00  0.00    +0.070 C 
ATOM      5  C   UNL     1      33.404 -23.114 -17.271  0.00  0.00    +0.048 C 
ATOM      6  C   UNL     1      30.953 -23.154 -14.356  0.00  0.00    -0.016 C 
ATOM      7  C   UNL     1      29.817 -22.986 -15.038  0.00  0.00    +0.077 C 
ATOM      8  C   UNL     1      29.845 -22.615 -16.464  0.00  0.00    +0.341 C 
ENDROOT
TORSDOF 0
ENDMDL
