MODEL 1
REMARK VINA RESULT:      -8.7      0.000      0.000
REMARK  Name = 71682
REMARK  2 active torsions:
REMARK  status: ('A' for Active; 'I' for Inactive)
REMARK    1  A    between atoms: N_3  and  C_15
REMARK    2  A    between atoms: C_5  and  C_9
REMARK                            x       y       z     vdW  Elec       q    Type
REMARK                         _______ _______ _______ _____ _____    ______ ____
ROOT
ATOM      1  O   UNL     1      35.043 -17.692 -23.114  0.00  0.00    -0.422 OA
ATOM      2  O   UNL     1      35.037 -16.133 -20.021  0.00  0.00    -0.210 OA
ATOM      3  N   UNL     1      34.038 -16.204 -24.533  0.00  0.00    -0.278 N 
ATOM      4  N   UNL     1      34.392 -15.734 -22.208  0.00  0.00    -0.282 NA
ATOM      5  C   UNL     1      35.468 -17.768 -21.751  0.00  0.00    +0.308 C 
ATOM      6  C   UNL     1      34.955 -16.467 -21.196  0.00  0.00    +0.230 C 
ATOM      7  C   UNL     1      34.463 -16.469 -23.268  0.00  0.00    +0.351 C 
ATOM      8  H   UNL     1      34.159 -16.894 -25.226  0.00  0.00    +0.152 HD
ENDROOT
BRANCH   5   9
ATOM      9  C   UNL     1      34.843 -18.955 -21.099  0.00  0.00    +0.035 C 
ATOM     10  C   UNL     1      35.648 -19.946 -20.534  0.00  0.00    +0.000 C 
ATOM     11  C   UNL     1      33.455 -19.076 -21.056  0.00  0.00    +0.000 C 
ATOM     12  C   UNL     1      35.064 -21.056 -19.925  0.00  0.00    -0.000 C 
ATOM     13  C   UNL     1      32.870 -20.187 -20.446  0.00  0.00    -0.000 C 
ATOM     14  C   UNL     1      33.675 -21.177 -19.881  0.00  0.00    -0.000 C 
ENDBRANCH   5   9
BRANCH   3  15
ATOM     15  C   UNL     1      33.418 -14.962 -24.897  0.00  0.00    +0.092 C 
ATOM     16  C   UNL     1      32.924 -14.988 -26.328  0.00  0.00    +0.023 C 
ENDBRANCH   3  15
TORSDOF 2
ENDMDL
MODEL 2
REMARK VINA RESULT:      -8.0      2.844      5.739
REMARK  Name = 71682
REMARK  2 active torsions:
REMARK  status: ('A' for Active; 'I' for Inactive)
REMARK    1  A    between atoms: N_3  and  C_15
REMARK    2  A    between atoms: C_5  and  C_9
REMARK                            x       y       z     vdW  Elec       q    Type
REMARK                         _______ _______ _______ _____ _____    ______ ____
ROOT
ATOM      1  O   UNL     1      33.740 -19.352 -20.735  0.00  0.00    -0.422 OA
ATOM      2  O   UNL     1      37.188 -19.130 -20.990  0.00  0.00    -0.210 OA
ATOM      3  N   UNL     1      33.342 -21.411 -19.820  0.00  0.00    -0.278 N 
ATOM      4  N   UNL     1      35.556 -20.592 -20.242  0.00  0.00    -0.282 NA
ATOM      5  C   UNL     1      34.850 -18.515 -21.073  0.00  0.00    +0.308 C 
ATOM      6  C   UNL     1      36.017 -19.418 -20.778  0.00  0.00    +0.230 C 
ATOM      7  C   UNL     1      34.268 -20.507 -20.242  0.00  0.00    +0.351 C 
ATOM      8  H   UNL     1      32.387 -21.186 -19.909  0.00  0.00    +0.152 HD
ENDROOT
BRANCH   5   9
ATOM      9  C   UNL     1      34.769 -18.137 -22.514  0.00  0.00    +0.035 C 
ATOM     10  C   UNL     1      34.576 -19.123 -23.484  0.00  0.00    +0.000 C 
ATOM     11  C   UNL     1      34.888 -16.801 -22.893  0.00  0.00    +0.000 C 
ATOM     12  C   UNL     1      34.501 -18.770 -24.831  0.00  0.00    -0.000 C 
ATOM     13  C   UNL     1      34.813 -16.448 -24.241  0.00  0.00    -0.000 C 
ATOM     14  C   UNL     1      34.619 -17.433 -25.209  0.00  0.00    -0.000 C 
ENDBRANCH   5   9
BRANCH   3  15
ATOM     15  C   UNL     1      33.702 -22.680 -19.254  0.00  0.00    +0.092 C 
ATOM     16  C   UNL     1      33.195 -22.816 -17.833  0.00  0.00    +0.023 C 
ENDBRANCH   3  15
TORSDOF 2
ENDMDL
MODEL 3
REMARK VINA RESULT:      -7.9      2.303      5.502
REMARK  Name = 71682
REMARK  2 active torsions:
REMARK  status: ('A' for Active; 'I' for Inactive)
REMARK    1  A    between atoms: N_3  and  C_15
REMARK    2  A    between atoms: C_5  and  C_9
REMARK                            x       y       z     vdW  Elec       q    Type
REMARK                         _______ _______ _______ _____ _____    ______ ____
ROOT
ATOM      1  O   UNL     1      35.682 -18.044 -20.907  0.00  0.00    -0.422 OA
ATOM      2  O   UNL     1      34.487 -18.498 -24.127  0.00  0.00    -0.210 OA
ATOM      3  N   UNL     1      35.518 -20.099 -19.916  0.00  0.00    -0.278 N 
ATOM      4  N   UNL     1      34.881 -19.711 -22.195  0.00  0.00    -0.282 NA
ATOM      5  C   UNL     1      35.473 -17.441 -22.187  0.00  0.00    +0.308 C 
ATOM      6  C   UNL     1      34.888 -18.583 -22.973  0.00  0.00    +0.230 C 
ATOM      7  C   UNL     1      35.334 -19.354 -21.039  0.00  0.00    +0.351 C 
ATOM      8  H   UNL     1      35.863 -19.657 -19.106  0.00  0.00    +0.152 HD
ENDROOT
BRANCH   5   9
ATOM      9  C   UNL     1      34.526 -16.296 -22.051  0.00  0.00    +0.035 C 
ATOM     10  C   UNL     1      33.555 -16.310 -21.049  0.00  0.00    +0.000 C 
ATOM     11  C   UNL     1      34.610 -15.214 -22.926  0.00  0.00    +0.000 C 
ATOM     12  C   UNL     1      32.669 -15.240 -20.922  0.00  0.00    -0.000 C 
ATOM     13  C   UNL     1      33.723 -14.143 -22.799  0.00  0.00    -0.000 C 
ATOM     14  C   UNL     1      32.754 -14.156 -21.797  0.00  0.00    -0.000 C 
ENDBRANCH   5   9
BRANCH   3  15
ATOM     15  C   UNL     1      35.226 -21.504 -19.862  0.00  0.00    +0.092 C 
ATOM     16  C   UNL     1      33.814 -21.759 -19.378  0.00  0.00    +0.023 C 
ENDBRANCH   3  15
TORSDOF 2
ENDMDL
MODEL 4
REMARK VINA RESULT:      -7.9      2.301      5.491
REMARK  Name = 71682
REMARK  2 active torsions:
REMARK  status: ('A' for Active; 'I' for Inactive)
REMARK    1  A    between atoms: N_3  and  C_15
REMARK    2  A    between atoms: C_5  and  C_9
REMARK                            x       y       z     vdW  Elec       q    Type
REMARK                         _______ _______ _______ _____ _____    ______ ____
ROOT
ATOM      1  O   UNL     1      35.687 -18.011 -20.926  0.00  0.00    -0.422 OA
ATOM      2  O   UNL     1      34.495 -18.484 -24.144  0.00  0.00    -0.210 OA
ATOM      3  N   UNL     1      35.549 -20.067 -19.932  0.00  0.00    -0.278 N 
ATOM      4  N   UNL     1      34.906 -19.690 -22.210  0.00  0.00    -0.282 NA
ATOM      5  C   UNL     1      35.470 -17.412 -22.207  0.00  0.00    +0.308 C 
ATOM      6  C   UNL     1      34.899 -18.563 -22.991  0.00  0.00    +0.230 C 
ATOM      7  C   UNL     1      35.355 -19.326 -21.056  0.00  0.00    +0.351 C 
ATOM      8  H   UNL     1      35.889 -19.619 -19.123  0.00  0.00    +0.152 HD
ENDROOT
BRANCH   5   9
ATOM      9  C   UNL     1      34.509 -16.279 -22.071  0.00  0.00    +0.035 C 
ATOM     10  C   UNL     1      34.591 -15.188 -22.938  0.00  0.00    +0.000 C 
ATOM     11  C   UNL     1      33.532 -16.308 -21.077  0.00  0.00    +0.000 C 
ATOM     12  C   UNL     1      33.693 -14.128 -22.811  0.00  0.00    -0.000 C 
ATOM     13  C   UNL     1      32.635 -15.247 -20.950  0.00  0.00    -0.000 C 
ATOM     14  C   UNL     1      32.715 -14.158 -21.816  0.00  0.00    -0.000 C 
ENDBRANCH   5   9
BRANCH   3  15
ATOM     15  C   UNL     1      35.274 -21.475 -19.876  0.00  0.00    +0.092 C 
ATOM     16  C   UNL     1      33.867 -21.746 -19.386  0.00  0.00    +0.023 C 
ENDBRANCH   3  15
TORSDOF 2
ENDMDL
MODEL 5
REMARK VINA RESULT:      -7.7      2.683      3.570
REMARK  Name = 71682
REMARK  2 active torsions:
REMARK  status: ('A' for Active; 'I' for Inactive)
REMARK    1  A    between atoms: N_3  and  C_15
REMARK    2  A    between atoms: C_5  and  C_9
REMARK                            x       y       z     vdW  Elec       q    Type
REMARK                         _______ _______ _______ _____ _____    ______ ____
ROOT
ATOM      1  O   UNL     1      34.915 -14.417 -22.749  0.00  0.00    -0.422 OA
ATOM      2  O   UNL     1      32.048 -15.623 -21.224  0.00  0.00    -0.210 OA
ATOM      3  N   UNL     1      34.276 -12.464 -23.757  0.00  0.00    -0.278 N 
ATOM      4  N   UNL     1      32.761 -13.813 -22.478  0.00  0.00    -0.282 NA
ATOM      5  C   UNL     1      34.363 -15.427 -21.900  0.00  0.00    +0.308 C 
ATOM      6  C   UNL     1      32.923 -14.998 -21.809  0.00  0.00    +0.230 C 
ATOM      7  C   UNL     1      33.911 -13.530 -22.993  0.00  0.00    +0.351 C 
ATOM      8  H   UNL     1      35.204 -12.413 -24.083  0.00  0.00    +0.152 HD
ENDROOT
BRANCH   5   9
ATOM      9  C   UNL     1      34.522 -16.763 -22.543  0.00  0.00    +0.035 C 
ATOM     10  C   UNL     1      34.550 -17.916 -21.758  0.00  0.00    +0.000 C 
ATOM     11  C   UNL     1      34.646 -16.859 -23.929  0.00  0.00    +0.000 C 
ATOM     12  C   UNL     1      34.701 -19.165 -22.360  0.00  0.00    -0.000 C 
ATOM     13  C   UNL     1      34.797 -18.109 -24.531  0.00  0.00    -0.000 C 
ATOM     14  C   UNL     1      34.824 -19.262 -23.747  0.00  0.00    -0.000 C 
ENDBRANCH   5   9
BRANCH   3  15
ATOM     15  C   UNL     1      33.364 -11.413 -24.107  0.00  0.00    +0.092 C 
ATOM     16  C   UNL     1      34.057 -10.067 -24.146  0.00  0.00    +0.023 C 
ENDBRANCH   3  15
TORSDOF 2
ENDMDL
MODEL 6
REMARK VINA RESULT:      -7.7      2.607      5.845
REMARK  Name = 71682
REMARK  2 active torsions:
REMARK  status: ('A' for Active; 'I' for Inactive)
REMARK    1  A    between atoms: N_3  and  C_15
REMARK    2  A    between atoms: C_5  and  C_9
REMARK                            x       y       z     vdW  Elec       q    Type
REMARK                         _______ _______ _______ _____ _____    ______ ____
ROOT
ATOM      1  O   UNL     1      36.464 -18.514 -20.944  0.00  0.00    -0.422 OA
ATOM      2  O   UNL     1      34.173 -19.315 -23.415  0.00  0.00    -0.210 OA
ATOM      3  N   UNL     1      36.423 -20.286 -19.497  0.00  0.00    -0.278 N 
ATOM      4  N   UNL     1      35.077 -20.207 -21.480  0.00  0.00    -0.282 NA
ATOM      5  C   UNL     1      35.890 -18.126 -22.195  0.00  0.00    +0.308 C 
ATOM      6  C   UNL     1      34.941 -19.262 -22.463  0.00  0.00    +0.230 C 
ATOM      7  C   UNL     1      35.944 -19.737 -20.646  0.00  0.00    +0.351 C 
ATOM      8  H   UNL     1      37.078 -19.776 -18.967  0.00  0.00    +0.152 HD
ENDROOT
BRANCH   5   9
ATOM      9  C   UNL     1      35.190 -16.819 -22.039  0.00  0.00    +0.035 C 
ATOM     10  C   UNL     1      34.973 -16.006 -23.153  0.00  0.00    +0.000 C 
ATOM     11  C   UNL     1      34.754 -16.407 -20.780  0.00  0.00    +0.000 C 
ATOM     12  C   UNL     1      34.319 -14.783 -23.007  0.00  0.00    -0.000 C 
ATOM     13  C   UNL     1      34.100 -15.183 -20.634  0.00  0.00    -0.000 C 
ATOM     14  C   UNL     1      33.882 -14.371 -21.748  0.00  0.00    -0.000 C 
ENDBRANCH   5   9
BRANCH   3  15
ATOM     15  C   UNL     1      36.009 -21.577 -19.024  0.00  0.00    +0.092 C 
ATOM     16  C   UNL     1      36.591 -21.880 -17.659  0.00  0.00    +0.023 C 
ENDBRANCH   3  15
TORSDOF 2
ENDMDL
MODEL 7
REMARK VINA RESULT:      -7.6      5.881      8.737
REMARK  Name = 71682
REMARK  2 active torsions:
REMARK  status: ('A' for Active; 'I' for Inactive)
REMARK    1  A    between atoms: N_3  and  C_15
REMARK    2  A    between atoms: C_5  and  C_9
REMARK                            x       y       z     vdW  Elec       q    Type
REMARK                         _______ _______ _______ _____ _____    ______ ____
ROOT
ATOM      1  O   UNL     1      34.560 -23.724 -17.097  0.00  0.00    -0.422 OA
ATOM      2  O   UNL     1      31.339 -22.475 -17.342  0.00  0.00    -0.210 OA
ATOM      3  N   UNL     1      34.936 -23.965 -14.852  0.00  0.00    -0.278 N 
ATOM      4  N   UNL     1      32.855 -23.164 -15.734  0.00  0.00    -0.282 NA
ATOM      5  C   UNL     1      33.500 -23.353 -17.982  0.00  0.00    +0.308 C 
ATOM      6  C   UNL     1      32.424 -22.939 -17.015  0.00  0.00    +0.230 C 
ATOM      7  C   UNL     1      34.066 -23.602 -15.833  0.00  0.00    +0.351 C 
ATOM      8  H   UNL     1      35.838 -24.266 -15.109  0.00  0.00    +0.152 HD
ENDROOT
BRANCH   5   9
ATOM      9  C   UNL     1      33.949 -22.230 -18.855  0.00  0.00    +0.035 C 
ATOM     10  C   UNL     1      35.311 -21.983 -19.030  0.00  0.00    +0.000 C 
ATOM     11  C   UNL     1      33.007 -21.425 -19.495  0.00  0.00    +0.000 C 
ATOM     12  C   UNL     1      35.731 -20.933 -19.845  0.00  0.00    -0.000 C 
ATOM     13  C   UNL     1      33.427 -20.374 -20.311  0.00  0.00    -0.000 C 
ATOM     14  C   UNL     1      34.788 -20.128 -20.486  0.00  0.00    -0.000 C 
ENDBRANCH   5   9
BRANCH   3  15
ATOM     15  C   UNL     1      34.593 -23.924 -13.459  0.00  0.00    +0.092 C 
ATOM     16  C   UNL     1      35.643 -24.610 -12.609  0.00  0.00    +0.023 C 
ENDBRANCH   3  15
TORSDOF 2
ENDMDL
MODEL 8
REMARK VINA RESULT:      -7.6      4.441      7.263
REMARK  Name = 71682
REMARK  2 active torsions:
REMARK  status: ('A' for Active; 'I' for Inactive)
REMARK    1  A    between atoms: N_3  and  C_15
REMARK    2  A    between atoms: C_5  and  C_9
REMARK                            x       y       z     vdW  Elec       q    Type
REMARK                         _______ _______ _______ _____ _____    ______ ____
ROOT
ATOM      1  O   UNL     1      36.734 -21.456 -18.879  0.00  0.00    -0.422 OA
ATOM      2  O   UNL     1      33.556 -22.736 -19.391  0.00  0.00    -0.210 OA
ATOM      3  N   UNL     1      37.221 -21.927 -16.694  0.00  0.00    -0.278 N 
ATOM      4  N   UNL     1      35.156 -22.577 -17.725  0.00  0.00    -0.282 NA
ATOM      5  C   UNL     1      35.698 -21.704 -19.834  0.00  0.00    +0.308 C 
ATOM      6  C   UNL     1      34.662 -22.396 -18.991  0.00  0.00    +0.230 C 
ATOM      7  C   UNL     1      36.324 -22.026 -17.712  0.00  0.00    +0.351 C 
ATOM      8  H   UNL     1      38.069 -21.454 -16.856  0.00  0.00    +0.152 HD
ENDROOT
BRANCH   5   9
ATOM      9  C   UNL     1      35.212 -20.408 -20.390  0.00  0.00    +0.035 C 
ATOM     10  C   UNL     1      36.127 -19.431 -20.785  0.00  0.00    +0.000 C 
ATOM     11  C   UNL     1      33.843 -20.172 -20.513  0.00  0.00    +0.000 C 
ATOM     12  C   UNL     1      35.672 -18.219 -21.304  0.00  0.00    -0.000 C 
ATOM     13  C   UNL     1      33.388 -18.959 -21.032  0.00  0.00    -0.000 C 
ATOM     14  C   UNL     1      34.303 -17.983 -21.428  0.00  0.00    -0.000 C 
ENDBRANCH   5   9
BRANCH   3  15
ATOM     15  C   UNL     1      36.979 -22.482 -15.392  0.00  0.00    +0.092 C 
ATOM     16  C   UNL     1      37.657 -23.826 -15.227  0.00  0.00    +0.023 C 
ENDBRANCH   3  15
TORSDOF 2
ENDMDL
MODEL 9
REMARK VINA RESULT:      -7.5      4.286      5.837
REMARK  Name = 71682
REMARK  2 active torsions:
REMARK  status: ('A' for Active; 'I' for Inactive)
REMARK    1  A    between atoms: N_3  and  C_15
REMARK    2  A    between atoms: C_5  and  C_9
REMARK                            x       y       z     vdW  Elec       q    Type
REMARK                         _______ _______ _______ _____ _____    ______ ____
ROOT
ATOM      1  O   UNL     1      33.069 -22.044 -19.495  0.00  0.00    -0.422 OA
ATOM      2  O   UNL     1      36.185 -22.333 -18.008  0.00  0.00    -0.210 OA
ATOM      3  N   UNL     1      33.171 -20.114 -20.720  0.00  0.00    -0.278 N 
ATOM      4  N   UNL     1      35.031 -20.936 -19.449  0.00  0.00    -0.282 NA
ATOM      5  C   UNL     1      33.925 -22.861 -18.691  0.00  0.00    +0.308 C 
ATOM      6  C   UNL     1      35.186 -22.042 -18.654  0.00  0.00    +0.230 C 
ATOM      7  C   UNL     1      33.821 -20.981 -19.896  0.00  0.00    +0.351 C 
ATOM      8  H   UNL     1      32.231 -20.296 -20.951  0.00  0.00    +0.152 HD
ENDROOT
BRANCH   5   9
ATOM      9  C   UNL     1      33.319 -23.041 -17.340  0.00  0.00    +0.035 C 
ATOM     10  C   UNL     1      34.121 -23.410 -16.259  0.00  0.00    +0.000 C 
ATOM     11  C   UNL     1      31.951 -22.841 -17.157  0.00  0.00    +0.000 C 
ATOM     12  C   UNL     1      33.554 -23.579 -14.996  0.00  0.00    -0.000 C 
ATOM     13  C   UNL     1      31.384 -23.010 -15.893  0.00  0.00    -0.000 C 
ATOM     14  C   UNL     1      32.185 -23.379 -14.813  0.00  0.00    -0.000 C 
ENDBRANCH   5   9
BRANCH   3  15
ATOM     15  C   UNL     1      33.800 -18.944 -21.262  0.00  0.00    +0.092 C 
ATOM     16  C   UNL     1      34.538 -19.256 -22.547  0.00  0.00    +0.023 C 
ENDBRANCH   3  15
TORSDOF 2
ENDMDL
