MODEL 1
REMARK VINA RESULT:      -6.9      0.000      0.000
REMARK  Name = 445494
REMARK  6 active torsions:
REMARK  status: ('A' for Active; 'I' for Inactive)
REMARK    1  A    between atoms: CA_1  and  N_2
REMARK    2  A    between atoms: CA_1  and  CB_6
REMARK    3  A    between atoms: CA_1  and  C_13
REMARK    4  A    between atoms: CB_6  and  CG_7
REMARK    5  A    between atoms: C_13  and  O_14
REMARK    6  A    between atoms: C_13  and  OXT_16
REMARK                            x       y       z     vdW  Elec       q    Type
REMARK                         _______ _______ _______ _____ _____    ______ ____
ROOT
ATOM      1  CA  PHE A   1      34.503 -18.259 -23.579  0.00  0.00    -0.004 C 
ENDROOT
BRANCH   1   2
ATOM      2  N   PHE A   1      34.881 -19.343 -24.497  0.00  0.00    +0.385 N 
ATOM      3  H1  PHE A   1      34.199 -20.097 -24.433  0.00  0.00    -0.089 HD
ATOM      4  H2  PHE A   1      35.803 -19.696 -24.243  0.00  0.00    -0.089 HD
ATOM      5  H3  PHE A   1      34.905 -18.986 -25.453  0.00  0.00    -0.089 HD
ENDBRANCH   1   2
BRANCH   1   6
ATOM      6  CB  PHE A   1      35.348 -18.402 -22.299  0.00  0.00    +0.009 C 
BRANCH   6   7
ATOM      7  CG  PHE A   1      34.807 -19.425 -21.330  0.00  0.00    -0.024 C 
ATOM      8  CD1 PHE A   1      35.686 -20.279 -20.682  0.00  0.00    -0.004 C 
ATOM      9  CD2 PHE A   1      33.440 -19.492 -21.104  0.00  0.00    -0.004 C 
ATOM     10  CE1 PHE A   1      35.187 -21.224 -19.787  0.00  0.00    -0.000 C 
ATOM     11  CE2 PHE A   1      32.942 -20.438 -20.208  0.00  0.00    -0.000 C 
ATOM     12  CZ  PHE A   1      33.815 -21.304 -19.550  0.00  0.00    -0.000 C 
ENDBRANCH   6   7
ENDBRANCH   1   6
BRANCH   1  13
ATOM     13  C   PHE A   1      34.677 -16.898 -24.281  0.00  0.00    +0.208 C 
BRANCH  13  14
ATOM     14  O   PHE A   1      34.865 -17.115 -25.676  0.00  0.00    -0.362 OA
ATOM     15  H   PHE A   1      34.128 -17.298 -26.226  0.00  0.00    +0.213 HD
ENDBRANCH  13  14
BRANCH  13  16
ATOM     16  OXT PHE A   1      35.775 -16.191 -23.718  0.00  0.00    -0.362 OA
ATOM     17  HXT PHE A   1      35.913 -16.201 -22.791  0.00  0.00    +0.213 HD
ENDBRANCH  13  16
ENDBRANCH   1  13
TORSDOF 6
ENDMDL
MODEL 2
REMARK VINA RESULT:      -6.8      0.102      1.399
REMARK  Name = 445494
REMARK  6 active torsions:
REMARK  status: ('A' for Active; 'I' for Inactive)
REMARK    1  A    between atoms: CA_1  and  N_2
REMARK    2  A    between atoms: CA_1  and  CB_6
REMARK    3  A    between atoms: CA_1  and  C_13
REMARK    4  A    between atoms: CB_6  and  CG_7
REMARK    5  A    between atoms: C_13  and  O_14
REMARK    6  A    between atoms: C_13  and  OXT_16
REMARK                            x       y       z     vdW  Elec       q    Type
REMARK                         _______ _______ _______ _____ _____    ______ ____
ROOT
ATOM      1  CA  PHE A   1      34.483 -18.281 -23.480  0.00  0.00    -0.004 C 
ENDROOT
BRANCH   1   2
ATOM      2  N   PHE A   1      34.873 -19.367 -24.391  0.00  0.00    +0.385 N 
ATOM      3  H1  PHE A   1      35.450 -18.990 -25.142  0.00  0.00    -0.089 HD
ATOM      4  H2  PHE A   1      34.035 -19.794 -24.787  0.00  0.00    -0.089 HD
ATOM      5  H3  PHE A   1      35.402 -20.071 -23.875  0.00  0.00    -0.089 HD
ENDBRANCH   1   2
BRANCH   1   6
ATOM      6  CB  PHE A   1      35.318 -18.417 -22.192  0.00  0.00    +0.009 C 
BRANCH   6   7
ATOM      7  CG  PHE A   1      34.795 -19.467 -21.241  0.00  0.00    -0.024 C 
ATOM      8  CD1 PHE A   1      33.431 -19.559 -21.014  0.00  0.00    -0.004 C 
ATOM      9  CD2 PHE A   1      35.688 -20.322 -20.614  0.00  0.00    -0.004 C 
ATOM     10  CE1 PHE A   1      32.947 -20.528 -20.137  0.00  0.00    -0.000 C 
ATOM     11  CE2 PHE A   1      35.204 -21.292 -19.737  0.00  0.00    -0.000 C 
ATOM     12  CZ  PHE A   1      33.833 -21.396 -19.498  0.00  0.00    -0.000 C 
ENDBRANCH   6   7
ENDBRANCH   1   6
BRANCH   1  13
ATOM     13  C   PHE A   1      34.659 -16.922 -24.184  0.00  0.00    +0.208 C 
BRANCH  13  14
ATOM     14  O   PHE A   1      34.812 -17.140 -25.583  0.00  0.00    -0.362 OA
ATOM     15  H   PHE A   1      34.297 -17.794 -26.015  0.00  0.00    +0.213 HD
ENDBRANCH  13  14
BRANCH  13  16
ATOM     16  OXT PHE A   1      35.778 -16.230 -23.646  0.00  0.00    -0.362 OA
ATOM     17  HXT PHE A   1      36.303 -16.633 -22.983  0.00  0.00    +0.213 HD
ENDBRANCH  13  16
ENDBRANCH   1  13
TORSDOF 6
ENDMDL
MODEL 3
REMARK VINA RESULT:      -6.8      1.704      1.961
REMARK  Name = 445494
REMARK  6 active torsions:
REMARK  status: ('A' for Active; 'I' for Inactive)
REMARK    1  A    between atoms: CA_1  and  N_2
REMARK    2  A    between atoms: CA_1  and  CB_6
REMARK    3  A    between atoms: CA_1  and  C_13
REMARK    4  A    between atoms: CB_6  and  CG_7
REMARK    5  A    between atoms: C_13  and  O_14
REMARK    6  A    between atoms: C_13  and  OXT_16
REMARK                            x       y       z     vdW  Elec       q    Type
REMARK                         _______ _______ _______ _____ _____    ______ ____
ROOT
ATOM      1  CA  PHE A   1      34.974 -17.644 -21.665  0.00  0.00    -0.004 C 
ENDROOT
BRANCH   1   2
ATOM      2  N   PHE A   1      34.846 -16.391 -20.906  0.00  0.00    +0.385 N 
ATOM      3  H1  PHE A   1      34.108 -16.489 -20.210  0.00  0.00    -0.089 HD
ATOM      4  H2  PHE A   1      34.612 -15.631 -21.545  0.00  0.00    -0.089 HD
ATOM      5  H3  PHE A   1      35.729 -16.183 -20.440  0.00  0.00    -0.089 HD
ENDBRANCH   1   2
BRANCH   1   6
ATOM      6  CB  PHE A   1      33.781 -18.547 -21.299  0.00  0.00    +0.009 C 
BRANCH   6   7
ATOM      7  CG  PHE A   1      34.182 -19.820 -20.593  0.00  0.00    -0.024 C 
ATOM      8  CD1 PHE A   1      35.522 -20.168 -20.528  0.00  0.00    -0.004 C 
ATOM      9  CD2 PHE A   1      33.202 -20.618 -20.021  0.00  0.00    -0.004 C 
ATOM     10  CE1 PHE A   1      35.892 -21.344 -19.876  0.00  0.00    -0.000 C 
ATOM     11  CE2 PHE A   1      33.574 -21.793 -19.369  0.00  0.00    -0.000 C 
ATOM     12  CZ  PHE A   1      34.918 -22.157 -19.296  0.00  0.00    -0.000 C 
ENDBRANCH   6   7
ENDBRANCH   1   6
BRANCH   1  13
ATOM     13  C   PHE A   1      35.070 -17.333 -23.171  0.00  0.00    +0.208 C 
BRANCH  13  14
ATOM     14  O   PHE A   1      35.839 -18.350 -23.807  0.00  0.00    -0.362 OA
ATOM     15  H   PHE A   1      36.725 -18.503 -23.540  0.00  0.00    +0.213 HD
ENDBRANCH  13  14
BRANCH  13  16
ATOM     16  OXT PHE A   1      35.648 -16.050 -23.373  0.00  0.00    -0.362 OA
ATOM     17  HXT PHE A   1      35.106 -15.286 -23.369  0.00  0.00    +0.213 HD
ENDBRANCH  13  16
ENDBRANCH   1  13
TORSDOF 6
ENDMDL
MODEL 4
REMARK VINA RESULT:      -6.7      1.379      1.642
REMARK  Name = 445494
REMARK  6 active torsions:
REMARK  status: ('A' for Active; 'I' for Inactive)
REMARK    1  A    between atoms: CA_1  and  N_2
REMARK    2  A    between atoms: CA_1  and  CB_6
REMARK    3  A    between atoms: CA_1  and  C_13
REMARK    4  A    between atoms: CB_6  and  CG_7
REMARK    5  A    between atoms: C_13  and  O_14
REMARK    6  A    between atoms: C_13  and  OXT_16
REMARK                            x       y       z     vdW  Elec       q    Type
REMARK                         _______ _______ _______ _____ _____    ______ ____
ROOT
ATOM      1  CA  PHE A   1      35.233 -18.157 -23.202  0.00  0.00    -0.004 C 
ENDROOT
BRANCH   1   2
ATOM      2  N   PHE A   1      35.744 -16.807 -23.482  0.00  0.00    +0.385 N 
ATOM      3  H1  PHE A   1      36.751 -16.849 -23.630  0.00  0.00    -0.089 HD
ATOM      4  H2  PHE A   1      35.542 -16.197 -22.689  0.00  0.00    -0.089 HD
ATOM      5  H3  PHE A   1      35.291 -16.438 -24.318  0.00  0.00    -0.089 HD
ENDBRANCH   1   2
BRANCH   1   6
ATOM      6  CB  PHE A   1      34.377 -18.087 -21.923  0.00  0.00    +0.009 C 
BRANCH   6   7
ATOM      7  CG  PHE A   1      34.457 -19.333 -21.074  0.00  0.00    -0.024 C 
ATOM      8  CD1 PHE A   1      35.699 -19.871 -20.774  0.00  0.00    -0.004 C 
ATOM      9  CD2 PHE A   1      33.288 -19.916 -20.610  0.00  0.00    -0.004 C 
ATOM     10  CE1 PHE A   1      35.774 -21.022 -19.990  0.00  0.00    -0.000 C 
ATOM     11  CE2 PHE A   1      33.364 -21.067 -19.826  0.00  0.00    -0.000 C 
ATOM     12  CZ  PHE A   1      34.606 -21.620 -19.515  0.00  0.00    -0.000 C 
ENDBRANCH   6   7
ENDBRANCH   1   6
BRANCH   1  13
ATOM     13  C   PHE A   1      34.463 -18.686 -24.428  0.00  0.00    +0.208 C 
BRANCH  13  14
ATOM     14  O   PHE A   1      34.937 -19.990 -24.747  0.00  0.00    -0.362 OA
ATOM     15  H   PHE A   1      35.085 -20.615 -24.064  0.00  0.00    +0.213 HD
ENDBRANCH  13  14
BRANCH  13  16
ATOM     16  OXT PHE A   1      34.620 -17.799 -25.528  0.00  0.00    -0.362 OA
ATOM     17  HXT PHE A   1      33.865 -17.465 -25.972  0.00  0.00    +0.213 HD
ENDBRANCH  13  16
ENDBRANCH   1  13
TORSDOF 6
ENDMDL
MODEL 5
REMARK VINA RESULT:      -6.2      3.389      5.117
REMARK  Name = 445494
REMARK  6 active torsions:
REMARK  status: ('A' for Active; 'I' for Inactive)
REMARK    1  A    between atoms: CA_1  and  N_2
REMARK    2  A    between atoms: CA_1  and  CB_6
REMARK    3  A    between atoms: CA_1  and  C_13
REMARK    4  A    between atoms: CB_6  and  CG_7
REMARK    5  A    between atoms: C_13  and  O_14
REMARK    6  A    between atoms: C_13  and  OXT_16
REMARK                            x       y       z     vdW  Elec       q    Type
REMARK                         _______ _______ _______ _____ _____    ______ ____
ROOT
ATOM      1  CA  PHE A   1      35.101 -20.408 -20.896  0.00  0.00    -0.004 C 
ENDROOT
BRANCH   1   2
ATOM      2  N   PHE A   1      33.791 -20.274 -20.241  0.00  0.00    +0.385 N 
ATOM      3  H1  PHE A   1      33.914 -19.871 -19.313  0.00  0.00    -0.089 HD
ATOM      4  H2  PHE A   1      33.359 -21.194 -20.158  0.00  0.00    -0.089 HD
ATOM      5  H3  PHE A   1      33.192 -19.666 -20.800  0.00  0.00    -0.089 HD
ENDBRANCH   1   2
BRANCH   1   6
ATOM      6  CB  PHE A   1      35.658 -18.992 -21.141  0.00  0.00    +0.009 C 
BRANCH   6   7
ATOM      7  CG  PHE A   1      35.261 -18.410 -22.477  0.00  0.00    -0.024 C 
ATOM      8  CD1 PHE A   1      34.884 -19.262 -23.503  0.00  0.00    -0.004 C 
ATOM      9  CD2 PHE A   1      35.281 -17.035 -22.652  0.00  0.00    -0.004 C 
ATOM     10  CE1 PHE A   1      34.517 -18.725 -24.737  0.00  0.00    -0.000 C 
ATOM     11  CE2 PHE A   1      34.914 -16.499 -23.886  0.00  0.00    -0.000 C 
ATOM     12  CZ  PHE A   1      34.532 -17.343 -24.929  0.00  0.00    -0.000 C 
ENDBRANCH   6   7
ENDBRANCH   1   6
BRANCH   1  13
ATOM     13  C   PHE A   1      36.025 -21.290 -20.036  0.00  0.00    +0.208 C 
BRANCH  13  14
ATOM     14  O   PHE A   1      35.269 -22.372 -19.501  0.00  0.00    -0.362 OA
ATOM     15  H   PHE A   1      35.439 -23.249 -19.786  0.00  0.00    +0.213 HD
ENDBRANCH  13  14
BRANCH  13  16
ATOM     16  OXT PHE A   1      36.620 -20.518 -19.001  0.00  0.00    -0.362 OA
ATOM     17  HXT PHE A   1      36.152 -19.798 -18.626  0.00  0.00    +0.213 HD
ENDBRANCH  13  16
ENDBRANCH   1  13
TORSDOF 6
ENDMDL
MODEL 6
REMARK VINA RESULT:      -6.1      3.635      4.701
REMARK  Name = 445494
REMARK  6 active torsions:
REMARK  status: ('A' for Active; 'I' for Inactive)
REMARK    1  A    between atoms: CA_1  and  N_2
REMARK    2  A    between atoms: CA_1  and  CB_6
REMARK    3  A    between atoms: CA_1  and  C_13
REMARK    4  A    between atoms: CB_6  and  CG_7
REMARK    5  A    between atoms: C_13  and  O_14
REMARK    6  A    between atoms: C_13  and  OXT_16
REMARK                            x       y       z     vdW  Elec       q    Type
REMARK                         _______ _______ _______ _____ _____    ______ ____
ROOT
ATOM      1  CA  PHE A   1      33.614 -14.298 -23.089  0.00  0.00    -0.004 C 
ENDROOT
BRANCH   1   2
ATOM      2  N   PHE A   1      34.172 -13.063 -23.659  0.00  0.00    +0.385 N 
ATOM      3  H1  PHE A   1      34.683 -12.555 -22.938  0.00  0.00    -0.089 HD
ATOM      4  H2  PHE A   1      33.414 -12.481 -24.014  0.00  0.00    -0.089 HD
ATOM      5  H3  PHE A   1      34.807 -13.298 -24.423  0.00  0.00    -0.089 HD
ENDBRANCH   1   2
BRANCH   1   6
ATOM      6  CB  PHE A   1      34.789 -15.194 -22.652  0.00  0.00    +0.009 C 
BRANCH   6   7
ATOM      7  CG  PHE A   1      34.754 -16.575 -23.262  0.00  0.00    -0.024 C 
ATOM      8  CD1 PHE A   1      35.029 -17.676 -22.466  0.00  0.00    -0.004 C 
ATOM      9  CD2 PHE A   1      34.447 -16.717 -24.606  0.00  0.00    -0.004 C 
ATOM     10  CE1 PHE A   1      34.997 -18.952 -23.029  0.00  0.00    -0.000 C 
ATOM     11  CE2 PHE A   1      34.415 -17.993 -25.168  0.00  0.00    -0.000 C 
ATOM     12  CZ  PHE A   1      34.690 -19.110 -24.380  0.00  0.00    -0.000 C 
ENDBRANCH   6   7
ENDBRANCH   1   6
BRANCH   1  13
ATOM     13  C   PHE A   1      32.647 -13.951 -21.941  0.00  0.00    +0.208 C 
BRANCH  13  14
ATOM     14  O   PHE A   1      32.062 -15.151 -21.446  0.00  0.00    -0.362 OA
ATOM     15  H   PHE A   1      31.818 -15.833 -22.041  0.00  0.00    +0.213 HD
ENDBRANCH  13  14
BRANCH  13  16
ATOM     16  OXT PHE A   1      31.651 -13.043 -22.395  0.00  0.00    -0.362 OA
ATOM     17  HXT PHE A   1      31.294 -12.407 -21.807  0.00  0.00    +0.213 HD
ENDBRANCH  13  16
ENDBRANCH   1  13
TORSDOF 6
ENDMDL
MODEL 7
REMARK VINA RESULT:      -6.0     11.088     12.816
REMARK  Name = 445494
REMARK  6 active torsions:
REMARK  status: ('A' for Active; 'I' for Inactive)
REMARK    1  A    between atoms: CA_1  and  N_2
REMARK    2  A    between atoms: CA_1  and  CB_6
REMARK    3  A    between atoms: CA_1  and  C_13
REMARK    4  A    between atoms: CB_6  and  CG_7
REMARK    5  A    between atoms: C_13  and  O_14
REMARK    6  A    between atoms: C_13  and  OXT_16
REMARK                            x       y       z     vdW  Elec       q    Type
REMARK                         _______ _______ _______ _____ _____    ______ ____
ROOT
ATOM      1  CA  PHE A   1      32.374  -8.483 -21.374  0.00  0.00    -0.004 C 
ENDROOT
BRANCH   1   2
ATOM      2  N   PHE A   1      31.700  -9.739 -21.734  0.00  0.00    +0.385 N 
ATOM      3  H1  PHE A   1      30.730  -9.707 -21.421  0.00  0.00    -0.089 HD
ATOM      4  H2  PHE A   1      32.177 -10.520 -21.285  0.00  0.00    -0.089 HD
ATOM      5  H3  PHE A   1      31.726  -9.861 -22.747  0.00  0.00    -0.089 HD
ENDBRANCH   1   2
BRANCH   1   6
ATOM      6  CB  PHE A   1      31.732  -7.346 -22.192  0.00  0.00    +0.009 C 
BRANCH   6   7
ATOM      7  CG  PHE A   1      32.584  -6.877 -23.347  0.00  0.00    -0.024 C 
ATOM      8  CD1 PHE A   1      32.061  -5.965 -24.250  0.00  0.00    -0.004 C 
ATOM      9  CD2 PHE A   1      33.874  -7.367 -23.482  0.00  0.00    -0.004 C 
ATOM     10  CE1 PHE A   1      32.848  -5.532 -25.317  0.00  0.00    -0.000 C 
ATOM     11  CE2 PHE A   1      34.660  -6.933 -24.550  0.00  0.00    -0.000 C 
ATOM     12  CZ  PHE A   1      34.148  -6.016 -25.467  0.00  0.00    -0.000 C 
ENDBRANCH   6   7
ENDBRANCH   1   6
BRANCH   1  13
ATOM     13  C   PHE A   1      32.291  -8.266 -19.851  0.00  0.00    +0.208 C 
BRANCH  13  14
ATOM     14  O   PHE A   1      33.166  -7.204 -19.485  0.00  0.00    -0.362 OA
ATOM     15  H   PHE A   1      32.929  -6.617 -18.793  0.00  0.00    +0.213 HD
ENDBRANCH  13  14
BRANCH  13  16
ATOM     16  OXT PHE A   1      32.623  -9.465 -19.164  0.00  0.00    -0.362 OA
ATOM     17  HXT PHE A   1      32.760  -9.452 -18.237  0.00  0.00    +0.213 HD
ENDBRANCH  13  16
ENDBRANCH   1  13
TORSDOF 6
ENDMDL
MODEL 8
REMARK VINA RESULT:      -6.0      3.795      5.343
REMARK  Name = 445494
REMARK  6 active torsions:
REMARK  status: ('A' for Active; 'I' for Inactive)
REMARK    1  A    between atoms: CA_1  and  N_2
REMARK    2  A    between atoms: CA_1  and  CB_6
REMARK    3  A    between atoms: CA_1  and  C_13
REMARK    4  A    between atoms: CB_6  and  CG_7
REMARK    5  A    between atoms: C_13  and  O_14
REMARK    6  A    between atoms: C_13  and  OXT_16
REMARK                            x       y       z     vdW  Elec       q    Type
REMARK                         _______ _______ _______ _____ _____    ______ ____
ROOT
ATOM      1  CA  PHE A   1      34.547 -20.822 -19.833  0.00  0.00    -0.004 C 
ENDROOT
BRANCH   1   2
ATOM      2  N   PHE A   1      35.885 -20.962 -20.425  0.00  0.00    +0.385 N 
ATOM      3  H1  PHE A   1      35.913 -21.796 -21.010  0.00  0.00    -0.089 HD
ATOM      4  H2  PHE A   1      36.578 -21.046 -19.681  0.00  0.00    -0.089 HD
ATOM      5  H3  PHE A   1      36.094 -20.140 -20.992  0.00  0.00    -0.089 HD
ENDBRANCH   1   2
BRANCH   1   6
ATOM      6  CB  PHE A   1      33.614 -20.220 -20.901  0.00  0.00    +0.009 C 
BRANCH   6   7
ATOM      7  CG  PHE A   1      34.227 -19.067 -21.658  0.00  0.00    -0.024 C 
ATOM      8  CD1 PHE A   1      34.348 -17.834 -21.036  0.00  0.00    -0.004 C 
ATOM      9  CD2 PHE A   1      34.659 -19.261 -22.961  0.00  0.00    -0.004 C 
ATOM     10  CE1 PHE A   1      34.914 -16.768 -21.734  0.00  0.00    -0.000 C 
ATOM     11  CE2 PHE A   1      35.225 -18.195 -23.659  0.00  0.00    -0.000 C 
ATOM     12  CZ  PHE A   1      35.353 -16.948 -23.046  0.00  0.00    -0.000 C 
ENDBRANCH   6   7
ENDBRANCH   1   6
BRANCH   1  13
ATOM     13  C   PHE A   1      34.069 -22.185 -19.297  0.00  0.00    +0.208 C 
BRANCH  13  14
ATOM     14  O   PHE A   1      32.707 -22.075 -18.895  0.00  0.00    -0.362 OA
ATOM     15  H   PHE A   1      32.495 -21.937 -17.992  0.00  0.00    +0.213 HD
ENDBRANCH  13  14
BRANCH  13  16
ATOM     16  OXT PHE A   1      34.892 -22.605 -18.217  0.00  0.00    -0.362 OA
ATOM     17  HXT PHE A   1      35.539 -22.025 -17.867  0.00  0.00    +0.213 HD
ENDBRANCH  13  16
ENDBRANCH   1  13
TORSDOF 6
ENDMDL
MODEL 9
REMARK VINA RESULT:      -5.9      4.449      5.445
REMARK  Name = 445494
REMARK  6 active torsions:
REMARK  status: ('A' for Active; 'I' for Inactive)
REMARK    1  A    between atoms: CA_1  and  N_2
REMARK    2  A    between atoms: CA_1  and  CB_6
REMARK    3  A    between atoms: CA_1  and  C_13
REMARK    4  A    between atoms: CB_6  and  CG_7
REMARK    5  A    between atoms: C_13  and  O_14
REMARK    6  A    between atoms: C_13  and  OXT_16
REMARK                            x       y       z     vdW  Elec       q    Type
REMARK                         _______ _______ _______ _____ _____    ______ ____
ROOT
ATOM      1  CA  PHE A   1      33.572 -13.475 -25.274  0.00  0.00    -0.004 C 
ENDROOT
BRANCH   1   2
ATOM      2  N   PHE A   1      33.758 -12.034 -25.502  0.00  0.00    +0.385 N 
ATOM      3  H1  PHE A   1      33.148 -11.509 -24.877  0.00  0.00    -0.089 HD
ATOM      4  H2  PHE A   1      33.527 -11.812 -26.470  0.00  0.00    -0.089 HD
ATOM      5  H3  PHE A   1      34.730 -11.784 -25.319  0.00  0.00    -0.089 HD
ENDBRANCH   1   2
BRANCH   1   6
ATOM      6  CB  PHE A   1      32.563 -13.648 -24.122  0.00  0.00    +0.009 C 
BRANCH   6   7
ATOM      7  CG  PHE A   1      33.135 -14.362 -22.921  0.00  0.00    -0.024 C 
ATOM      8  CD1 PHE A   1      34.288 -15.117 -23.065  0.00  0.00    -0.004 C 
ATOM      9  CD2 PHE A   1      32.497 -14.248 -21.695  0.00  0.00    -0.004 C 
ATOM     10  CE1 PHE A   1      34.817 -15.777 -21.956  0.00  0.00    -0.000 C 
ATOM     11  CE2 PHE A   1      33.027 -14.908 -20.586  0.00  0.00    -0.000 C 
ATOM     12  CZ  PHE A   1      34.186 -15.672 -20.716  0.00  0.00    -0.000 C 
ENDBRANCH   6   7
ENDBRANCH   1   6
BRANCH   1  13
ATOM     13  C   PHE A   1      33.132 -14.157 -26.583  0.00  0.00    +0.208 C 
BRANCH  13  14
ATOM     14  O   PHE A   1      33.460 -15.542 -26.519  0.00  0.00    -0.362 OA
ATOM     15  H   PHE A   1      33.371 -16.007 -25.710  0.00  0.00    +0.213 HD
ENDBRANCH  13  14
BRANCH  13  16
ATOM     16  OXT PHE A   1      33.756 -13.532 -27.697  0.00  0.00    -0.362 OA
ATOM     17  HXT PHE A   1      34.564 -13.869 -28.032  0.00  0.00    +0.213 HD
ENDBRANCH  13  16
ENDBRANCH   1  13
TORSDOF 6
ENDMDL
