MODEL 1
REMARK VINA RESULT:      -9.7      0.000      0.000
REMARK  Name = 24178109
REMARK  9 active torsions:
REMARK  status: ('A' for Active; 'I' for Inactive)
REMARK    1  A    between atoms: S_1  and  C_4
REMARK    2  A    between atoms: S_1  and  N_16
REMARK    3  A    between atoms: C_7  and  C_10
REMARK    4  A    between atoms: N_16  and  C_17
REMARK    5  A    between atoms: N_16  and  C_21
REMARK    6  A    between atoms: C_17  and  C_18
REMARK    7  A    between atoms: C_18  and  O_19
REMARK    8  A    between atoms: C_21  and  C_24
REMARK    9  A    between atoms: N_23  and  O_26
REMARK                            x       y       z     vdW  Elec       q    Type
REMARK                         _______ _______ _______ _____ _____    ______ ____
ROOT
ATOM      1  S   UNL     1      35.441 -24.818 -14.796  0.00  0.00    +0.064 S 
ATOM      2  O   UNL     1      34.322 -24.622 -13.891  0.00  0.00    -0.153 OA
ATOM      3  O   UNL     1      35.700 -26.141 -15.334  0.00  0.00    -0.153 OA
ENDROOT
BRANCH   1   4
ATOM      4  C   UNL     1      35.199 -23.729 -16.172  0.00  0.00    +0.122 C 
ATOM      5  C   UNL     1      36.240 -22.904 -16.598  0.00  0.00    +0.020 C 
ATOM      6  C   UNL     1      33.968 -23.695 -16.828  0.00  0.00    +0.020 C 
ATOM      7  C   UNL     1      34.820 -22.012 -18.337  0.00  0.00    +0.000 C 
ATOM      8  C   UNL     1      36.050 -22.046 -17.681  0.00  0.00    +0.001 C 
ATOM      9  C   UNL     1      33.779 -22.837 -17.911  0.00  0.00    +0.001 C 
BRANCH   7  10
ATOM     10  C   UNL     1      34.622 -21.121 -19.461  0.00  0.00    +0.000 C 
ATOM     11  C   UNL     1      35.723 -20.604 -20.143  0.00  0.00    +0.000 C 
ATOM     12  C   UNL     1      33.330 -20.782 -19.862  0.00  0.00    +0.000 C 
ATOM     13  C   UNL     1      35.531 -19.746 -21.226  0.00  0.00    +0.000 C 
ATOM     14  C   UNL     1      33.138 -19.925 -20.946  0.00  0.00    +0.000 C 
ATOM     15  C   UNL     1      34.240 -19.407 -21.628  0.00  0.00    +0.000 C 
ENDBRANCH   7  10
ENDBRANCH   1   4
BRANCH   1  16
ATOM     16  N   UNL     1      36.878 -24.200 -14.073  0.00  0.00    -0.144 NA
BRANCH  16  17
ATOM     17  C   UNL     1      36.780 -22.926 -13.316  0.00  0.00    +0.128 C 
BRANCH  17  18
ATOM     18  C   UNL     1      37.165 -23.163 -11.867  0.00  0.00    +0.156 C 
BRANCH  18  19
ATOM     19  O   UNL     1      38.477 -22.662 -11.639  0.00  0.00    -0.380 OA
ATOM     20  H   UNL     1      38.757 -22.889 -10.738  0.00  0.00    +0.211 HD
ENDBRANCH  18  19
ENDBRANCH  17  18
ENDBRANCH  16  17
BRANCH  16  21
ATOM     21  C   UNL     1      37.796 -25.166 -13.418  0.00  0.00    +0.182 C 
BRANCH  21  24
ATOM     22  O   UNL     1      40.128 -24.618 -13.679  0.00  0.00    -0.271 OA
ATOM     23  N   UNL     1      39.044 -25.769 -15.362  0.00  0.00    -0.196 N 
ATOM     24  C   UNL     1      39.119 -25.146 -14.141  0.00  0.00    +0.262 C 
ATOM     25  H   UNL     1      38.211 -26.179 -15.690  0.00  0.00    +0.182 HD
BRANCH  23  26
ATOM     26  O   UNL     1      40.226 -25.787 -16.114  0.00  0.00    -0.295 OA
ATOM     27  H   UNL     1      40.631 -24.906 -16.101  0.00  0.00    +0.241 HD
ENDBRANCH  23  26
ENDBRANCH  21  24
ENDBRANCH  16  21
ENDBRANCH   1  16
TORSDOF 9
ENDMDL
MODEL 2
REMARK VINA RESULT:      -9.6      3.236      5.272
REMARK  Name = 24178109
REMARK  9 active torsions:
REMARK  status: ('A' for Active; 'I' for Inactive)
REMARK    1  A    between atoms: S_1  and  C_4
REMARK    2  A    between atoms: S_1  and  N_16
REMARK    3  A    between atoms: C_7  and  C_10
REMARK    4  A    between atoms: N_16  and  C_17
REMARK    5  A    between atoms: N_16  and  C_21
REMARK    6  A    between atoms: C_17  and  C_18
REMARK    7  A    between atoms: C_18  and  O_19
REMARK    8  A    between atoms: C_21  and  C_24
REMARK    9  A    between atoms: N_23  and  O_26
REMARK                            x       y       z     vdW  Elec       q    Type
REMARK                         _______ _______ _______ _____ _____    ______ ____
ROOT
ATOM      1  S   UNL     1      37.105 -23.307 -14.838  0.00  0.00    +0.064 S 
ATOM      2  O   UNL     1      37.690 -23.176 -16.161  0.00  0.00    -0.153 OA
ATOM      3  O   UNL     1      37.357 -22.283 -13.842  0.00  0.00    -0.153 OA
ENDROOT
BRANCH   1   4
ATOM      4  C   UNL     1      35.350 -23.414 -15.050  0.00  0.00    +0.122 C 
ATOM      5  C   UNL     1      34.543 -23.821 -13.987  0.00  0.00    +0.020 C 
ATOM      6  C   UNL     1      34.774 -23.093 -16.280  0.00  0.00    +0.020 C 
ATOM      7  C   UNL     1      32.585 -23.584 -15.383  0.00  0.00    +0.000 C 
ATOM      8  C   UNL     1      33.161 -23.906 -14.154  0.00  0.00    +0.001 C 
ATOM      9  C   UNL     1      33.392 -23.178 -16.446  0.00  0.00    +0.001 C 
BRANCH   7  10
ATOM     10  C   UNL     1      31.151 -23.673 -15.557  0.00  0.00    +0.000 C 
ATOM     11  C   UNL     1      30.427 -24.657 -14.885  0.00  0.00    +0.000 C 
ATOM     12  C   UNL     1      30.494 -22.772 -16.395  0.00  0.00    +0.000 C 
ATOM     13  C   UNL     1      29.045 -24.741 -15.052  0.00  0.00    +0.000 C 
ATOM     14  C   UNL     1      29.112 -22.856 -16.561  0.00  0.00    +0.000 C 
ATOM     15  C   UNL     1      28.387 -23.841 -15.889  0.00  0.00    +0.000 C 
ENDBRANCH   7  10
ENDBRANCH   1   4
BRANCH   1  16
ATOM     16  N   UNL     1      37.501 -24.853 -14.186  0.00  0.00    -0.144 NA
BRANCH  16  17
ATOM     17  C   UNL     1      37.930 -25.914 -15.132  0.00  0.00    +0.128 C 
BRANCH  17  18
ATOM     18  C   UNL     1      36.816 -26.933 -15.294  0.00  0.00    +0.156 C 
BRANCH  18  19
ATOM     19  O   UNL     1      36.878 -27.496 -16.599  0.00  0.00    -0.380 OA
ATOM     20  H   UNL     1      37.247 -28.392 -16.547  0.00  0.00    +0.211 HD
ENDBRANCH  18  19
ENDBRANCH  17  18
ENDBRANCH  16  17
BRANCH  16  21
ATOM     21  C   UNL     1      38.273 -24.894 -12.918  0.00  0.00    +0.182 C 
BRANCH  21  24
ATOM     22  O   UNL     1      36.679 -26.078 -11.553  0.00  0.00    -0.271 OA
ATOM     23  N   UNL     1      37.225 -23.899 -11.017  0.00  0.00    -0.196 N 
ATOM     24  C   UNL     1      37.311 -25.046 -11.768  0.00  0.00    +0.262 C 
ATOM     25  H   UNL     1      37.753 -23.095 -11.229  0.00  0.00    +0.182 HD
BRANCH  23  26
ATOM     26  O   UNL     1      36.341 -23.943  -9.932  0.00  0.00    -0.295 OA
ATOM     27  H   UNL     1      35.963 -23.062  -9.787  0.00  0.00    +0.241 HD
ENDBRANCH  23  26
ENDBRANCH  21  24
ENDBRANCH  16  21
ENDBRANCH   1  16
TORSDOF 9
ENDMDL
MODEL 3
REMARK VINA RESULT:      -9.5      1.020      2.943
REMARK  Name = 24178109
REMARK  9 active torsions:
REMARK  status: ('A' for Active; 'I' for Inactive)
REMARK    1  A    between atoms: S_1  and  C_4
REMARK    2  A    between atoms: S_1  and  N_16
REMARK    3  A    between atoms: C_7  and  C_10
REMARK    4  A    between atoms: N_16  and  C_17
REMARK    5  A    between atoms: N_16  and  C_21
REMARK    6  A    between atoms: C_17  and  C_18
REMARK    7  A    between atoms: C_18  and  O_19
REMARK    8  A    between atoms: C_21  and  C_24
REMARK    9  A    between atoms: N_23  and  O_26
REMARK                            x       y       z     vdW  Elec       q    Type
REMARK                         _______ _______ _______ _____ _____    ______ ____
ROOT
ATOM      1  S   UNL     1      35.493 -24.818 -14.820  0.00  0.00    +0.064 S 
ATOM      2  O   UNL     1      34.421 -24.592 -13.867  0.00  0.00    -0.153 OA
ATOM      3  O   UNL     1      35.696 -26.148 -15.363  0.00  0.00    -0.153 OA
ENDROOT
BRANCH   1   4
ATOM      4  C   UNL     1      35.217 -23.728 -16.188  0.00  0.00    +0.122 C 
ATOM      5  C   UNL     1      33.983 -23.726 -16.839  0.00  0.00    +0.020 C 
ATOM      6  C   UNL     1      36.233 -22.874 -16.617  0.00  0.00    +0.020 C 
ATOM      7  C   UNL     1      34.782 -22.014 -18.345  0.00  0.00    +0.000 C 
ATOM      8  C   UNL     1      33.766 -22.868 -17.917  0.00  0.00    +0.001 C 
ATOM      9  C   UNL     1      36.016 -22.017 -17.695  0.00  0.00    +0.001 C 
BRANCH   7  10
ATOM     10  C   UNL     1      34.557 -21.124 -19.464  0.00  0.00    +0.000 C 
ATOM     11  C   UNL     1      33.256 -20.788 -19.838  0.00  0.00    +0.000 C 
ATOM     12  C   UNL     1      35.642 -20.602 -20.169  0.00  0.00    +0.000 C 
ATOM     13  C   UNL     1      33.040 -19.930 -20.916  0.00  0.00    +0.000 C 
ATOM     14  C   UNL     1      35.426 -19.743 -21.246  0.00  0.00    +0.000 C 
ATOM     15  C   UNL     1      34.124 -19.407 -21.620  0.00  0.00    +0.000 C 
ENDBRANCH   7  10
ENDBRANCH   1   4
BRANCH   1  16
ATOM     16  N   UNL     1      36.976 -24.232 -14.164  0.00  0.00    -0.144 NA
BRANCH  16  17
ATOM     17  C   UNL     1      38.210 -24.420 -14.969  0.00  0.00    +0.128 C 
BRANCH  17  18
ATOM     18  C   UNL     1      39.078 -25.488 -14.330  0.00  0.00    +0.156 C 
BRANCH  18  19
ATOM     19  O   UNL     1      38.586 -26.774 -14.688  0.00  0.00    -0.380 OA
ATOM     20  H   UNL     1      38.461 -26.815 -15.649  0.00  0.00    +0.211 HD
ENDBRANCH  18  19
ENDBRANCH  17  18
ENDBRANCH  16  17
BRANCH  16  21
ATOM     21  C   UNL     1      36.958 -22.919 -13.473  0.00  0.00    +0.182 C 
BRANCH  21  24
ATOM     22  O   UNL     1      38.340 -22.833 -11.502  0.00  0.00    -0.271 OA
ATOM     23  N   UNL     1      36.209 -23.709 -11.348  0.00  0.00    -0.196 N 
ATOM     24  C   UNL     1      37.264 -23.133 -12.013  0.00  0.00    +0.262 C 
ATOM     25  H   UNL     1      35.364 -23.931 -11.802  0.00  0.00    +0.182 HD
BRANCH  23  26
ATOM     26  O   UNL     1      36.408 -23.961  -9.985  0.00  0.00    -0.295 OA
ATOM     27  H   UNL     1      36.386 -24.917  -9.826  0.00  0.00    +0.241 HD
ENDBRANCH  23  26
ENDBRANCH  21  24
ENDBRANCH  16  21
ENDBRANCH   1  16
TORSDOF 9
ENDMDL
MODEL 4
REMARK VINA RESULT:      -9.5      2.534      4.279
REMARK  Name = 24178109
REMARK  9 active torsions:
REMARK  status: ('A' for Active; 'I' for Inactive)
REMARK    1  A    between atoms: S_1  and  C_4
REMARK    2  A    between atoms: S_1  and  N_16
REMARK    3  A    between atoms: C_7  and  C_10
REMARK    4  A    between atoms: N_16  and  C_17
REMARK    5  A    between atoms: N_16  and  C_21
REMARK    6  A    between atoms: C_17  and  C_18
REMARK    7  A    between atoms: C_18  and  O_19
REMARK    8  A    between atoms: C_21  and  C_24
REMARK    9  A    between atoms: N_23  and  O_26
REMARK                            x       y       z     vdW  Elec       q    Type
REMARK                         _______ _______ _______ _____ _____    ______ ____
ROOT
ATOM      1  S   UNL     1      33.664 -23.085 -18.069  0.00  0.00    +0.064 S 
ATOM      2  O   UNL     1      32.441 -22.776 -17.349  0.00  0.00    -0.153 OA
ATOM      3  O   UNL     1      33.760 -24.329 -18.810  0.00  0.00    -0.153 OA
ENDROOT
BRANCH   1   4
ATOM      4  C   UNL     1      33.945 -21.766 -19.217  0.00  0.00    +0.122 C 
ATOM      5  C   UNL     1      32.889 -20.937 -19.598  0.00  0.00    +0.020 C 
ATOM      6  C   UNL     1      35.220 -21.558 -19.743  0.00  0.00    +0.020 C 
ATOM      7  C   UNL     1      34.385 -19.690 -21.027  0.00  0.00    +0.000 C 
ATOM      8  C   UNL     1      33.110 -19.899 -20.502  0.00  0.00    +0.001 C 
ATOM      9  C   UNL     1      35.441 -20.520 -20.647  0.00  0.00    +0.001 C 
BRANCH   7  10
ATOM     10  C   UNL     1      34.615 -18.613 -21.967  0.00  0.00    +0.000 C 
ATOM     11  C   UNL     1      34.743 -18.891 -23.328  0.00  0.00    +0.000 C 
ATOM     12  C   UNL     1      34.707 -17.298 -21.511  0.00  0.00    +0.000 C 
ATOM     13  C   UNL     1      34.964 -17.852 -24.232  0.00  0.00    +0.000 C 
ATOM     14  C   UNL     1      34.926 -16.260 -22.416  0.00  0.00    +0.000 C 
ATOM     15  C   UNL     1      35.055 -16.538 -23.778  0.00  0.00    +0.000 C 
ENDBRANCH   7  10
ENDBRANCH   1   4
BRANCH   1  16
ATOM     16  N   UNL     1      35.009 -22.948 -17.000  0.00  0.00    -0.144 NA
BRANCH  16  17
ATOM     17  C   UNL     1      36.111 -22.032 -17.389  0.00  0.00    +0.128 C 
BRANCH  17  18
ATOM     18  C   UNL     1      37.126 -21.947 -16.263  0.00  0.00    +0.156 C 
BRANCH  18  19
ATOM     19  O   UNL     1      37.944 -23.110 -16.276  0.00  0.00    -0.380 OA
ATOM     20  H   UNL     1      37.417 -23.873 -16.562  0.00  0.00    +0.211 HD
ENDBRANCH  18  19
ENDBRANCH  17  18
ENDBRANCH  16  17
BRANCH  16  21
ATOM     21  C   UNL     1      34.734 -22.898 -15.541  0.00  0.00    +0.182 C 
BRANCH  21  24
ATOM     22  O   UNL     1      33.626 -24.687 -14.370  0.00  0.00    -0.271 OA
ATOM     23  N   UNL     1      35.671 -25.087 -15.364  0.00  0.00    -0.196 N 
ATOM     24  C   UNL     1      34.593 -24.306 -15.025  0.00  0.00    +0.262 C 
ATOM     25  H   UNL     1      36.424 -24.736 -15.893  0.00  0.00    +0.182 HD
BRANCH  23  26
ATOM     26  O   UNL     1      35.633 -26.412 -14.912  0.00  0.00    -0.295 OA
ATOM     27  H   UNL     1      34.823 -26.840 -15.231  0.00  0.00    +0.241 HD
ENDBRANCH  23  26
ENDBRANCH  21  24
ENDBRANCH  16  21
ENDBRANCH   1  16
TORSDOF 9
ENDMDL
MODEL 5
REMARK VINA RESULT:      -9.4      1.907      3.205
REMARK  Name = 24178109
REMARK  9 active torsions:
REMARK  status: ('A' for Active; 'I' for Inactive)
REMARK    1  A    between atoms: S_1  and  C_4
REMARK    2  A    between atoms: S_1  and  N_16
REMARK    3  A    between atoms: C_7  and  C_10
REMARK    4  A    between atoms: N_16  and  C_17
REMARK    5  A    between atoms: N_16  and  C_21
REMARK    6  A    between atoms: C_17  and  C_18
REMARK    7  A    between atoms: C_18  and  O_19
REMARK    8  A    between atoms: C_21  and  C_24
REMARK    9  A    between atoms: N_23  and  O_26
REMARK                            x       y       z     vdW  Elec       q    Type
REMARK                         _______ _______ _______ _____ _____    ______ ____
ROOT
ATOM      1  S   UNL     1      36.361 -24.190 -15.004  0.00  0.00    +0.064 S 
ATOM      2  O   UNL     1      36.129 -25.580 -15.352  0.00  0.00    -0.153 OA
ATOM      3  O   UNL     1      37.694 -23.763 -14.620  0.00  0.00    -0.153 OA
ENDROOT
BRANCH   1   4
ATOM      4  C   UNL     1      35.879 -23.213 -16.401  0.00  0.00    +0.122 C 
ATOM      5  C   UNL     1      34.597 -23.345 -16.935  0.00  0.00    +0.020 C 
ATOM      6  C   UNL     1      36.781 -22.313 -16.969  0.00  0.00    +0.020 C 
ATOM      7  C   UNL     1      35.119 -21.676 -18.602  0.00  0.00    +0.000 C 
ATOM      8  C   UNL     1      34.217 -22.576 -18.035  0.00  0.00    +0.001 C 
ATOM      9  C   UNL     1      36.402 -21.544 -18.069  0.00  0.00    +0.001 C 
BRANCH   7  10
ATOM     10  C   UNL     1      34.726 -20.879 -19.744  0.00  0.00    +0.000 C 
ATOM     11  C   UNL     1      33.374 -20.676 -20.020  0.00  0.00    +0.000 C 
ATOM     12  C   UNL     1      35.699 -20.312 -20.567  0.00  0.00    +0.000 C 
ATOM     13  C   UNL     1      32.996 -19.906 -21.120  0.00  0.00    +0.000 C 
ATOM     14  C   UNL     1      35.321 -19.542 -21.666  0.00  0.00    +0.000 C 
ATOM     15  C   UNL     1      33.968 -19.339 -21.943  0.00  0.00    +0.000 C 
ENDBRANCH   7  10
ENDBRANCH   1   4
BRANCH   1  16
ATOM     16  N   UNL     1      35.232 -23.704 -13.796  0.00  0.00    -0.144 NA
BRANCH  16  17
ATOM     17  C   UNL     1      33.917 -24.393 -13.760  0.00  0.00    +0.128 C 
BRANCH  17  18
ATOM     18  C   UNL     1      32.806 -23.386 -13.996  0.00  0.00    +0.156 C 
BRANCH  18  19
ATOM     19  O   UNL     1      32.267 -22.977 -12.744  0.00  0.00    -0.380 OA
ATOM     20  H   UNL     1      31.303 -22.894 -12.820  0.00  0.00    +0.211 HD
ENDBRANCH  18  19
ENDBRANCH  17  18
ENDBRANCH  16  17
BRANCH  16  21
ATOM     21  C   UNL     1      35.751 -23.426 -12.433  0.00  0.00    +0.182 C 
BRANCH  21  24
ATOM     22  O   UNL     1      35.296 -25.027 -10.691  0.00  0.00    -0.271 OA
ATOM     23  N   UNL     1      36.874 -25.529 -12.300  0.00  0.00    -0.196 N 
ATOM     24  C   UNL     1      35.926 -24.733 -11.704  0.00  0.00    +0.262 C 
ATOM     25  H   UNL     1      37.354 -25.249 -13.114  0.00  0.00    +0.182 HD
BRANCH  23  26
ATOM     26  O   UNL     1      37.116 -26.762 -11.681  0.00  0.00    -0.295 OA
ATOM     27  H   UNL     1      38.065 -26.855 -11.506  0.00  0.00    +0.241 HD
ENDBRANCH  23  26
ENDBRANCH  21  24
ENDBRANCH  16  21
ENDBRANCH   1  16
TORSDOF 9
ENDMDL
MODEL 6
REMARK VINA RESULT:      -9.2      3.571      4.901
REMARK  Name = 24178109
REMARK  9 active torsions:
REMARK  status: ('A' for Active; 'I' for Inactive)
REMARK    1  A    between atoms: S_1  and  C_4
REMARK    2  A    between atoms: S_1  and  N_16
REMARK    3  A    between atoms: C_7  and  C_10
REMARK    4  A    between atoms: N_16  and  C_17
REMARK    5  A    between atoms: N_16  and  C_21
REMARK    6  A    between atoms: C_17  and  C_18
REMARK    7  A    between atoms: C_18  and  O_19
REMARK    8  A    between atoms: C_21  and  C_24
REMARK    9  A    between atoms: N_23  and  O_26
REMARK                            x       y       z     vdW  Elec       q    Type
REMARK                         _______ _______ _______ _____ _____    ______ ____
ROOT
ATOM      1  S   UNL     1      37.134 -23.715 -13.326  0.00  0.00    +0.064 S 
ATOM      2  O   UNL     1      37.661 -22.405 -13.665  0.00  0.00    -0.153 OA
ATOM      3  O   UNL     1      37.161 -24.159 -11.945  0.00  0.00    -0.153 OA
ENDROOT
BRANCH   1   4
ATOM      4  C   UNL     1      35.445 -23.755 -13.858  0.00  0.00    +0.122 C 
ATOM      5  C   UNL     1      34.474 -24.350 -13.052  0.00  0.00    +0.020 C 
ATOM      6  C   UNL     1      35.086 -23.194 -15.084  0.00  0.00    +0.020 C 
ATOM      7  C   UNL     1      32.785 -23.820 -14.696  0.00  0.00    +0.000 C 
ATOM      8  C   UNL     1      33.144 -24.382 -13.471  0.00  0.00    +0.001 C 
ATOM      9  C   UNL     1      33.756 -23.226 -15.503  0.00  0.00    +0.001 C 
BRANCH   7  10
ATOM     10  C   UNL     1      31.405 -23.854 -15.132  0.00  0.00    +0.000 C 
ATOM     11  C   UNL     1      30.537 -24.819 -14.624  0.00  0.00    +0.000 C 
ATOM     12  C   UNL     1      30.944 -22.919 -16.059  0.00  0.00    +0.000 C 
ATOM     13  C   UNL     1      29.207 -24.851 -15.044  0.00  0.00    +0.000 C 
ATOM     14  C   UNL     1      29.614 -22.950 -16.478  0.00  0.00    +0.000 C 
ATOM     15  C   UNL     1      28.745 -23.917 -15.970  0.00  0.00    +0.000 C 
ENDBRANCH   7  10
ENDBRANCH   1   4
BRANCH   1  16
ATOM     16  N   UNL     1      37.873 -24.908 -14.327  0.00  0.00    -0.144 NA
BRANCH  16  17
ATOM     17  C   UNL     1      36.984 -25.862 -15.038  0.00  0.00    +0.128 C 
BRANCH  17  18
ATOM     18  C   UNL     1      36.974 -27.192 -14.305  0.00  0.00    +0.156 C 
BRANCH  18  19
ATOM     19  O   UNL     1      36.906 -26.958 -12.904  0.00  0.00    -0.380 OA
ATOM     20  H   UNL     1      37.729 -27.259 -12.486  0.00  0.00    +0.211 HD
ENDBRANCH  18  19
ENDBRANCH  17  18
ENDBRANCH  16  17
BRANCH  16  21
ATOM     21  C   UNL     1      39.026 -24.493 -15.166  0.00  0.00    +0.182 C 
BRANCH  21  24
ATOM     22  O   UNL     1      40.643 -26.024 -16.083  0.00  0.00    -0.271 OA
ATOM     23  N   UNL     1      40.343 -25.937 -13.795  0.00  0.00    -0.196 N 
ATOM     24  C   UNL     1      40.090 -25.557 -15.091  0.00  0.00    +0.262 C 
ATOM     25  H   UNL     1      39.874 -25.532 -13.030  0.00  0.00    +0.182 HD
BRANCH  23  26
ATOM     26  O   UNL     1      41.311 -26.935 -13.628  0.00  0.00    -0.295 OA
ATOM     27  H   UNL     1      41.578 -26.975 -12.697  0.00  0.00    +0.241 HD
ENDBRANCH  23  26
ENDBRANCH  21  24
ENDBRANCH  16  21
ENDBRANCH   1  16
TORSDOF 9
ENDMDL
MODEL 7
REMARK VINA RESULT:      -9.0      3.653      5.021
REMARK  Name = 24178109
REMARK  9 active torsions:
REMARK  status: ('A' for Active; 'I' for Inactive)
REMARK    1  A    between atoms: S_1  and  C_4
REMARK    2  A    between atoms: S_1  and  N_16
REMARK    3  A    between atoms: C_7  and  C_10
REMARK    4  A    between atoms: N_16  and  C_17
REMARK    5  A    between atoms: N_16  and  C_21
REMARK    6  A    between atoms: C_17  and  C_18
REMARK    7  A    between atoms: C_18  and  O_19
REMARK    8  A    between atoms: C_21  and  C_24
REMARK    9  A    between atoms: N_23  and  O_26
REMARK                            x       y       z     vdW  Elec       q    Type
REMARK                         _______ _______ _______ _____ _____    ______ ____
ROOT
ATOM      1  S   UNL     1      37.062 -23.535 -12.971  0.00  0.00    +0.064 S 
ATOM      2  O   UNL     1      37.663 -22.365 -13.586  0.00  0.00    -0.153 OA
ATOM      3  O   UNL     1      37.000 -23.628 -11.524  0.00  0.00    -0.153 OA
ENDROOT
BRANCH   1   4
ATOM      4  C   UNL     1      35.401 -23.650 -13.575  0.00  0.00    +0.122 C 
ATOM      5  C   UNL     1      35.094 -23.201 -14.860  0.00  0.00    +0.020 C 
ATOM      6  C   UNL     1      34.399 -24.186 -12.766  0.00  0.00    +0.020 C 
ATOM      7  C   UNL     1      32.785 -23.828 -14.528  0.00  0.00    +0.000 C 
ATOM      8  C   UNL     1      33.787 -23.291 -15.336  0.00  0.00    +0.001 C 
ATOM      9  C   UNL     1      33.091 -24.276 -13.242  0.00  0.00    +0.001 C 
BRANCH   7  10
ATOM     10  C   UNL     1      31.427 -23.921 -15.021  0.00  0.00    +0.000 C 
ATOM     11  C   UNL     1      30.579 -24.919 -14.543  0.00  0.00    +0.000 C 
ATOM     12  C   UNL     1      30.968 -23.010 -15.973  0.00  0.00    +0.000 C 
ATOM     13  C   UNL     1      29.270 -25.008 -15.019  0.00  0.00    +0.000 C 
ATOM     14  C   UNL     1      29.659 -23.098 -16.447  0.00  0.00    +0.000 C 
ATOM     15  C   UNL     1      28.810 -24.098 -15.969  0.00  0.00    +0.000 C 
ENDBRANCH   7  10
ENDBRANCH   1   4
BRANCH   1  16
ATOM     16  N   UNL     1      37.794 -24.959 -13.608  0.00  0.00    -0.144 NA
BRANCH  16  17
ATOM     17  C   UNL     1      39.259 -25.123 -13.428  0.00  0.00    +0.128 C 
BRANCH  17  18
ATOM     18  C   UNL     1      39.959 -24.957 -14.765  0.00  0.00    +0.156 C 
BRANCH  18  19
ATOM     19  O   UNL     1      39.197 -24.085 -15.591  0.00  0.00    -0.380 OA
ATOM     20  H   UNL     1      38.574 -24.605 -16.123  0.00  0.00    +0.211 HD
ENDBRANCH  18  19
ENDBRANCH  17  18
ENDBRANCH  16  17
BRANCH  16  21
ATOM     21  C   UNL     1      37.068 -26.244 -13.449  0.00  0.00    +0.182 C 
BRANCH  21  24
ATOM     22  O   UNL     1      38.236 -27.876 -14.782  0.00  0.00    -0.271 OA
ATOM     23  N   UNL     1      36.352 -26.855 -15.642  0.00  0.00    -0.196 N 
ATOM     24  C   UNL     1      37.298 -27.088 -14.675  0.00  0.00    +0.262 C 
ATOM     25  H   UNL     1      35.617 -26.213 -15.510  0.00  0.00    +0.182 HD
BRANCH  23  26
ATOM     26  O   UNL     1      36.495 -27.587 -16.828  0.00  0.00    -0.295 OA
ATOM     27  H   UNL     1      36.604 -26.977 -17.574  0.00  0.00    +0.241 HD
ENDBRANCH  23  26
ENDBRANCH  21  24
ENDBRANCH  16  21
ENDBRANCH   1  16
TORSDOF 9
ENDMDL
MODEL 8
REMARK VINA RESULT:      -8.9      3.404      4.735
REMARK  Name = 24178109
REMARK  9 active torsions:
REMARK  status: ('A' for Active; 'I' for Inactive)
REMARK    1  A    between atoms: S_1  and  C_4
REMARK    2  A    between atoms: S_1  and  N_16
REMARK    3  A    between atoms: C_7  and  C_10
REMARK    4  A    between atoms: N_16  and  C_17
REMARK    5  A    between atoms: N_16  and  C_21
REMARK    6  A    between atoms: C_17  and  C_18
REMARK    7  A    between atoms: C_18  and  O_19
REMARK    8  A    between atoms: C_21  and  C_24
REMARK    9  A    between atoms: N_23  and  O_26
REMARK                            x       y       z     vdW  Elec       q    Type
REMARK                         _______ _______ _______ _____ _____    ______ ____
ROOT
ATOM      1  S   UNL     1      37.156 -23.504 -14.363  0.00  0.00    +0.064 S 
ATOM      2  O   UNL     1      37.825 -23.838 -15.608  0.00  0.00    -0.153 OA
ATOM      3  O   UNL     1      37.428 -22.229 -13.726  0.00  0.00    -0.153 OA
ENDROOT
BRANCH   1   4
ATOM      4  C   UNL     1      35.413 -23.577 -14.669  0.00  0.00    +0.122 C 
ATOM      5  C   UNL     1      34.532 -23.851 -13.623  0.00  0.00    +0.020 C 
ATOM      6  C   UNL     1      34.921 -23.363 -15.957  0.00  0.00    +0.020 C 
ATOM      7  C   UNL     1      32.668 -23.694 -15.151  0.00  0.00    +0.000 C 
ATOM      8  C   UNL     1      33.160 -23.908 -13.864  0.00  0.00    +0.001 C 
ATOM      9  C   UNL     1      33.548 -23.421 -16.198  0.00  0.00    +0.001 C 
BRANCH   7  10
ATOM     10  C   UNL     1      31.244 -23.755 -15.402  0.00  0.00    +0.000 C 
ATOM     11  C   UNL     1      30.456 -24.691 -14.732  0.00  0.00    +0.000 C 
ATOM     12  C   UNL     1      30.658 -22.876 -16.314  0.00  0.00    +0.000 C 
ATOM     13  C   UNL     1      29.084 -24.748 -14.973  0.00  0.00    +0.000 C 
ATOM     14  C   UNL     1      29.286 -22.933 -16.555  0.00  0.00    +0.000 C 
ATOM     15  C   UNL     1      28.498 -23.869 -15.884  0.00  0.00    +0.000 C 
ENDBRANCH   7  10
ENDBRANCH   1   4
BRANCH   1  16
ATOM     16  N   UNL     1      37.392 -24.777 -13.225  0.00  0.00    -0.144 NA
BRANCH  16  17
ATOM     17  C   UNL     1      37.506 -24.411 -11.791  0.00  0.00    +0.128 C 
BRANCH  17  18
ATOM     18  C   UNL     1      36.190 -24.689 -11.087  0.00  0.00    +0.156 C 
BRANCH  18  19
ATOM     19  O   UNL     1      36.212 -24.099  -9.793  0.00  0.00    -0.380 OA
ATOM     20  H   UNL     1      35.646 -24.612  -9.195  0.00  0.00    +0.211 HD
ENDBRANCH  18  19
ENDBRANCH  17  18
ENDBRANCH  16  17
BRANCH  16  21
ATOM     21  C   UNL     1      36.623 -26.033 -13.418  0.00  0.00    +0.182 C 
BRANCH  21  24
ATOM     22  O   UNL     1      38.367 -27.184 -14.616  0.00  0.00    -0.271 OA
ATOM     23  N   UNL     1      36.290 -26.950 -15.597  0.00  0.00    -0.196 N 
ATOM     24  C   UNL     1      37.205 -26.785 -14.587  0.00  0.00    +0.262 C 
ATOM     25  H   UNL     1      35.367 -26.612 -15.527  0.00  0.00    +0.182 HD
BRANCH  23  26
ATOM     26  O   UNL     1      36.748 -27.628 -16.734  0.00  0.00    -0.295 OA
ATOM     27  H   UNL     1      36.453 -27.160 -17.531  0.00  0.00    +0.241 HD
ENDBRANCH  23  26
ENDBRANCH  21  24
ENDBRANCH  16  21
ENDBRANCH   1  16
TORSDOF 9
ENDMDL
MODEL 9
REMARK VINA RESULT:      -8.8      7.428      9.924
REMARK  Name = 24178109
REMARK  9 active torsions:
REMARK  status: ('A' for Active; 'I' for Inactive)
REMARK    1  A    between atoms: S_1  and  C_4
REMARK    2  A    between atoms: S_1  and  N_16
REMARK    3  A    between atoms: C_7  and  C_10
REMARK    4  A    between atoms: N_16  and  C_17
REMARK    5  A    between atoms: N_16  and  C_21
REMARK    6  A    between atoms: C_17  and  C_18
REMARK    7  A    between atoms: C_18  and  O_19
REMARK    8  A    between atoms: C_21  and  C_24
REMARK    9  A    between atoms: N_23  and  O_26
REMARK                            x       y       z     vdW  Elec       q    Type
REMARK                         _______ _______ _______ _____ _____    ______ ____
ROOT
ATOM      1  S   UNL     1      35.113 -18.507 -23.059  0.00  0.00    +0.064 S 
ATOM      2  O   UNL     1      36.536 -18.518 -23.346  0.00  0.00    -0.153 OA
ATOM      3  O   UNL     1      34.175 -18.923 -24.085  0.00  0.00    -0.153 OA
ENDROOT
BRANCH   1   4
ATOM      4  C   UNL     1      34.853 -19.553 -21.654  0.00  0.00    +0.122 C 
ATOM      5  C   UNL     1      33.557 -19.828 -21.219  0.00  0.00    +0.020 C 
ATOM      6  C   UNL     1      35.945 -20.101 -20.980  0.00  0.00    +0.020 C 
ATOM      7  C   UNL     1      34.444 -21.200 -19.440  0.00  0.00    +0.000 C 
ATOM      8  C   UNL     1      33.352 -20.652 -20.113  0.00  0.00    +0.001 C 
ATOM      9  C   UNL     1      35.741 -20.925 -19.873  0.00  0.00    +0.001 C 
BRANCH   7  10
ATOM     10  C   UNL     1      34.232 -22.054 -18.290  0.00  0.00    +0.000 C 
ATOM     11  C   UNL     1      32.966 -22.582 -18.037  0.00  0.00    +0.000 C 
ATOM     12  C   UNL     1      35.295 -22.351 -17.437  0.00  0.00    +0.000 C 
ATOM     13  C   UNL     1      32.763 -23.406 -16.930  0.00  0.00    +0.000 C 
ATOM     14  C   UNL     1      35.092 -23.175 -16.331  0.00  0.00    +0.000 C 
ATOM     15  C   UNL     1      33.825 -23.703 -16.077  0.00  0.00    +0.000 C 
ENDBRANCH   7  10
ENDBRANCH   1   4
BRANCH   1  16
ATOM     16  N   UNL     1      34.659 -16.955 -22.462  0.00  0.00    -0.144 NA
BRANCH  16  17
ATOM     17  C   UNL     1      34.815 -16.700 -21.007  0.00  0.00    +0.128 C 
BRANCH  17  18
ATOM     18  C   UNL     1      34.063 -15.438 -20.627  0.00  0.00    +0.156 C 
BRANCH  18  19
ATOM     19  O   UNL     1      32.674 -15.624 -20.871  0.00  0.00    -0.380 OA
ATOM     20  H   UNL     1      32.331 -16.314 -20.281  0.00  0.00    +0.211 HD
ENDBRANCH  18  19
ENDBRANCH  17  18
ENDBRANCH  16  17
BRANCH  16  21
ATOM     21  C   UNL     1      35.020 -15.766 -23.275  0.00  0.00    +0.182 C 
BRANCH  21  24
ATOM     22  O   UNL     1      32.938 -14.732 -23.904  0.00  0.00    -0.271 OA
ATOM     23  N   UNL     1      34.032 -16.083 -25.424  0.00  0.00    -0.196 N 
ATOM     24  C   UNL     1      33.883 -15.454 -24.212  0.00  0.00    +0.262 C 
ATOM     25  H   UNL     1      34.809 -16.653 -25.625  0.00  0.00    +0.182 HD
BRANCH  23  26
ATOM     26  O   UNL     1      33.011 -15.863 -26.358  0.00  0.00    -0.295 OA
ATOM     27  H   UNL     1      32.189 -15.645 -25.892  0.00  0.00    +0.241 HD
ENDBRANCH  23  26
ENDBRANCH  21  24
ENDBRANCH  16  21
ENDBRANCH   1  16
TORSDOF 9
ENDMDL
