MODEL 1
REMARK VINA RESULT:      -8.6      0.000      0.000
REMARK  Name = 97184
REMARK  4 active torsions:
REMARK  status: ('A' for Active; 'I' for Inactive)
REMARK    1  A    between atoms: N_1  and  C1*_12
REMARK    2  A    between atoms: C3*_13  and  O3*_16
REMARK    3  A    between atoms: C4*_15  and  C5*_18
REMARK    4  A    between atoms: C5*_18  and  O5*_19
REMARK                            x       y       z     vdW  Elec       q    Type
REMARK                         _______ _______ _______ _____ _____    ______ ____
ROOT
ATOM      1  N   UNL     1      34.485 -20.430 -20.442  0.00  0.00    -0.249 N 
ATOM      2  N   UNL     1      32.853 -21.620 -19.491  0.00  0.00    -0.244 NA
ATOM      3  N   UNL     1      36.352 -21.090 -19.033  0.00  0.00    -0.228 NA
ATOM      4  N   UNL     1      35.650 -22.668 -17.308  0.00  0.00    -0.247 NA
ATOM      5  C   UNL     1      35.064 -21.117 -19.410  0.00  0.00    +0.151 C 
ATOM      6  C   UNL     1      33.156 -20.767 -20.448  0.00  0.00    +0.223 C 
ATOM      7  C   UNL     1      34.037 -21.847 -18.835  0.00  0.00    +0.122 C 
ATOM      8  C   UNL     1      34.366 -22.645 -17.745  0.00  0.00    +0.076 C 
ATOM      9  C   UNL     1      36.549 -21.900 -17.969  0.00  0.00    +0.252 C 
ATOM     10  C   UNL     1      33.381 -23.489 -17.013  0.00  0.00    +0.053 C 
ENDROOT
BRANCH   1  12
ATOM     11  O4* UNL     1      35.523 -18.309 -20.673  0.00  0.00    -0.335 OA
ATOM     12  C1* UNL     1      35.145 -19.512 -21.364  0.00  0.00    +0.197 C 
ATOM     13  C3* UNL     1      34.901 -17.754 -22.905  0.00  0.00    +0.144 C 
ATOM     14  C2* UNL     1      34.286 -19.088 -22.546  0.00  0.00    +0.083 C 
ATOM     15  C4* UNL     1      35.311 -17.184 -21.551  0.00  0.00    +0.173 C 
BRANCH  13  16
ATOM     16  O3* UNL     1      36.064 -17.992 -23.695  0.00  0.00    -0.382 OA
ATOM     17  H3* UNL     1      36.802 -17.464 -23.352  0.00  0.00    +0.210 HD
ENDBRANCH  13  16
BRANCH  15  18
ATOM     18  C5* UNL     1      34.233 -16.301 -20.936  0.00  0.00    +0.169 C 
BRANCH  18  19
ATOM     19  O5* UNL     1      34.861 -15.262 -20.205  0.00  0.00    -0.379 OA
ATOM     20  H5* UNL     1      35.823 -15.343 -20.288  0.00  0.00    +0.211 HD
ENDBRANCH  18  19
ENDBRANCH  15  18
ENDBRANCH   1  12
TORSDOF 4
ENDMDL
MODEL 2
REMARK VINA RESULT:      -8.2      5.688      8.284
REMARK  Name = 97184
REMARK  4 active torsions:
REMARK  status: ('A' for Active; 'I' for Inactive)
REMARK    1  A    between atoms: N_1  and  C1*_12
REMARK    2  A    between atoms: C3*_13  and  O3*_16
REMARK    3  A    between atoms: C4*_15  and  C5*_18
REMARK    4  A    between atoms: C5*_18  and  O5*_19
REMARK                            x       y       z     vdW  Elec       q    Type
REMARK                         _______ _______ _______ _____ _____    ______ ____
ROOT
ATOM      1  N   UNL     1      34.568 -23.795 -14.647  0.00  0.00    -0.249 N 
ATOM      2  N   UNL     1      32.379 -23.750 -14.210  0.00  0.00    -0.244 NA
ATOM      3  N   UNL     1      34.533 -23.157 -16.992  0.00  0.00    -0.228 NA
ATOM      4  N   UNL     1      32.253 -22.774 -17.776  0.00  0.00    -0.247 NA
ATOM      5  C   UNL     1      33.952 -23.433 -15.814  0.00  0.00    +0.151 C 
ATOM      6  C   UNL     1      33.579 -23.974 -13.715  0.00  0.00    +0.223 C 
ATOM      7  C   UNL     1      32.598 -23.410 -15.521  0.00  0.00    +0.122 C 
ATOM      8  C   UNL     1      31.736 -23.065 -16.557  0.00  0.00    +0.076 C 
ATOM      9  C   UNL     1      33.599 -22.838 -17.916  0.00  0.00    +0.252 C 
ATOM     10  C   UNL     1      30.256 -22.996 -16.409  0.00  0.00    +0.053 C 
ENDROOT
BRANCH   1  12
ATOM     11  O4* UNL     1      36.561 -24.792 -15.459  0.00  0.00    -0.335 OA
ATOM     12  C1* UNL     1      36.000 -23.963 -14.427  0.00  0.00    +0.197 C 
ATOM     13  C3* UNL     1      37.702 -25.228 -13.414  0.00  0.00    +0.144 C 
ATOM     14  C2* UNL     1      36.357 -24.614 -13.099  0.00  0.00    +0.083 C 
ATOM     15  C4* UNL     1      37.559 -25.653 -14.871  0.00  0.00    +0.173 C 
BRANCH  13  16
ATOM     16  O3* UNL     1      38.697 -24.213 -13.308  0.00  0.00    -0.382 OA
ATOM     17  H3* UNL     1      38.269 -23.347 -13.216  0.00  0.00    +0.210 HD
ENDBRANCH  13  16
BRANCH  15  18
ATOM     18  C5* UNL     1      37.086 -27.093 -15.018  0.00  0.00    +0.169 C 
BRANCH  18  19
ATOM     19  O5* UNL     1      36.734 -27.319 -16.372  0.00  0.00    -0.379 OA
ATOM     20  H5* UNL     1      37.217 -26.699 -16.940  0.00  0.00    +0.211 HD
ENDBRANCH  18  19
ENDBRANCH  15  18
ENDBRANCH   1  12
TORSDOF 4
ENDMDL
MODEL 3
REMARK VINA RESULT:      -8.2      5.007      8.100
REMARK  Name = 97184
REMARK  4 active torsions:
REMARK  status: ('A' for Active; 'I' for Inactive)
REMARK    1  A    between atoms: N_1  and  C1*_12
REMARK    2  A    between atoms: C3*_13  and  O3*_16
REMARK    3  A    between atoms: C4*_15  and  C5*_18
REMARK    4  A    between atoms: C5*_18  and  O5*_19
REMARK                            x       y       z     vdW  Elec       q    Type
REMARK                         _______ _______ _______ _____ _____    ______ ____
ROOT
ATOM      1  N   UNL     1      36.283 -23.027 -16.058  0.00  0.00    -0.249 N 
ATOM      2  N   UNL     1      36.791 -21.667 -17.753  0.00  0.00    -0.244 NA
ATOM      3  N   UNL     1      33.990 -23.578 -16.644  0.00  0.00    -0.228 NA
ATOM      4  N   UNL     1      33.306 -22.463 -18.705  0.00  0.00    -0.247 NA
ATOM      5  C   UNL     1      35.163 -22.958 -16.842  0.00  0.00    +0.151 C 
ATOM      6  C   UNL     1      37.232 -22.233 -16.649  0.00  0.00    +0.223 C 
ATOM      7  C   UNL     1      35.500 -22.112 -17.886  0.00  0.00    +0.122 C 
ATOM      8  C   UNL     1      34.518 -21.870 -18.841  0.00  0.00    +0.076 C 
ATOM      9  C   UNL     1      33.120 -23.268 -17.631  0.00  0.00    +0.252 C 
ATOM     10  C   UNL     1      34.717 -20.985 -20.022  0.00  0.00    +0.053 C 
ENDROOT
BRANCH   1  12
ATOM     11  O4* UNL     1      37.766 -23.590 -14.294  0.00  0.00    -0.335 OA
ATOM     12  C1* UNL     1      36.446 -23.793 -14.827  0.00  0.00    +0.197 C 
ATOM     13  C3* UNL     1      37.089 -25.830 -13.846  0.00  0.00    +0.144 C 
ATOM     14  C2* UNL     1      36.268 -25.295 -14.997  0.00  0.00    +0.083 C 
ATOM     15  C4* UNL     1      38.244 -24.839 -13.751  0.00  0.00    +0.173 C 
BRANCH  13  16
ATOM     16  O3* UNL     1      36.301 -25.761 -12.660  0.00  0.00    -0.382 OA
ATOM     17  H3* UNL     1      36.877 -25.830 -11.882  0.00  0.00    +0.210 HD
ENDBRANCH  13  16
BRANCH  15  18
ATOM     18  C5* UNL     1      39.457 -25.272 -14.562  0.00  0.00    +0.169 C 
BRANCH  18  19
ATOM     19  O5* UNL     1      39.468 -26.687 -14.641  0.00  0.00    -0.379 OA
ATOM     20  H5* UNL     1      38.718 -26.987 -15.177  0.00  0.00    +0.211 HD
ENDBRANCH  18  19
ENDBRANCH  15  18
ENDBRANCH   1  12
TORSDOF 4
ENDMDL
MODEL 4
REMARK VINA RESULT:      -8.1      6.132      8.432
REMARK  Name = 97184
REMARK  4 active torsions:
REMARK  status: ('A' for Active; 'I' for Inactive)
REMARK    1  A    between atoms: N_1  and  C1*_12
REMARK    2  A    between atoms: C3*_13  and  O3*_16
REMARK    3  A    between atoms: C4*_15  and  C5*_18
REMARK    4  A    between atoms: C5*_18  and  O5*_19
REMARK                            x       y       z     vdW  Elec       q    Type
REMARK                         _______ _______ _______ _____ _____    ______ ____
ROOT
ATOM      1  N   UNL     1      34.857 -24.153 -14.665  0.00  0.00    -0.249 N 
ATOM      2  N   UNL     1      32.992 -23.919 -13.461  0.00  0.00    -0.244 NA
ATOM      3  N   UNL     1      34.020 -23.507 -16.853  0.00  0.00    -0.228 NA
ATOM      4  N   UNL     1      31.652 -22.924 -16.762  0.00  0.00    -0.247 NA
ATOM      5  C   UNL     1      33.889 -23.735 -15.537  0.00  0.00    +0.151 C 
ATOM      6  C   UNL     1      34.266 -24.249 -13.431  0.00  0.00    +0.223 C 
ATOM      7  C   UNL     1      32.743 -23.596 -14.771  0.00  0.00    +0.122 C 
ATOM      8  C   UNL     1      31.594 -23.173 -15.431  0.00  0.00    +0.076 C 
ATOM      9  C   UNL     1      32.844 -23.104 -17.381  0.00  0.00    +0.252 C 
ATOM     10  C   UNL     1      30.281 -22.976 -14.756  0.00  0.00    +0.053 C 
ENDROOT
BRANCH   1  12
ATOM     11  O4* UNL     1      36.629 -25.708 -14.400  0.00  0.00    -0.335 OA
ATOM     12  C1* UNL     1      36.252 -24.446 -14.977  0.00  0.00    +0.197 C 
ATOM     13  C3* UNL     1      38.501 -24.237 -14.328  0.00  0.00    +0.144 C 
ATOM     14  C2* UNL     1      37.240 -23.413 -14.456  0.00  0.00    +0.083 C 
ATOM     15  C4* UNL     1      37.982 -25.607 -13.907  0.00  0.00    +0.173 C 
BRANCH  13  16
ATOM     16  O3* UNL     1      39.110 -24.330 -15.614  0.00  0.00    -0.382 OA
ATOM     17  H3* UNL     1      39.713 -23.581 -15.743  0.00  0.00    +0.210 HD
ENDBRANCH  13  16
BRANCH  15  18
ATOM     18  C5* UNL     1      37.948 -25.782 -12.395  0.00  0.00    +0.169 C 
BRANCH  18  19
ATOM     19  O5* UNL     1      36.777 -26.501 -12.048  0.00  0.00    -0.379 OA
ATOM     20  H5* UNL     1      36.902 -26.925 -11.185  0.00  0.00    +0.211 HD
ENDBRANCH  18  19
ENDBRANCH  15  18
ENDBRANCH   1  12
TORSDOF 4
ENDMDL
MODEL 5
REMARK VINA RESULT:      -8.0      7.291      9.193
REMARK  Name = 97184
REMARK  4 active torsions:
REMARK  status: ('A' for Active; 'I' for Inactive)
REMARK    1  A    between atoms: N_1  and  C1*_12
REMARK    2  A    between atoms: C3*_13  and  O3*_16
REMARK    3  A    between atoms: C4*_15  and  C5*_18
REMARK    4  A    between atoms: C5*_18  and  O5*_19
REMARK                            x       y       z     vdW  Elec       q    Type
REMARK                         _______ _______ _______ _____ _____    ______ ____
ROOT
ATOM      1  N   UNL     1      34.129 -24.313 -14.085  0.00  0.00    -0.249 N 
ATOM      2  N   UNL     1      33.481 -23.139 -15.870  0.00  0.00    -0.244 NA
ATOM      3  N   UNL     1      31.956 -24.920 -13.181  0.00  0.00    -0.228 NA
ATOM      4  N   UNL     1      30.142 -24.028 -14.549  0.00  0.00    -0.247 NA
ATOM      5  C   UNL     1      32.760 -24.326 -14.075  0.00  0.00    +0.151 C 
ATOM      6  C   UNL     1      34.512 -23.586 -15.183  0.00  0.00    +0.223 C 
ATOM      7  C   UNL     1      32.380 -23.594 -15.189  0.00  0.00    +0.122 C 
ATOM      8  C   UNL     1      31.015 -23.454 -15.413  0.00  0.00    +0.076 C 
ATOM      9  C   UNL     1      30.660 -24.715 -13.502  0.00  0.00    +0.252 C 
ATOM     10  C   UNL     1      30.441 -22.698 -16.561  0.00  0.00    +0.053 C 
ENDROOT
BRANCH   1  12
ATOM     11  O4* UNL     1      35.158 -24.106 -11.957  0.00  0.00    -0.335 OA
ATOM     12  C1* UNL     1      35.018 -24.945 -13.117  0.00  0.00    +0.197 C 
ATOM     13  C3* UNL     1      37.225 -25.219 -12.356  0.00  0.00    +0.144 C 
ATOM     14  C2* UNL     1      36.424 -25.209 -13.638  0.00  0.00    +0.083 C 
ATOM     15  C4* UNL     1      36.524 -24.173 -11.497  0.00  0.00    +0.173 C 
BRANCH  13  16
ATOM     16  O3* UNL     1      37.091 -26.503 -11.751  0.00  0.00    -0.382 OA
ATOM     17  H3* UNL     1      36.201 -26.850 -11.921  0.00  0.00    +0.210 HD
ENDBRANCH  13  16
BRANCH  15  18
ATOM     18  C5* UNL     1      37.139 -22.788 -11.642  0.00  0.00    +0.169 C 
BRANCH  18  19
ATOM     19  O5* UNL     1      38.550 -22.911 -11.606  0.00  0.00    -0.379 OA
ATOM     20  H5* UNL     1      38.954 -22.136 -12.025  0.00  0.00    +0.211 HD
ENDBRANCH  18  19
ENDBRANCH  15  18
ENDBRANCH   1  12
TORSDOF 4
ENDMDL
MODEL 6
REMARK VINA RESULT:      -8.0      5.389      8.306
REMARK  Name = 97184
REMARK  4 active torsions:
REMARK  status: ('A' for Active; 'I' for Inactive)
REMARK    1  A    between atoms: N_1  and  C1*_12
REMARK    2  A    between atoms: C3*_13  and  O3*_16
REMARK    3  A    between atoms: C4*_15  and  C5*_18
REMARK    4  A    between atoms: C5*_18  and  O5*_19
REMARK                            x       y       z     vdW  Elec       q    Type
REMARK                         _______ _______ _______ _____ _____    ______ ____
ROOT
ATOM      1  N   UNL     1      35.875 -23.114 -15.191  0.00  0.00    -0.249 N 
ATOM      2  N   UNL     1      33.909 -23.398 -16.210  0.00  0.00    -0.244 NA
ATOM      3  N   UNL     1      37.088 -21.957 -16.951  0.00  0.00    -0.228 NA
ATOM      4  N   UNL     1      35.696 -21.642 -18.931  0.00  0.00    -0.247 NA
ATOM      5  C   UNL     1      36.004 -22.557 -16.434  0.00  0.00    +0.151 C 
ATOM      6  C   UNL     1      34.597 -23.605 -15.107  0.00  0.00    +0.223 C 
ATOM      7  C   UNL     1      34.776 -22.743 -17.048  0.00  0.00    +0.122 C 
ATOM      8  C   UNL     1      34.641 -22.259 -18.344  0.00  0.00    +0.076 C 
ATOM      9  C   UNL     1      36.837 -21.531 -18.208  0.00  0.00    +0.252 C 
ATOM     10  C   UNL     1      33.390 -22.379 -19.144  0.00  0.00    +0.053 C 
ENDROOT
BRANCH   1  12
ATOM     11  O4* UNL     1      37.748 -24.314 -14.369  0.00  0.00    -0.335 OA
ATOM     12  C1* UNL     1      36.893 -23.179 -14.148  0.00  0.00    +0.197 C 
ATOM     13  C3* UNL     1      37.487 -23.988 -12.023  0.00  0.00    +0.144 C 
ATOM     14  C2* UNL     1      36.337 -23.315 -12.738  0.00  0.00    +0.083 C 
ATOM     15  C4* UNL     1      38.077 -24.902 -13.092  0.00  0.00    +0.173 C 
BRANCH  13  16
ATOM     16  O3* UNL     1      38.442 -22.990 -11.668  0.00  0.00    -0.382 OA
ATOM     17  H3* UNL     1      38.736 -23.133 -10.754  0.00  0.00    +0.210 HD
ENDBRANCH  13  16
BRANCH  15  18
ATOM     18  C5* UNL     1      37.488 -26.305 -13.054  0.00  0.00    +0.169 C 
BRANCH  18  19
ATOM     19  O5* UNL     1      36.846 -26.494 -11.805  0.00  0.00    -0.379 OA
ATOM     20  H5* UNL     1      36.054 -27.041 -11.927  0.00  0.00    +0.211 HD
ENDBRANCH  18  19
ENDBRANCH  15  18
ENDBRANCH   1  12
TORSDOF 4
ENDMDL
MODEL 7
REMARK VINA RESULT:      -8.0      5.171      8.098
REMARK  Name = 97184
REMARK  4 active torsions:
REMARK  status: ('A' for Active; 'I' for Inactive)
REMARK    1  A    between atoms: N_1  and  C1*_12
REMARK    2  A    between atoms: C3*_13  and  O3*_16
REMARK    3  A    between atoms: C4*_15  and  C5*_18
REMARK    4  A    between atoms: C5*_18  and  O5*_19
REMARK                            x       y       z     vdW  Elec       q    Type
REMARK                         _______ _______ _______ _____ _____    ______ ____
ROOT
ATOM      1  N   UNL     1      36.279 -23.192 -15.848  0.00  0.00    -0.249 N 
ATOM      2  N   UNL     1      37.142 -21.755 -17.322  0.00  0.00    -0.244 NA
ATOM      3  N   UNL     1      34.111 -23.584 -16.874  0.00  0.00    -0.228 NA
ATOM      4  N   UNL     1      33.860 -22.305 -18.938  0.00  0.00    -0.247 NA
ATOM      5  C   UNL     1      35.325 -23.015 -16.813  0.00  0.00    +0.151 C 
ATOM      6  C   UNL     1      37.351 -22.413 -16.201  0.00  0.00    +0.223 C 
ATOM      7  C   UNL     1      35.879 -22.122 -17.716  0.00  0.00    +0.122 C 
ATOM      8  C   UNL     1      35.099 -21.770 -18.811  0.00  0.00    +0.076 C 
ATOM      9  C   UNL     1      33.449 -23.166 -17.976  0.00  0.00    +0.252 C 
ATOM     10  C   UNL     1      35.545 -20.823 -19.871  0.00  0.00    +0.053 C 
ENDROOT
BRANCH   1  12
ATOM     11  O4* UNL     1      35.858 -23.247 -13.514  0.00  0.00    -0.335 OA
ATOM     12  C1* UNL     1      36.184 -24.043 -14.666  0.00  0.00    +0.197 C 
ATOM     13  C3* UNL     1      37.307 -25.016 -12.845  0.00  0.00    +0.144 C 
ATOM     14  C2* UNL     1      37.465 -24.794 -14.332  0.00  0.00    +0.083 C 
ATOM     15  C4* UNL     1      36.591 -23.753 -12.378  0.00  0.00    +0.173 C 
BRANCH  13  16
ATOM     16  O3* UNL     1      36.461 -26.146 -12.645  0.00  0.00    -0.382 OA
ATOM     17  H3* UNL     1      36.773 -26.885 -13.191  0.00  0.00    +0.210 HD
ENDBRANCH  13  16
BRANCH  15  18
ATOM     18  C5* UNL     1      37.555 -22.669 -11.917  0.00  0.00    +0.169 C 
BRANCH  18  19
ATOM     19  O5* UNL     1      38.798 -23.270 -11.602  0.00  0.00    -0.379 OA
ATOM     20  H5* UNL     1      38.644 -24.102 -11.127  0.00  0.00    +0.211 HD
ENDBRANCH  18  19
ENDBRANCH  15  18
ENDBRANCH   1  12
TORSDOF 4
ENDMDL
MODEL 8
REMARK VINA RESULT:      -7.7      3.992      7.102
REMARK  Name = 97184
REMARK  4 active torsions:
REMARK  status: ('A' for Active; 'I' for Inactive)
REMARK    1  A    between atoms: N_1  and  C1*_12
REMARK    2  A    between atoms: C3*_13  and  O3*_16
REMARK    3  A    between atoms: C4*_15  and  C5*_18
REMARK    4  A    between atoms: C5*_18  and  O5*_19
REMARK                            x       y       z     vdW  Elec       q    Type
REMARK                         _______ _______ _______ _____ _____    ______ ____
ROOT
ATOM      1  N   UNL     1      34.721 -17.477 -23.913  0.00  0.00    -0.249 N 
ATOM      2  N   UNL     1      33.783 -16.930 -25.864  0.00  0.00    -0.244 NA
ATOM      3  N   UNL     1      34.620 -15.324 -22.790  0.00  0.00    -0.228 NA
ATOM      4  N   UNL     1      33.599 -13.625 -24.213  0.00  0.00    -0.247 NA
ATOM      5  C   UNL     1      34.410 -16.147 -23.829  0.00  0.00    +0.151 C 
ATOM      6  C   UNL     1      34.324 -17.900 -25.156  0.00  0.00    +0.223 C 
ATOM      7  C   UNL     1      33.830 -15.829 -25.047  0.00  0.00    +0.122 C 
ATOM      8  C   UNL     1      33.417 -14.513 -25.222  0.00  0.00    +0.076 C 
ATOM      9  C   UNL     1      34.181 -14.079 -23.077  0.00  0.00    +0.252 C 
ATOM     10  C   UNL     1      32.779 -14.008 -26.469  0.00  0.00    +0.053 C 
ENDROOT
BRANCH   1  12
ATOM     11  O4* UNL     1      34.642 -19.538 -22.741  0.00  0.00    -0.335 OA
ATOM     12  C1* UNL     1      35.353 -18.297 -22.886  0.00  0.00    +0.197 C 
ATOM     13  C3* UNL     1      35.459 -18.864 -20.607  0.00  0.00    +0.144 C 
ATOM     14  C2* UNL     1      35.394 -17.651 -21.508  0.00  0.00    +0.083 C 
ATOM     15  C4* UNL     1      34.605 -19.890 -21.342  0.00  0.00    +0.173 C 
BRANCH  13  16
ATOM     16  O3* UNL     1      36.811 -19.315 -20.556  0.00  0.00    -0.382 OA
ATOM     17  H3* UNL     1      36.829 -20.256 -20.319  0.00  0.00    +0.210 HD
ENDBRANCH  13  16
BRANCH  15  18
ATOM     18  C5* UNL     1      33.151 -19.875 -20.890  0.00  0.00    +0.169 C 
BRANCH  18  19
ATOM     19  O5* UNL     1      32.899 -21.043 -20.129  0.00  0.00    -0.379 OA
ATOM     20  H5* UNL     1      32.170 -20.877 -19.512  0.00  0.00    +0.211 HD
ENDBRANCH  18  19
ENDBRANCH  15  18
ENDBRANCH   1  12
TORSDOF 4
ENDMDL
MODEL 9
REMARK VINA RESULT:      -7.7      1.498      2.663
REMARK  Name = 97184
REMARK  4 active torsions:
REMARK  status: ('A' for Active; 'I' for Inactive)
REMARK    1  A    between atoms: N_1  and  C1*_12
REMARK    2  A    between atoms: C3*_13  and  O3*_16
REMARK    3  A    between atoms: C4*_15  and  C5*_18
REMARK    4  A    between atoms: C5*_18  and  O5*_19
REMARK                            x       y       z     vdW  Elec       q    Type
REMARK                         _______ _______ _______ _____ _____    ______ ____
ROOT
ATOM      1  N   UNL     1      35.690 -19.107 -21.020  0.00  0.00    -0.249 N 
ATOM      2  N   UNL     1      36.426 -20.853 -19.840  0.00  0.00    -0.244 NA
ATOM      3  N   UNL     1      33.296 -19.506 -20.896  0.00  0.00    -0.228 NA
ATOM      4  N   UNL     1      32.794 -21.520 -19.612  0.00  0.00    -0.247 NA
ATOM      5  C   UNL     1      34.577 -19.802 -20.630  0.00  0.00    +0.151 C 
ATOM      6  C   UNL     1      36.775 -19.781 -20.519  0.00  0.00    +0.223 C 
ATOM      7  C   UNL     1      35.055 -20.879 -19.901  0.00  0.00    +0.122 C 
ATOM      8  C   UNL     1      34.109 -21.756 -19.382  0.00  0.00    +0.076 C 
ATOM      9  C   UNL     1      32.474 -20.425 -20.344  0.00  0.00    +0.252 C 
ATOM     10  C   UNL     1      34.456 -22.961 -18.578  0.00  0.00    +0.053 C 
ENDROOT
BRANCH   1  12
ATOM     11  O4* UNL     1      35.294 -16.768 -21.020  0.00  0.00    -0.335 OA
ATOM     12  C1* UNL     1      35.727 -17.885 -21.816  0.00  0.00    +0.197 C 
ATOM     13  C3* UNL     1      34.567 -16.443 -23.265  0.00  0.00    +0.144 C 
ATOM     14  C2* UNL     1      34.836 -17.915 -23.050  0.00  0.00    +0.083 C 
ATOM     15  C4* UNL     1      34.503 -15.889 -21.847  0.00  0.00    +0.173 C 
BRANCH  13  16
ATOM     16  O3* UNL     1      35.682 -15.877 -23.950  0.00  0.00    -0.382 OA
ATOM     17  H3* UNL     1      36.499 -16.094 -23.474  0.00  0.00    +0.210 HD
ENDBRANCH  13  16
BRANCH  15  18
ATOM     18  C5* UNL     1      33.086 -15.867 -21.289  0.00  0.00    +0.169 C 
BRANCH  18  19
ATOM     19  O5* UNL     1      32.333 -14.900 -22.001  0.00  0.00    -0.379 OA
ATOM     20  H5* UNL     1      32.075 -15.262 -22.863  0.00  0.00    +0.211 HD
ENDBRANCH  18  19
ENDBRANCH  15  18
ENDBRANCH   1  12
TORSDOF 4
ENDMDL
