MODEL 1
REMARK VINA RESULT:      -8.9      0.000      0.000
REMARK  Name = 9842606
REMARK  3 active torsions:
REMARK  status: ('A' for Active; 'I' for Inactive)
REMARK    1  A    between atoms: N_2  and  C_12
REMARK    2  A    between atoms: C_13  and  O_17
REMARK    3  A    between atoms: C_14  and  O_19
REMARK                            x       y       z     vdW  Elec       q    Type
REMARK                         _______ _______ _______ _____ _____    ______ ____
ROOT
ATOM      1  I   UNL     1      31.056 -24.210 -13.655  0.00  0.00    -0.045 I 
ATOM      2  N   UNL     1      34.864 -24.149 -15.458  0.00  0.00    -0.250 N 
ATOM      3  N   UNL     1      34.740 -23.114 -17.633  0.00  0.00    -0.233 NA
ATOM      4  N   UNL     1      32.492 -22.382 -18.216  0.00  0.00    -0.234 NA
ATOM      5  C   UNL     1      34.187 -23.536 -16.482  0.00  0.00    +0.122 C 
ATOM      6  C   UNL     1      33.981 -24.440 -14.446  0.00  0.00    +0.070 C 
ATOM      7  C   UNL     1      32.851 -23.432 -16.117  0.00  0.00    +0.136 C 
ATOM      8  C   UNL     1      32.729 -24.007 -14.826  0.00  0.00    +0.036 C 
ATOM      9  C   UNL     1      31.996 -22.829 -17.039  0.00  0.00    +0.110 C 
ATOM     10  C   UNL     1      33.815 -22.551 -18.437  0.00  0.00    +0.252 C 
ATOM     11  N   UNL     1      30.622 -22.667 -16.784  0.00  0.00    -0.346 N 
ATOM     12  H   UNL     1      30.044 -22.237 -17.454  0.00  0.00    +0.143 HD
ATOM     13  H   UNL     1      30.239 -22.984 -15.933  0.00  0.00    +0.143 HD
ENDROOT
BRANCH   2  15
ATOM     14  O   UNL     1      36.500 -25.788 -14.939  0.00  0.00    -0.335 OA
ATOM     15  C   UNL     1      36.293 -24.452 -15.436  0.00  0.00    +0.227 C 
ATOM     16  C   UNL     1      37.107 -23.533 -14.537  0.00  0.00    +0.187 C 
ATOM     17  C   UNL     1      38.301 -24.410 -14.213  0.00  0.00    +0.168 C 
ATOM     18  C   UNL     1      37.664 -25.790 -14.080  0.00  0.00    +0.146 C 
ATOM     19  C   UNL     1      37.215 -26.103 -12.661  0.00  0.00    +0.035 C 
BRANCH  16  20
ATOM     20  O   UNL     1      37.463 -22.333 -15.192  0.00  0.00    -0.378 OA
ATOM     21  H   UNL     1      36.659 -21.861 -15.459  0.00  0.00    +0.211 HD
ENDBRANCH  16  20
BRANCH  17  22
ATOM     22  O   UNL     1      39.199 -24.421 -15.322  0.00  0.00    -0.379 OA
ATOM     23  H   UNL     1      39.449 -25.335 -15.527  0.00  0.00    +0.211 HD
ENDBRANCH  17  22
ENDBRANCH   2  15
TORSDOF 3
ENDMDL
MODEL 2
REMARK VINA RESULT:      -8.5      2.334      3.385
REMARK  Name = 9842606
REMARK  3 active torsions:
REMARK  status: ('A' for Active; 'I' for Inactive)
REMARK    1  A    between atoms: N_2  and  C_12
REMARK    2  A    between atoms: C_13  and  O_17
REMARK    3  A    between atoms: C_14  and  O_19
REMARK                            x       y       z     vdW  Elec       q    Type
REMARK                         _______ _______ _______ _____ _____    ______ ____
ROOT
ATOM      1  I   UNL     1      33.885 -22.692 -18.324  0.00  0.00    -0.045 I 
ATOM      2  N   UNL     1      34.267 -24.263 -14.433  0.00  0.00    -0.250 N 
ATOM      3  N   UNL     1      32.132 -24.239 -13.311  0.00  0.00    -0.233 NA
ATOM      4  N   UNL     1      30.339 -23.333 -14.686  0.00  0.00    -0.234 NA
ATOM      5  C   UNL     1      32.921 -24.000 -14.372  0.00  0.00    +0.122 C 
ATOM      6  C   UNL     1      34.743 -23.892 -15.667  0.00  0.00    +0.070 C 
ATOM      7  C   UNL     1      32.532 -23.453 -15.588  0.00  0.00    +0.136 C 
ATOM      8  C   UNL     1      33.692 -23.387 -16.402  0.00  0.00    +0.036 C 
ATOM      9  C   UNL     1      31.186 -23.116 -15.720  0.00  0.00    +0.110 C 
ATOM     10  C   UNL     1      30.858 -23.873 -13.561  0.00  0.00    +0.252 C 
ATOM     11  N   UNL     1      30.672 -22.554 -16.903  0.00  0.00    -0.346 N 
ATOM     12  H   UNL     1      29.716 -22.328 -16.966  0.00  0.00    +0.143 HD
ATOM     13  H   UNL     1      31.269 -22.388 -17.669  0.00  0.00    +0.143 HD
ENDROOT
BRANCH   2  15
ATOM     14  O   UNL     1      35.304 -23.859 -12.338  0.00  0.00    -0.335 OA
ATOM     15  C   UNL     1      35.075 -24.844 -13.363  0.00  0.00    +0.227 C 
ATOM     16  C   UNL     1      36.449 -25.318 -13.812  0.00  0.00    +0.187 C 
ATOM     17  C   UNL     1      37.230 -25.248 -12.514  0.00  0.00    +0.168 C 
ATOM     18  C   UNL     1      36.664 -23.991 -11.861  0.00  0.00    +0.146 C 
ATOM     19  C   UNL     1      37.429 -22.730 -12.237  0.00  0.00    +0.035 C 
BRANCH  16  20
ATOM     20  O   UNL     1      36.405 -26.619 -14.361  0.00  0.00    -0.378 OA
ATOM     21  H   UNL     1      37.295 -27.005 -14.349  0.00  0.00    +0.211 HD
ENDBRANCH  16  20
BRANCH  17  22
ATOM     22  O   UNL     1      36.905 -26.375 -11.701  0.00  0.00    -0.379 OA
ATOM     23  H   UNL     1      37.334 -26.285 -10.836  0.00  0.00    +0.211 HD
ENDBRANCH  17  22
ENDBRANCH   2  15
TORSDOF 3
ENDMDL
MODEL 3
REMARK VINA RESULT:      -8.4      2.315      3.277
REMARK  Name = 9842606
REMARK  3 active torsions:
REMARK  status: ('A' for Active; 'I' for Inactive)
REMARK    1  A    between atoms: N_2  and  C_12
REMARK    2  A    between atoms: C_13  and  O_17
REMARK    3  A    between atoms: C_14  and  O_19
REMARK                            x       y       z     vdW  Elec       q    Type
REMARK                         _______ _______ _______ _____ _____    ______ ____
ROOT
ATOM      1  I   UNL     1      33.904 -22.737 -18.622  0.00  0.00    -0.045 I 
ATOM      2  N   UNL     1      34.832 -23.413 -14.568  0.00  0.00    -0.250 N 
ATOM      3  N   UNL     1      32.808 -23.606 -13.270  0.00  0.00    -0.233 NA
ATOM      4  N   UNL     1      30.788 -23.368 -14.609  0.00  0.00    -0.234 NA
ATOM      5  C   UNL     1      33.466 -23.422 -14.428  0.00  0.00    +0.122 C 
ATOM      6  C   UNL     1      35.147 -23.199 -15.888  0.00  0.00    +0.070 C 
ATOM      7  C   UNL     1      32.901 -23.212 -15.679  0.00  0.00    +0.136 C 
ATOM      8  C   UNL     1      33.973 -23.070 -16.598  0.00  0.00    +0.036 C 
ATOM      9  C   UNL     1      31.509 -23.188 -15.740  0.00  0.00    +0.110 C 
ATOM     10  C   UNL     1      31.473 -23.563 -13.460  0.00  0.00    +0.252 C 
ATOM     11  N   UNL     1      30.821 -22.982 -16.950  0.00  0.00    -0.346 N 
ATOM     12  H   UNL     1      29.836 -22.972 -16.961  0.00  0.00    +0.143 HD
ATOM     13  H   UNL     1      31.324 -22.850 -17.786  0.00  0.00    +0.143 HD
ENDROOT
BRANCH   2  15
ATOM     14  O   UNL     1      37.138 -23.432 -14.011  0.00  0.00    -0.335 OA
ATOM     15  C   UNL     1      35.804 -23.599 -13.493  0.00  0.00    +0.227 C 
ATOM     16  C   UNL     1      35.766 -24.978 -12.855  0.00  0.00    +0.187 C 
ATOM     17  C   UNL     1      37.176 -25.097 -12.310  0.00  0.00    +0.168 C 
ATOM     18  C   UNL     1      38.003 -24.415 -13.396  0.00  0.00    +0.146 C 
ATOM     19  C   UNL     1      38.478 -25.378 -14.474  0.00  0.00    +0.035 C 
BRANCH  16  20
ATOM     20  O   UNL     1      34.776 -25.068 -11.851  0.00  0.00    -0.378 OA
ATOM     21  H   UNL     1      33.904 -24.903 -12.242  0.00  0.00    +0.211 HD
ENDBRANCH  16  20
BRANCH  17  22
ATOM     22  O   UNL     1      37.286 -24.342 -11.104  0.00  0.00    -0.379 OA
ATOM     23  H   UNL     1      36.459 -24.411 -10.603  0.00  0.00    +0.211 HD
ENDBRANCH  17  22
ENDBRANCH   2  15
TORSDOF 3
ENDMDL
MODEL 4
REMARK VINA RESULT:      -8.4      3.415      5.719
REMARK  Name = 9842606
REMARK  3 active torsions:
REMARK  status: ('A' for Active; 'I' for Inactive)
REMARK    1  A    between atoms: N_2  and  C_12
REMARK    2  A    between atoms: C_13  and  O_17
REMARK    3  A    between atoms: C_14  and  O_19
REMARK                            x       y       z     vdW  Elec       q    Type
REMARK                         _______ _______ _______ _____ _____    ______ ____
ROOT
ATOM      1  I   UNL     1      34.264 -21.918 -19.478  0.00  0.00    -0.045 I 
ATOM      2  N   UNL     1      33.157 -23.552 -15.756  0.00  0.00    -0.250 N 
ATOM      3  N   UNL     1      35.061 -23.625 -14.277  0.00  0.00    -0.233 NA
ATOM      4  N   UNL     1      37.094 -22.752 -15.294  0.00  0.00    -0.234 NA
ATOM      5  C   UNL     1      34.478 -23.338 -15.454  0.00  0.00    +0.122 C 
ATOM      6  C   UNL     1      32.916 -23.140 -17.044  0.00  0.00    +0.070 C 
ATOM      7  C   UNL     1      35.091 -22.779 -16.568  0.00  0.00    +0.136 C 
ATOM      8  C   UNL     1      34.095 -22.658 -17.571  0.00  0.00    +0.036 C 
ATOM      9  C   UNL     1      36.449 -22.486 -16.454  0.00  0.00    +0.110 C 
ATOM     10  C   UNL     1      36.369 -23.298 -14.291  0.00  0.00    +0.252 C 
ATOM     11  N   UNL     1      37.180 -21.919 -17.514  0.00  0.00    -0.346 N 
ATOM     12  H   UNL     1      38.138 -21.723 -17.402  0.00  0.00    +0.143 HD
ATOM     13  H   UNL     1      36.732 -21.716 -18.367  0.00  0.00    +0.143 HD
ENDROOT
BRANCH   2  15
ATOM     14  O   UNL     1      31.007 -24.547 -15.619  0.00  0.00    -0.335 OA
ATOM     15  C   UNL     1      32.156 -24.127 -14.859  0.00  0.00    +0.227 C 
ATOM     16  C   UNL     1      31.638 -23.159 -13.807  0.00  0.00    +0.187 C 
ATOM     17  C   UNL     1      30.276 -23.750 -13.498  0.00  0.00    +0.168 C 
ATOM     18  C   UNL     1      29.811 -24.228 -14.870  0.00  0.00    +0.146 C 
ATOM     19  C   UNL     1      29.033 -23.168 -15.636  0.00  0.00    +0.035 C 
BRANCH  16  20
ATOM     20  O   UNL     1      32.486 -23.104 -12.678  0.00  0.00    -0.378 OA
ATOM     21  H   UNL     1      32.112 -23.647 -11.967  0.00  0.00    +0.211 HD
ENDBRANCH  16  20
BRANCH  17  22
ATOM     22  O   UNL     1      30.431 -24.882 -12.643  0.00  0.00    -0.379 OA
ATOM     23  H   UNL     1      29.603 -25.041 -12.164  0.00  0.00    +0.211 HD
ENDBRANCH  17  22
ENDBRANCH   2  15
TORSDOF 3
ENDMDL
MODEL 5
REMARK VINA RESULT:      -8.2      1.925      2.368
REMARK  Name = 9842606
REMARK  3 active torsions:
REMARK  status: ('A' for Active; 'I' for Inactive)
REMARK    1  A    between atoms: N_2  and  C_12
REMARK    2  A    between atoms: C_13  and  O_17
REMARK    3  A    between atoms: C_14  and  O_19
REMARK                            x       y       z     vdW  Elec       q    Type
REMARK                         _______ _______ _______ _____ _____    ______ ____
ROOT
ATOM      1  I   UNL     1      31.678 -23.695 -15.734  0.00  0.00    -0.045 I 
ATOM      2  N   UNL     1      35.780 -23.134 -14.950  0.00  0.00    -0.250 N 
ATOM      3  N   UNL     1      36.902 -22.315 -16.922  0.00  0.00    -0.233 NA
ATOM      4  N   UNL     1      35.406 -22.027 -18.822  0.00  0.00    -0.234 NA
ATOM      5  C   UNL     1      35.807 -22.730 -16.261  0.00  0.00    +0.122 C 
ATOM      6  C   UNL     1      34.495 -23.487 -14.614  0.00  0.00    +0.070 C 
ATOM      7  C   UNL     1      34.518 -22.825 -16.770  0.00  0.00    +0.136 C 
ATOM      8  C   UNL     1      33.694 -23.306 -15.720  0.00  0.00    +0.036 C 
ATOM      9  C   UNL     1      34.342 -22.455 -18.102  0.00  0.00    +0.110 C 
ATOM     10  C   UNL     1      36.604 -21.986 -18.196  0.00  0.00    +0.252 C 
ATOM     11  N   UNL     1      33.084 -22.508 -18.730  0.00  0.00    -0.346 N 
ATOM     12  H   UNL     1      32.992 -22.239 -19.672  0.00  0.00    +0.143 HD
ATOM     13  H   UNL     1      32.296 -22.815 -18.226  0.00  0.00    +0.143 HD
ENDROOT
BRANCH   2  15
ATOM     14  O   UNL     1      37.965 -24.001 -14.624  0.00  0.00    -0.335 OA
ATOM     15  C   UNL     1      36.927 -23.186 -14.046  0.00  0.00    +0.227 C 
ATOM     16  C   UNL     1      36.618 -23.793 -12.687  0.00  0.00    +0.187 C 
ATOM     17  C   UNL     1      37.986 -24.291 -12.261  0.00  0.00    +0.168 C 
ATOM     18  C   UNL     1      38.572 -24.792 -13.577  0.00  0.00    +0.146 C 
ATOM     19  C   UNL     1      38.266 -26.259 -13.844  0.00  0.00    +0.035 C 
BRANCH  16  20
ATOM     20  O   UNL     1      36.074 -22.842 -11.795  0.00  0.00    -0.378 OA
ATOM     21  H   UNL     1      35.155 -23.078 -11.591  0.00  0.00    +0.211 HD
ENDBRANCH  16  20
BRANCH  17  22
ATOM     22  O   UNL     1      38.769 -23.192 -11.796  0.00  0.00    -0.379 OA
ATOM     23  H   UNL     1      39.689 -23.476 -11.683  0.00  0.00    +0.211 HD
ENDBRANCH  17  22
ENDBRANCH   2  15
TORSDOF 3
ENDMDL
MODEL 6
REMARK VINA RESULT:      -8.1      2.470      3.400
REMARK  Name = 9842606
REMARK  3 active torsions:
REMARK  status: ('A' for Active; 'I' for Inactive)
REMARK    1  A    between atoms: N_2  and  C_12
REMARK    2  A    between atoms: C_13  and  O_17
REMARK    3  A    between atoms: C_14  and  O_19
REMARK                            x       y       z     vdW  Elec       q    Type
REMARK                         _______ _______ _______ _____ _____    ______ ____
ROOT
ATOM      1  I   UNL     1      36.503 -21.107 -19.764  0.00  0.00    -0.045 I 
ATOM      2  N   UNL     1      35.761 -22.961 -16.053  0.00  0.00    -0.250 N 
ATOM      3  N   UNL     1      33.418 -23.496 -15.842  0.00  0.00    -0.233 NA
ATOM      4  N   UNL     1      32.109 -22.842 -17.789  0.00  0.00    -0.234 NA
ATOM      5  C   UNL     1      34.467 -22.990 -16.513  0.00  0.00    +0.122 C 
ATOM      6  C   UNL     1      36.562 -22.373 -17.001  0.00  0.00    +0.070 C 
ATOM      7  C   UNL     1      34.444 -22.412 -17.776  0.00  0.00    +0.136 C 
ATOM      8  C   UNL     1      35.775 -22.023 -18.077  0.00  0.00    +0.036 C 
ATOM      9  C   UNL     1      33.206 -22.349 -18.412  0.00  0.00    +0.110 C 
ATOM     10  C   UNL     1      32.282 -23.377 -16.559  0.00  0.00    +0.252 C 
ATOM     11  N   UNL     1      33.054 -21.785 -19.692  0.00  0.00    -0.346 N 
ATOM     12  H   UNL     1      32.166 -21.756 -20.115  0.00  0.00    +0.143 HD
ATOM     13  H   UNL     1      33.837 -21.421 -20.165  0.00  0.00    +0.143 HD
ENDROOT
BRANCH   2  15
ATOM     14  O   UNL     1      37.630 -23.206 -14.613  0.00  0.00    -0.335 OA
ATOM     15  C   UNL     1      36.223 -23.471 -14.764  0.00  0.00    +0.227 C 
ATOM     16  C   UNL     1      36.052 -24.972 -14.594  0.00  0.00    +0.187 C 
ATOM     17  C   UNL     1      37.122 -25.282 -13.565  0.00  0.00    +0.168 C 
ATOM     18  C   UNL     1      38.254 -24.348 -13.982  0.00  0.00    +0.146 C 
ATOM     19  C   UNL     1      39.213 -24.985 -14.977  0.00  0.00    +0.035 C 
BRANCH  16  20
ATOM     20  O   UNL     1      34.751 -25.310 -14.159  0.00  0.00    -0.378 OA
ATOM     21  H   UNL     1      34.244 -24.499 -13.997  0.00  0.00    +0.211 HD
ENDBRANCH  16  20
BRANCH  17  22
ATOM     22  O   UNL     1      36.661 -24.899 -12.269  0.00  0.00    -0.379 OA
ATOM     23  H   UNL     1      35.775 -24.513 -12.342  0.00  0.00    +0.211 HD
ENDBRANCH  17  22
ENDBRANCH   2  15
TORSDOF 3
ENDMDL
MODEL 7
REMARK VINA RESULT:      -8.0      1.191      1.997
REMARK  Name = 9842606
REMARK  3 active torsions:
REMARK  status: ('A' for Active; 'I' for Inactive)
REMARK    1  A    between atoms: N_2  and  C_12
REMARK    2  A    between atoms: C_13  and  O_17
REMARK    3  A    between atoms: C_14  and  O_19
REMARK                            x       y       z     vdW  Elec       q    Type
REMARK                         _______ _______ _______ _____ _____    ______ ____
ROOT
ATOM      1  I   UNL     1      30.030 -24.162 -13.953  0.00  0.00    -0.045 I 
ATOM      2  N   UNL     1      34.176 -24.286 -14.696  0.00  0.00    -0.250 N 
ATOM      3  N   UNL     1      34.664 -23.341 -16.861  0.00  0.00    -0.233 NA
ATOM      4  N   UNL     1      32.676 -22.572 -18.038  0.00  0.00    -0.234 NA
ATOM      5  C   UNL     1      33.814 -23.697 -15.882  0.00  0.00    +0.122 C 
ATOM      6  C   UNL     1      33.050 -24.508 -13.942  0.00  0.00    +0.070 C 
ATOM      7  C   UNL     1      32.434 -23.540 -15.884  0.00  0.00    +0.136 C 
ATOM      8  C   UNL     1      31.958 -24.057 -14.652  0.00  0.00    +0.036 C 
ATOM      9  C   UNL     1      31.873 -22.954 -17.017  0.00  0.00    +0.110 C 
ATOM     10  C   UNL     1      34.003 -22.787 -17.899  0.00  0.00    +0.252 C 
ATOM     11  N   UNL     1      30.487 -22.742 -17.137  0.00  0.00    -0.346 N 
ATOM     12  H   UNL     1      30.121 -22.324 -17.949  0.00  0.00    +0.143 HD
ATOM     13  H   UNL     1      29.884 -23.011 -16.406  0.00  0.00    +0.143 HD
ENDROOT
BRANCH   2  15
ATOM     14  O   UNL     1      36.318 -23.425 -14.148  0.00  0.00    -0.335 OA
ATOM     15  C   UNL     1      35.538 -24.628 -14.290  0.00  0.00    +0.227 C 
ATOM     16  C   UNL     1      36.282 -25.501 -15.289  0.00  0.00    +0.187 C 
ATOM     17  C   UNL     1      37.724 -25.162 -14.968  0.00  0.00    +0.168 C 
ATOM     18  C   UNL     1      37.648 -23.669 -14.663  0.00  0.00    +0.146 C 
ATOM     19  C   UNL     1      37.854 -22.799 -15.894  0.00  0.00    +0.035 C 
BRANCH  16  20
ATOM     20  O   UNL     1      35.984 -26.871 -15.116  0.00  0.00    -0.378 OA
ATOM     21  H   UNL     1      36.801 -27.389 -15.177  0.00  0.00    +0.211 HD
ENDBRANCH  16  20
BRANCH  17  22
ATOM     22  O   UNL     1      38.125 -25.855 -13.787  0.00  0.00    -0.379 OA
ATOM     23  H   UNL     1      38.786 -25.328 -13.311  0.00  0.00    +0.211 HD
ENDBRANCH  17  22
ENDBRANCH   2  15
TORSDOF 3
ENDMDL
MODEL 8
REMARK VINA RESULT:      -7.6      3.432      5.856
REMARK  Name = 9842606
REMARK  3 active torsions:
REMARK  status: ('A' for Active; 'I' for Inactive)
REMARK    1  A    between atoms: N_2  and  C_12
REMARK    2  A    between atoms: C_13  and  O_17
REMARK    3  A    between atoms: C_14  and  O_19
REMARK                            x       y       z     vdW  Elec       q    Type
REMARK                         _______ _______ _______ _____ _____    ______ ____
ROOT
ATOM      1  I   UNL     1      35.509 -21.932 -18.352  0.00  0.00    -0.045 I 
ATOM      2  N   UNL     1      33.750 -23.786 -15.002  0.00  0.00    -0.250 N 
ATOM      3  N   UNL     1      35.455 -24.492 -13.448  0.00  0.00    -0.233 NA
ATOM      4  N   UNL     1      37.710 -23.962 -14.198  0.00  0.00    -0.234 NA
ATOM      5  C   UNL     1      35.055 -23.918 -14.597  0.00  0.00    +0.122 C 
ATOM      6  C   UNL     1      33.719 -23.152 -16.221  0.00  0.00    +0.070 C 
ATOM      7  C   UNL     1      35.870 -23.359 -15.572  0.00  0.00    +0.136 C 
ATOM      8  C   UNL     1      35.016 -22.877 -16.598  0.00  0.00    +0.036 C 
ATOM      9  C   UNL     1      37.243 -23.398 -15.337  0.00  0.00    +0.110 C 
ATOM     10  C   UNL     1      36.799 -24.468 -13.337  0.00  0.00    +0.252 C 
ATOM     11  N   UNL     1      38.170 -22.865 -16.251  0.00  0.00    -0.346 N 
ATOM     12  H   UNL     1      39.134 -22.907 -16.056  0.00  0.00    +0.143 HD
ATOM     13  H   UNL     1      37.854 -22.448 -17.086  0.00  0.00    +0.143 HD
ENDROOT
BRANCH   2  15
ATOM     14  O   UNL     1      31.696 -24.965 -15.149  0.00  0.00    -0.335 OA
ATOM     15  C   UNL     1      32.574 -24.242 -14.265  0.00  0.00    +0.227 C 
ATOM     16  C   UNL     1      31.742 -23.117 -13.668  0.00  0.00    +0.187 C 
ATOM     17  C   UNL     1      30.379 -23.774 -13.564  0.00  0.00    +0.168 C 
ATOM     18  C   UNL     1      30.328 -24.619 -14.833  0.00  0.00    +0.146 C 
ATOM     19  C   UNL     1      29.734 -23.874 -16.020  0.00  0.00    +0.035 C 
BRANCH  16  20
ATOM     20  O   UNL     1      32.247 -22.693 -12.419  0.00  0.00    -0.378 OA
ATOM     21  H   UNL     1      33.006 -23.244 -12.173  0.00  0.00    +0.211 HD
ENDBRANCH  16  20
BRANCH  17  22
ATOM     22  O   UNL     1      30.352 -24.641 -12.431  0.00  0.00    -0.379 OA
ATOM     23  H   UNL     1      29.913 -25.472 -12.670  0.00  0.00    +0.211 HD
ENDBRANCH  17  22
ENDBRANCH   2  15
TORSDOF 3
ENDMDL
MODEL 9
REMARK VINA RESULT:      -7.2      8.121     10.205
REMARK  Name = 9842606
REMARK  3 active torsions:
REMARK  status: ('A' for Active; 'I' for Inactive)
REMARK    1  A    between atoms: N_2  and  C_12
REMARK    2  A    between atoms: C_13  and  O_17
REMARK    3  A    between atoms: C_14  and  O_19
REMARK                            x       y       z     vdW  Elec       q    Type
REMARK                         _______ _______ _______ _____ _____    ______ ____
ROOT
ATOM      1  I   UNL     1      32.308 -12.954 -22.223  0.00  0.00    -0.045 I 
ATOM      2  N   UNL     1      34.036 -16.778 -21.839  0.00  0.00    -0.250 N 
ATOM      3  N   UNL     1      34.666 -17.630 -24.006  0.00  0.00    -0.233 NA
ATOM      4  N   UNL     1      34.154 -16.092 -25.823  0.00  0.00    -0.234 NA
ATOM      5  C   UNL     1      34.142 -16.686 -23.205  0.00  0.00    +0.122 C 
ATOM      6  C   UNL     1      33.453 -15.632 -21.355  0.00  0.00    +0.070 C 
ATOM      7  C   UNL     1      33.619 -15.461 -23.598  0.00  0.00    +0.136 C 
ATOM      8  C   UNL     1      33.184 -14.800 -22.420  0.00  0.00    +0.036 C 
ATOM      9  C   UNL     1      33.639 -15.182 -24.963  0.00  0.00    +0.110 C 
ATOM     10  C   UNL     1      34.629 -17.244 -25.298  0.00  0.00    +0.252 C 
ATOM     11  N   UNL     1      33.137 -13.975 -25.483  0.00  0.00    -0.346 N 
ATOM     12  H   UNL     1      33.166 -13.807 -26.453  0.00  0.00    +0.143 HD
ATOM     13  H   UNL     1      32.758 -13.298 -24.877  0.00  0.00    +0.143 HD
ENDROOT
BRANCH   2  15
ATOM     14  O   UNL     1      35.859 -17.755 -20.677  0.00  0.00    -0.335 OA
ATOM     15  C   UNL     1      34.469 -17.909 -21.021  0.00  0.00    +0.227 C 
ATOM     16  C   UNL     1      34.349 -19.257 -21.713  0.00  0.00    +0.187 C 
ATOM     17  C   UNL     1      35.391 -20.071 -20.970  0.00  0.00    +0.168 C 
ATOM     18  C   UNL     1      36.502 -19.049 -20.747  0.00  0.00    +0.146 C 
ATOM     19  C   UNL     1      37.520 -19.021 -21.877  0.00  0.00    +0.035 C 
BRANCH  16  20
ATOM     20  O   UNL     1      33.046 -19.794 -21.603  0.00  0.00    -0.378 OA
ATOM     21  H   UNL     1      32.555 -19.620 -22.421  0.00  0.00    +0.211 HD
ENDBRANCH  16  20
BRANCH  17  22
ATOM     22  O   UNL     1      34.869 -20.470 -19.704  0.00  0.00    -0.379 OA
ATOM     23  H   UNL     1      35.311 -19.970 -19.000  0.00  0.00    +0.211 HD
ENDBRANCH  17  22
ENDBRANCH   2  15
TORSDOF 3
ENDMDL
