MODEL 1
REMARK VINA RESULT:      -8.6      0.000      0.000
REMARK  Name = 440114
REMARK  0 active torsions:
REMARK  status: ('A' for Active; 'I' for Inactive)
REMARK                            x       y       z     vdW  Elec       q    Type
REMARK                         _______ _______ _______ _____ _____    ______ ____
ROOT
ATOM      1  O   UNL     1      30.009 -24.499 -15.209  0.00  0.00    -0.296 OA
ATOM      2  O   UNL     1      39.247 -27.003 -14.685  0.00  0.00    -0.296 OA
ATOM      3  C   UNL     1      35.111 -24.391 -14.084  0.00  0.00    +0.000 C 
ATOM      4  C   UNL     1      34.684 -23.226 -15.036  0.00  0.00    +0.000 C 
ATOM      5  C   UNL     1      36.517 -24.127 -13.429  0.00  0.00    +0.001 C 
ATOM      6  C   UNL     1      33.331 -23.587 -15.656  0.00  0.00    +0.007 C 
ATOM      7  C   UNL     1      32.236 -23.749 -14.581  0.00  0.00    +0.052 C 
ATOM      8  C   UNL     1      37.572 -23.861 -14.556  0.00  0.00    +0.007 C 
ATOM      9  C   UNL     1      33.992 -24.756 -13.069  0.00  0.00    +0.000 C 
ATOM     10  C   UNL     1      35.747 -22.963 -16.109  0.00  0.00    +0.000 C 
ATOM     11  C   UNL     1      32.607 -24.948 -13.714  0.00  0.00    +0.007 C 
ATOM     12  C   UNL     1      37.133 -22.737 -15.508  0.00  0.00    +0.000 C 
ATOM     13  C   UNL     1      32.700 -22.669 -16.696  0.00  0.00    +0.008 C 
ATOM     14  C   UNL     1      37.015 -25.323 -12.567  0.00  0.00    +0.008 C 
ATOM     15  C   UNL     1      31.045 -23.921 -15.507  0.00  0.00    +0.150 C 
ATOM     16  C   UNL     1      36.468 -22.905 -12.474  0.00  0.00    +0.000 C 
ATOM     17  C   UNL     1      37.925 -25.124 -15.365  0.00  0.00    +0.064 C 
ATOM     18  C   UNL     1      31.287 -23.252 -16.848  0.00  0.00    +0.064 C 
ATOM     19  C   UNL     1      31.946 -22.506 -13.720  0.00  0.00    +0.007 C 
ATOM     20  C   UNL     1      37.299 -26.590 -13.358  0.00  0.00    +0.065 C 
ATOM     21  C   UNL     1      38.273 -26.284 -14.465  0.00  0.00    +0.151 C 
ENDROOT
TORSDOF 0
ENDMDL
MODEL 2
REMARK VINA RESULT:      -7.5     17.810     19.968
REMARK  Name = 440114
REMARK  0 active torsions:
REMARK  status: ('A' for Active; 'I' for Inactive)
REMARK                            x       y       z     vdW  Elec       q    Type
REMARK                         _______ _______ _______ _____ _____    ______ ____
ROOT
ATOM      1  O   UNL     1      29.750  -3.107 -25.489  0.00  0.00    -0.296 OA
ATOM      2  O   UNL     1      32.489 -12.028 -23.301  0.00  0.00    -0.296 OA
ATOM      3  C   UNL     1      32.165  -7.112 -23.159  0.00  0.00    +0.000 C 
ATOM      4  C   UNL     1      33.162  -6.163 -23.903  0.00  0.00    +0.000 C 
ATOM      5  C   UNL     1      32.905  -8.055 -22.140  0.00  0.00    +0.001 C 
ATOM      6  C   UNL     1      32.364  -5.316 -24.898  0.00  0.00    +0.007 C 
ATOM      7  C   UNL     1      31.313  -4.440 -24.186  0.00  0.00    +0.052 C 
ATOM      8  C   UNL     1      34.033  -8.844 -22.887  0.00  0.00    +0.007 C 
ATOM      9  C   UNL     1      30.961  -6.337 -22.556  0.00  0.00    +0.000 C 
ATOM     10  C   UNL     1      34.275  -6.956 -24.598  0.00  0.00    +0.000 C 
ATOM     11  C   UNL     1      30.287  -5.368 -23.545  0.00  0.00    +0.007 C 
ATOM     12  C   UNL     1      34.991  -7.908 -23.643  0.00  0.00    +0.000 C 
ATOM     13  C   UNL     1      33.087  -4.350 -25.829  0.00  0.00    +0.008 C 
ATOM     14  C   UNL     1      31.949  -9.086 -21.471  0.00  0.00    +0.008 C 
ATOM     15  C   UNL     1      30.847  -3.639 -25.389  0.00  0.00    +0.150 C 
ATOM     16  C   UNL     1      33.531  -7.240 -20.978  0.00  0.00    +0.000 C 
ATOM     17  C   UNL     1      33.487  -9.919 -23.846  0.00  0.00    +0.064 C 
ATOM     18  C   UNL     1      31.932  -3.548 -26.447  0.00  0.00    +0.064 C 
ATOM     19  C   UNL     1      31.860  -3.423 -23.168  0.00  0.00    +0.007 C 
ATOM     20  C   UNL     1      31.358 -10.106 -22.431  0.00  0.00    +0.065 C 
ATOM     21  C   UNL     1      32.469 -10.805 -23.170  0.00  0.00    +0.151 C 
ENDROOT
TORSDOF 0
ENDMDL
MODEL 3
REMARK VINA RESULT:      -7.2     11.770     14.384
REMARK  Name = 440114
REMARK  0 active torsions:
REMARK  status: ('A' for Active; 'I' for Inactive)
REMARK                            x       y       z     vdW  Elec       q    Type
REMARK                         _______ _______ _______ _____ _____    ______ ____
ROOT
ATOM      1  O   UNL     1      35.932 -17.772 -20.692  0.00  0.00    -0.296 OA
ATOM      2  O   UNL     1      35.400 -10.063 -26.364  0.00  0.00    -0.296 OA
ATOM      3  C   UNL     1      33.986 -13.847 -23.541  0.00  0.00    +0.000 C 
ATOM      4  C   UNL     1      33.600 -15.251 -24.114  0.00  0.00    +0.000 C 
ATOM      5  C   UNL     1      33.084 -12.703 -24.136  0.00  0.00    +0.001 C 
ATOM      6  C   UNL     1      34.552 -16.289 -23.514  0.00  0.00    +0.007 C 
ATOM      7  C   UNL     1      34.431 -16.353 -21.978  0.00  0.00    +0.052 C 
ATOM      8  C   UNL     1      33.155 -12.748 -25.699  0.00  0.00    +0.007 C 
ATOM      9  C   UNL     1      34.070 -13.853 -21.988  0.00  0.00    +0.000 C 
ATOM     10  C   UNL     1      33.645 -15.259 -25.647  0.00  0.00    +0.000 C 
ATOM     11  C   UNL     1      34.902 -15.016 -21.416  0.00  0.00    +0.007 C 
ATOM     12  C   UNL     1      32.806 -14.138 -26.257  0.00  0.00    +0.000 C 
ATOM     13  C   UNL     1      34.467 -17.746 -23.956  0.00  0.00    +0.008 C 
ATOM     14  C   UNL     1      33.522 -11.285 -23.667  0.00  0.00    +0.008 C 
ATOM     15  C   UNL     1      35.337 -17.548 -21.737  0.00  0.00    +0.150 C 
ATOM     16  C   UNL     1      31.609 -12.864 -23.684  0.00  0.00    +0.000 C 
ATOM     17  C   UNL     1      34.515 -12.287 -26.258  0.00  0.00    +0.064 C 
ATOM     18  C   UNL     1      35.386 -18.458 -22.952  0.00  0.00    +0.064 C 
ATOM     19  C   UNL     1      33.046 -16.735 -21.425  0.00  0.00    +0.007 C 
ATOM     20  C   UNL     1      34.894 -10.858 -24.164  0.00  0.00    +0.065 C 
ATOM     21  C   UNL     1      34.942 -10.966 -25.666  0.00  0.00    +0.151 C 
ENDROOT
TORSDOF 0
ENDMDL
MODEL 4
REMARK VINA RESULT:      -7.1     19.461     21.815
REMARK  Name = 440114
REMARK  0 active torsions:
REMARK  status: ('A' for Active; 'I' for Inactive)
REMARK                            x       y       z     vdW  Elec       q    Type
REMARK                         _______ _______ _______ _____ _____    ______ ____
ROOT
ATOM      1  O   UNL     1      35.297  -3.184 -27.878  0.00  0.00    -0.296 OA
ATOM      2  O   UNL     1      33.040  -7.267 -19.505  0.00  0.00    -0.296 OA
ATOM      3  C   UNL     1      32.745  -5.933 -24.240  0.00  0.00    +0.000 C 
ATOM      4  C   UNL     1      31.929  -4.693 -24.735  0.00  0.00    +0.000 C 
ATOM      5  C   UNL     1      31.836  -6.965 -23.475  0.00  0.00    +0.001 C 
ATOM      6  C   UNL     1      32.897  -3.730 -25.428  0.00  0.00    +0.007 C 
ATOM      7  C   UNL     1      33.567  -4.379 -26.656  0.00  0.00    +0.052 C 
ATOM      8  C   UNL     1      31.095  -6.234 -22.305  0.00  0.00    +0.007 C 
ATOM      9  C   UNL     1      33.605  -6.557 -25.375  0.00  0.00    +0.000 C 
ATOM     10  C   UNL     1      31.186  -4.015 -23.577  0.00  0.00    +0.000 C 
ATOM     11  C   UNL     1      34.440  -5.527 -26.159  0.00  0.00    +0.007 C 
ATOM     12  C   UNL     1      30.320  -4.998 -22.791  0.00  0.00    +0.000 C 
ATOM     13  C   UNL     1      32.396  -2.385 -25.943  0.00  0.00    +0.008 C 
ATOM     14  C   UNL     1      32.646  -8.151 -22.875  0.00  0.00    +0.008 C 
ATOM     15  C   UNL     1      34.291  -3.153 -27.183  0.00  0.00    +0.150 C 
ATOM     16  C   UNL     1      30.790  -7.601 -24.427  0.00  0.00    +0.000 C 
ATOM     17  C   UNL     1      32.030  -5.843 -21.145  0.00  0.00    +0.064 C 
ATOM     18  C   UNL     1      33.587  -1.874 -26.766  0.00  0.00    +0.064 C 
ATOM     19  C   UNL     1      32.618  -4.843 -27.776  0.00  0.00    +0.007 C 
ATOM     20  C   UNL     1      33.618  -7.753 -21.776  0.00  0.00    +0.065 C 
ATOM     21  C   UNL     1      32.880  -7.006 -20.697  0.00  0.00    +0.151 C 
ENDROOT
TORSDOF 0
ENDMDL
MODEL 5
REMARK VINA RESULT:      -7.0      6.016      8.745
REMARK  Name = 440114
REMARK  0 active torsions:
REMARK  status: ('A' for Active; 'I' for Inactive)
REMARK                            x       y       z     vdW  Elec       q    Type
REMARK                         _______ _______ _______ _____ _____    ______ ____
ROOT
ATOM      1  O   UNL     1      33.253 -23.259 -16.982  0.00  0.00    -0.296 OA
ATOM      2  O   UNL     1      34.477 -14.806 -21.333  0.00  0.00    -0.296 OA
ATOM      3  C   UNL     1      34.320 -19.683 -20.640  0.00  0.00    +0.000 C 
ATOM      4  C   UNL     1      35.573 -20.537 -20.256  0.00  0.00    +0.000 C 
ATOM      5  C   UNL     1      34.531 -18.912 -21.996  0.00  0.00    +0.001 C 
ATOM      6  C   UNL     1      35.295 -21.215 -18.911  0.00  0.00    +0.007 C 
ATOM      7  C   UNL     1      34.079 -22.161 -18.990  0.00  0.00    +0.052 C 
ATOM      8  C   UNL     1      35.835 -18.049 -21.904  0.00  0.00    +0.007 C 
ATOM      9  C   UNL     1      33.006 -20.510 -20.573  0.00  0.00    +0.000 C 
ATOM     10  C   UNL     1      36.842 -19.677 -20.206  0.00  0.00    +0.000 C 
ATOM     11  C   UNL     1      32.843 -21.312 -19.268  0.00  0.00    +0.007 C 
ATOM     12  C   UNL     1      37.057 -18.888 -21.495  0.00  0.00    +0.000 C 
ATOM     13  C   UNL     1      36.378 -22.053 -18.242  0.00  0.00    +0.008 C 
ATOM     14  C   UNL     1      33.343 -17.967 -22.342  0.00  0.00    +0.008 C 
ATOM     15  C   UNL     1      34.187 -22.771 -17.604  0.00  0.00    +0.150 C 
ATOM     16  C   UNL     1      34.651 -19.899 -23.187  0.00  0.00    +0.000 C 
ATOM     17  C   UNL     1      35.694 -16.836 -20.965  0.00  0.00    +0.064 C 
ATOM     18  C   UNL     1      35.617 -22.733 -17.093  0.00  0.00    +0.064 C 
ATOM     19  C   UNL     1      34.194 -23.325 -19.991  0.00  0.00    +0.007 C 
ATOM     20  C   UNL     1      33.164 -16.807 -21.375  0.00  0.00    +0.065 C 
ATOM     21  C   UNL     1      34.453 -16.034 -21.272  0.00  0.00    +0.151 C 
ENDROOT
TORSDOF 0
ENDMDL
MODEL 6
REMARK VINA RESULT:      -6.0     18.927     21.277
REMARK  Name = 440114
REMARK  0 active torsions:
REMARK  status: ('A' for Active; 'I' for Inactive)
REMARK                            x       y       z     vdW  Elec       q    Type
REMARK                         _______ _______ _______ _____ _____    ______ ____
ROOT
ATOM      1  O   UNL     1      32.865  -3.564 -29.092  0.00  0.00    -0.296 OA
ATOM      2  O   UNL     1      31.067 -10.561 -22.791  0.00  0.00    -0.296 OA
ATOM      3  C   UNL     1      32.449  -6.186 -24.590  0.00  0.00    +0.000 C 
ATOM      4  C   UNL     1      33.932  -5.830 -24.940  0.00  0.00    +0.000 C 
ATOM      5  C   UNL     1      32.287  -6.595 -23.079  0.00  0.00    +0.001 C 
ATOM      6  C   UNL     1      34.002  -5.487 -26.431  0.00  0.00    +0.007 C 
ATOM      7  C   UNL     1      33.125  -4.266 -26.776  0.00  0.00    +0.052 C 
ATOM      8  C   UNL     1      33.274  -7.765 -22.750  0.00  0.00    +0.007 C 
ATOM      9  C   UNL     1      31.457  -5.088 -25.066  0.00  0.00    +0.000 C 
ATOM     10  C   UNL     1      34.883  -6.977 -24.577  0.00  0.00    +0.000 C 
ATOM     11  C   UNL     1      31.670  -4.650 -26.527  0.00  0.00    +0.007 C 
ATOM     12  C   UNL     1      34.725  -7.422 -23.125  0.00  0.00    +0.000 C 
ATOM     13  C   UNL     1      35.346  -5.176 -27.079  0.00  0.00    +0.008 C 
ATOM     14  C   UNL     1      30.843  -7.063 -22.735  0.00  0.00    +0.008 C 
ATOM     15  C   UNL     1      33.545  -4.099 -28.226  0.00  0.00    +0.150 C 
ATOM     16  C   UNL     1      32.581  -5.395 -22.141  0.00  0.00    +0.000 C 
ATOM     17  C   UNL     1      32.867  -9.102 -23.398  0.00  0.00    +0.064 C 
ATOM     18  C   UNL     1      34.940  -4.651 -28.464  0.00  0.00    +0.064 C 
ATOM     19  C   UNL     1      33.486  -2.951 -26.061  0.00  0.00    +0.007 C 
ATOM     20  C   UNL     1      30.418  -8.347 -23.428  0.00  0.00    +0.065 C 
ATOM     21  C   UNL     1      31.420  -9.433 -23.133  0.00  0.00    +0.151 C 
ENDROOT
TORSDOF 0
ENDMDL
MODEL 7
REMARK VINA RESULT:      -5.7     15.494     18.187
REMARK  Name = 440114
REMARK  0 active torsions:
REMARK  status: ('A' for Active; 'I' for Inactive)
REMARK                            x       y       z     vdW  Elec       q    Type
REMARK                         _______ _______ _______ _____ _____    ______ ____
ROOT
ATOM      1  O   UNL     1      32.407 -13.935 -24.530  0.00  0.00    -0.296 OA
ATOM      2  O   UNL     1      30.444  -4.572 -23.927  0.00  0.00    -0.296 OA
ATOM      3  C   UNL     1      32.893  -8.830 -23.525  0.00  0.00    +0.000 C 
ATOM      4  C   UNL     1      32.899  -9.699 -22.224  0.00  0.00    +0.000 C 
ATOM      5  C   UNL     1      33.441  -7.379 -23.262  0.00  0.00    +0.001 C 
ATOM      6  C   UNL     1      32.314 -11.073 -22.564  0.00  0.00    +0.007 C 
ATOM      7  C   UNL     1      33.158 -11.804 -23.629  0.00  0.00    +0.052 C 
ATOM      8  C   UNL     1      32.624  -6.718 -22.101  0.00  0.00    +0.007 C 
ATOM      9  C   UNL     1      33.567  -9.562 -24.719  0.00  0.00    +0.000 C 
ATOM     10  C   UNL     1      32.121  -9.016 -21.093  0.00  0.00    +0.000 C 
ATOM     11  C   UNL     1      33.069 -11.005 -24.925  0.00  0.00    +0.007 C 
ATOM     12  C   UNL     1      32.606  -7.591 -20.835  0.00  0.00    +0.000 C 
ATOM     13  C   UNL     1      32.118 -12.111 -21.466  0.00  0.00    +0.008 C 
ATOM     14  C   UNL     1      33.339  -6.461 -24.515  0.00  0.00    +0.008 C 
ATOM     15  C   UNL     1      32.433 -13.138 -23.603  0.00  0.00    +0.150 C 
ATOM     16  C   UNL     1      34.944  -7.411 -22.879  0.00  0.00    +0.000 C 
ATOM     17  C   UNL     1      31.183  -6.354 -22.506  0.00  0.00    +0.064 C 
ATOM     18  C   UNL     1      31.769 -13.380 -22.258  0.00  0.00    +0.064 C 
ATOM     19  C   UNL     1      34.621 -12.092 -23.249  0.00  0.00    +0.007 C 
ATOM     20  C   UNL     1      31.916  -6.156 -24.954  0.00  0.00    +0.065 C 
ATOM     21  C   UNL     1      31.146  -5.574 -23.797  0.00  0.00    +0.151 C 
ENDROOT
TORSDOF 0
ENDMDL
MODEL 8
REMARK VINA RESULT:      -5.6     13.375     15.740
REMARK  Name = 440114
REMARK  0 active torsions:
REMARK  status: ('A' for Active; 'I' for Inactive)
REMARK                            x       y       z     vdW  Elec       q    Type
REMARK                         _______ _______ _______ _____ _____    ______ ____
ROOT
ATOM      1  O   UNL     1      34.767  -6.960 -23.851  0.00  0.00    -0.296 OA
ATOM      2  O   UNL     1      34.844 -15.939 -20.496  0.00  0.00    -0.296 OA
ATOM      3  C   UNL     1      33.396 -11.923 -22.959  0.00  0.00    +0.000 C 
ATOM      4  C   UNL     1      32.348 -10.904 -22.401  0.00  0.00    +0.000 C 
ATOM      5  C   UNL     1      32.802 -13.377 -23.059  0.00  0.00    +0.001 C 
ATOM      6  C   UNL     1      33.023  -9.533 -22.300  0.00  0.00    +0.007 C 
ATOM      7  C   UNL     1      33.493  -9.026 -23.679  0.00  0.00    +0.052 C 
ATOM      8  C   UNL     1      32.240 -13.805 -21.661  0.00  0.00    +0.007 C 
ATOM      9  C   UNL     1      34.067 -11.415 -24.266  0.00  0.00    +0.000 C 
ATOM     10  C   UNL     1      31.789 -11.362 -21.049  0.00  0.00    +0.000 C 
ATOM     11  C   UNL     1      34.585  -9.968 -24.175  0.00  0.00    +0.007 C 
ATOM     12  C   UNL     1      31.235 -12.784 -21.103  0.00  0.00    +0.000 C 
ATOM     13  C   UNL     1      32.264  -8.352 -21.707  0.00  0.00    +0.008 C 
ATOM     14  C   UNL     1      33.859 -14.430 -23.504  0.00  0.00    +0.008 C 
ATOM     15  C   UNL     1      33.935  -7.635 -23.261  0.00  0.00    +0.150 C 
ATOM     16  C   UNL     1      31.665 -13.445 -24.112  0.00  0.00    +0.000 C 
ATOM     17  C   UNL     1      33.344 -14.075 -20.621  0.00  0.00    +0.064 C 
ATOM     18  C   UNL     1      33.183  -7.164 -22.028  0.00  0.00    +0.064 C 
ATOM     19  C   UNL     1      32.394  -8.837 -24.740  0.00  0.00    +0.007 C 
ATOM     20  C   UNL     1      34.985 -14.647 -22.506  0.00  0.00    +0.065 C 
ATOM     21  C   UNL     1      34.405 -15.002 -21.162  0.00  0.00    +0.151 C 
ENDROOT
TORSDOF 0
ENDMDL
