MODEL 1
REMARK VINA RESULT:     -10.3      0.000      0.000
REMARK  Name = 5280343
REMARK  6 active torsions:
REMARK  status: ('A' for Active; 'I' for Inactive)
REMARK    1  A    between atoms: C_5  and  C_12
REMARK    2  A    between atoms: C_6  and  O_22
REMARK    3  A    between atoms: C_8  and  O_24
REMARK    4  A    between atoms: C_10  and  O_26
REMARK    5  A    between atoms: C_15  and  O_18
REMARK    6  A    between atoms: C_17  and  O_20
REMARK                            x       y       z     vdW  Elec       q    Type
REMARK                         _______ _______ _______ _____ _____    ______ ____
ROOT
ATOM      1  O   UNL     1      33.807 -16.902 -21.408  0.00  0.00    -0.450 OA
ATOM      2  O   UNL     1      34.626 -16.649 -25.392  0.00  0.00    -0.283 OA
ATOM      3  C   UNL     1      33.743 -15.615 -23.465  0.00  0.00    +0.110 A 
ATOM      4  C   UNL     1      33.488 -15.765 -22.103  0.00  0.00    +0.155 A 
ATOM      5  C   UNL     1      34.421 -17.943 -22.087  0.00  0.00    +0.182 A 
ATOM      6  C   UNL     1      34.713 -17.929 -23.401  0.00  0.00    +0.208 A 
ATOM      7  C   UNL     1      34.382 -16.721 -24.195  0.00  0.00    +0.238 A 
ATOM      8  C   UNL     1      33.395 -14.432 -24.122  0.00  0.00    +0.143 C 
ATOM      9  C   UNL     1      32.881 -14.732 -21.389  0.00  0.00    +0.074 C 
ATOM     10  C   UNL     1      32.532 -13.548 -22.042  0.00  0.00    +0.140 C 
ATOM     11  C   UNL     1      32.789 -13.400 -23.406  0.00  0.00    +0.073 C 
ENDROOT
BRANCH   5  12
ATOM     12  C   UNL     1      34.708 -19.102 -21.225  0.00  0.00    +0.041 C 
ATOM     13  C   UNL     1      33.666 -19.910 -20.770  0.00  0.00    +0.043 C 
ATOM     14  C   UNL     1      36.024 -19.392 -20.863  0.00  0.00    +0.006 C 
ATOM     15  C   UNL     1      33.939 -21.008 -19.954  0.00  0.00    +0.168 C 
ATOM     16  C   UNL     1      36.297 -20.490 -20.047  0.00  0.00    +0.040 C 
ATOM     17  C   UNL     1      35.255 -21.298 -19.592  0.00  0.00    +0.167 C 
BRANCH  15  18
ATOM     18  O   UNL     1      32.913 -21.789 -19.515  0.00  0.00    -0.503 OA
ATOM     19  H   UNL     1      32.077 -21.406 -19.335  0.00  0.00    +0.292 HD
ENDBRANCH  15  18
BRANCH  17  20
ATOM     20  O   UNL     1      35.534 -22.368 -18.797  0.00  0.00    -0.503 OA
ATOM     21  H   UNL     1      34.854 -22.969 -18.564  0.00  0.00    +0.292 HD
ENDBRANCH  17  20
ENDBRANCH   5  12
BRANCH   6  22
ATOM     22  O   UNL     1      35.295 -18.994 -24.053  0.00  0.00    -0.501 OA
ATOM     23  H   UNL     1      35.729 -18.861 -24.873  0.00  0.00    +0.292 HD
ENDBRANCH   6  22
BRANCH   8  24
ATOM     24  O   UNL     1      33.622 -14.236 -25.451  0.00  0.00    -0.505 OA
ATOM     25  H   UNL     1      34.166 -14.832 -25.927  0.00  0.00    +0.292 HD
ENDBRANCH   8  24
BRANCH  10  26
ATOM     26  O   UNL     1      31.940 -12.539 -21.348  0.00  0.00    -0.505 OA
ATOM     27  H   UNL     1      31.941 -11.667 -21.695  0.00  0.00    +0.292 HD
ENDBRANCH  10  26
TORSDOF 6
ENDMDL
MODEL 2
REMARK VINA RESULT:      -9.9      0.737      1.465
REMARK  Name = 5280343
REMARK  6 active torsions:
REMARK  status: ('A' for Active; 'I' for Inactive)
REMARK    1  A    between atoms: C_5  and  C_12
REMARK    2  A    between atoms: C_6  and  O_22
REMARK    3  A    between atoms: C_8  and  O_24
REMARK    4  A    between atoms: C_10  and  O_26
REMARK    5  A    between atoms: C_15  and  O_18
REMARK    6  A    between atoms: C_17  and  O_20
REMARK                            x       y       z     vdW  Elec       q    Type
REMARK                         _______ _______ _______ _____ _____    ______ ____
ROOT
ATOM      1  O   UNL     1      33.594 -17.024 -21.043  0.00  0.00    -0.450 OA
ATOM      2  O   UNL     1      34.832 -16.428 -24.880  0.00  0.00    -0.283 OA
ATOM      3  C   UNL     1      33.802 -15.541 -22.953  0.00  0.00    +0.110 A 
ATOM      4  C   UNL     1      33.401 -15.808 -21.646  0.00  0.00    +0.155 A 
ATOM      5  C   UNL     1      34.228 -18.025 -21.762  0.00  0.00    +0.182 A 
ATOM      6  C   UNL     1      34.656 -17.899 -23.032  0.00  0.00    +0.208 A 
ATOM      7  C   UNL     1      34.463 -16.603 -23.726  0.00  0.00    +0.238 A 
ATOM      8  C   UNL     1      33.577 -14.282 -23.516  0.00  0.00    +0.143 C 
ATOM      9  C   UNL     1      32.770 -14.818 -20.893  0.00  0.00    +0.074 C 
ATOM     10  C   UNL     1      32.543 -13.559 -21.451  0.00  0.00    +0.140 C 
ATOM     11  C   UNL     1      32.946 -13.293 -22.761  0.00  0.00    +0.073 C 
ENDROOT
BRANCH   5  12
ATOM     12  C   UNL     1      34.373 -19.278 -21.000  0.00  0.00    +0.041 C 
ATOM     13  C   UNL     1      35.643 -19.779 -20.716  0.00  0.00    +0.043 C 
ATOM     14  C   UNL     1      33.239 -19.961 -20.560  0.00  0.00    +0.006 C 
ATOM     15  C   UNL     1      35.780 -20.964 -19.993  0.00  0.00    +0.168 C 
ATOM     16  C   UNL     1      33.376 -21.147 -19.838  0.00  0.00    +0.040 C 
ATOM     17  C   UNL     1      34.646 -21.649 -19.554  0.00  0.00    +0.167 C 
BRANCH  15  18
ATOM     18  O   UNL     1      37.025 -21.446 -19.723  0.00  0.00    -0.503 OA
ATOM     19  H   UNL     1      37.233 -22.340 -19.914  0.00  0.00    +0.292 HD
ENDBRANCH  15  18
BRANCH  17  20
ATOM     20  O   UNL     1      34.767 -22.806 -18.846  0.00  0.00    -0.503 OA
ATOM     21  H   UNL     1      34.001 -23.254 -18.545  0.00  0.00    +0.292 HD
ENDBRANCH  17  20
ENDBRANCH   5  12
BRANCH   6  22
ATOM     22  O   UNL     1      35.253 -18.926 -23.731  0.00  0.00    -0.501 OA
ATOM     23  H   UNL     1      35.708 -18.746 -24.530  0.00  0.00    +0.292 HD
ENDBRANCH   6  22
BRANCH   8  24
ATOM     24  O   UNL     1      33.949 -13.969 -24.789  0.00  0.00    -0.505 OA
ATOM     25  H   UNL     1      34.739 -13.490 -24.942  0.00  0.00    +0.292 HD
ENDBRANCH   8  24
BRANCH  10  26
ATOM     26  O   UNL     1      31.928 -12.592 -20.719  0.00  0.00    -0.505 OA
ATOM     27  H   UNL     1      31.034 -12.699 -20.457  0.00  0.00    +0.292 HD
ENDBRANCH  10  26
TORSDOF 6
ENDMDL
MODEL 3
REMARK VINA RESULT:      -9.7      2.327      7.203
REMARK  Name = 5280343
REMARK  6 active torsions:
REMARK  status: ('A' for Active; 'I' for Inactive)
REMARK    1  A    between atoms: C_5  and  C_12
REMARK    2  A    between atoms: C_6  and  O_22
REMARK    3  A    between atoms: C_8  and  O_24
REMARK    4  A    between atoms: C_10  and  O_26
REMARK    5  A    between atoms: C_15  and  O_18
REMARK    6  A    between atoms: C_17  and  O_20
REMARK                            x       y       z     vdW  Elec       q    Type
REMARK                         _______ _______ _______ _____ _____    ______ ____
ROOT
ATOM      1  O   UNL     1      34.004 -14.668 -22.461  0.00  0.00    -0.450 OA
ATOM      2  O   UNL     1      33.808 -16.459 -26.116  0.00  0.00    -0.283 OA
ATOM      3  C   UNL     1      34.418 -16.618 -23.844  0.00  0.00    +0.110 A 
ATOM      4  C   UNL     1      34.458 -15.950 -22.622  0.00  0.00    +0.155 A 
ATOM      5  C   UNL     1      33.469 -14.012 -23.559  0.00  0.00    +0.182 A 
ATOM      6  C   UNL     1      33.380 -14.541 -24.794  0.00  0.00    +0.208 A 
ATOM      7  C   UNL     1      33.864 -15.925 -25.016  0.00  0.00    +0.238 A 
ATOM      8  C   UNL     1      34.898 -17.927 -23.948  0.00  0.00    +0.143 C 
ATOM      9  C   UNL     1      34.982 -16.586 -21.495  0.00  0.00    +0.074 C 
ATOM     10  C   UNL     1      35.462 -17.893 -21.595  0.00  0.00    +0.140 C 
ATOM     11  C   UNL     1      35.420 -18.560 -22.820  0.00  0.00    +0.073 C 
ENDROOT
BRANCH   5  12
ATOM     12  C   UNL     1      33.018 -12.644 -23.250  0.00  0.00    +0.041 C 
ATOM     13  C   UNL     1      31.992 -12.439 -22.328  0.00  0.00    +0.043 C 
ATOM     14  C   UNL     1      33.619 -11.553 -23.880  0.00  0.00    +0.006 C 
ATOM     15  C   UNL     1      31.567 -11.143 -22.034  0.00  0.00    +0.168 C 
ATOM     16  C   UNL     1      33.193 -10.258 -23.587  0.00  0.00    +0.040 C 
ATOM     17  C   UNL     1      32.167 -10.052 -22.665  0.00  0.00    +0.167 C 
BRANCH  15  18
ATOM     18  O   UNL     1      30.563 -10.954 -21.133  0.00  0.00    -0.503 OA
ATOM     19  H   UNL     1      29.705 -10.725 -21.430  0.00  0.00    +0.292 HD
ENDBRANCH  15  18
BRANCH  17  20
ATOM     20  O   UNL     1      31.761  -8.782 -22.385  0.00  0.00    -0.503 OA
ATOM     21  H   UNL     1      32.001  -8.078 -22.954  0.00  0.00    +0.292 HD
ENDBRANCH  17  20
ENDBRANCH   5  12
BRANCH   6  22
ATOM     22  O   UNL     1      32.872 -13.851 -25.873  0.00  0.00    -0.501 OA
ATOM     23  H   UNL     1      32.501 -12.999 -25.752  0.00  0.00    +0.292 HD
ENDBRANCH   6  22
BRANCH   8  24
ATOM     24  O   UNL     1      34.881 -18.624 -25.119  0.00  0.00    -0.505 OA
ATOM     25  H   UNL     1      34.168 -19.200 -25.311  0.00  0.00    +0.292 HD
ENDBRANCH   8  24
BRANCH  10  26
ATOM     26  O   UNL     1      35.972 -18.515 -20.499  0.00  0.00    -0.505 OA
ATOM     27  H   UNL     1      36.549 -18.051 -19.922  0.00  0.00    +0.292 HD
ENDBRANCH  10  26
TORSDOF 6
ENDMDL
MODEL 4
REMARK VINA RESULT:      -9.6      2.433      7.495
REMARK  Name = 5280343
REMARK  6 active torsions:
REMARK  status: ('A' for Active; 'I' for Inactive)
REMARK    1  A    between atoms: C_5  and  C_12
REMARK    2  A    between atoms: C_6  and  O_22
REMARK    3  A    between atoms: C_8  and  O_24
REMARK    4  A    between atoms: C_10  and  O_26
REMARK    5  A    between atoms: C_15  and  O_18
REMARK    6  A    between atoms: C_17  and  O_20
REMARK                            x       y       z     vdW  Elec       q    Type
REMARK                         _______ _______ _______ _____ _____    ______ ____
ROOT
ATOM      1  O   UNL     1      34.023 -14.548 -22.519  0.00  0.00    -0.450 OA
ATOM      2  O   UNL     1      33.746 -16.348 -26.165  0.00  0.00    -0.283 OA
ATOM      3  C   UNL     1      34.375 -16.514 -23.899  0.00  0.00    +0.110 A 
ATOM      4  C   UNL     1      34.444 -15.842 -22.679  0.00  0.00    +0.155 A 
ATOM      5  C   UNL     1      33.494 -13.884 -23.615  0.00  0.00    +0.182 A 
ATOM      6  C   UNL     1      33.379 -14.415 -24.846  0.00  0.00    +0.208 A 
ATOM      7  C   UNL     1      33.827 -15.811 -25.068  0.00  0.00    +0.238 A 
ATOM      8  C   UNL     1      34.822 -17.834 -24.002  0.00  0.00    +0.143 C 
ATOM      9  C   UNL     1      34.963 -16.486 -21.556  0.00  0.00    +0.074 C 
ATOM     10  C   UNL     1      35.409 -17.805 -21.656  0.00  0.00    +0.140 C 
ATOM     11  C   UNL     1      35.339 -18.476 -22.878  0.00  0.00    +0.073 C 
ENDROOT
BRANCH   5  12
ATOM     12  C   UNL     1      33.081 -12.504 -23.306  0.00  0.00    +0.041 C 
ATOM     13  C   UNL     1      33.765 -11.428 -23.870  0.00  0.00    +0.043 C 
ATOM     14  C   UNL     1      32.003 -12.274 -22.450  0.00  0.00    +0.006 C 
ATOM     15  C   UNL     1      33.373 -10.121 -23.579  0.00  0.00    +0.168 C 
ATOM     16  C   UNL     1      31.611 -10.967 -22.158  0.00  0.00    +0.040 C 
ATOM     17  C   UNL     1      32.296  -9.891 -22.722  0.00  0.00    +0.167 C 
BRANCH  15  18
ATOM     18  O   UNL     1      34.050  -9.077 -24.134  0.00  0.00    -0.503 OA
ATOM     19  H   UNL     1      34.148  -9.025 -25.064  0.00  0.00    +0.292 HD
ENDBRANCH  15  18
BRANCH  17  20
ATOM     20  O   UNL     1      31.902  -8.619 -22.431  0.00  0.00    -0.503 OA
ATOM     21  H   UNL     1      31.009  -8.366 -22.551  0.00  0.00    +0.292 HD
ENDBRANCH  17  20
ENDBRANCH   5  12
BRANCH   6  22
ATOM     22  O   UNL     1      32.878 -13.716 -25.923  0.00  0.00    -0.501 OA
ATOM     23  H   UNL     1      32.309 -12.986 -25.784  0.00  0.00    +0.292 HD
ENDBRANCH   6  22
BRANCH   8  24
ATOM     24  O   UNL     1      34.776 -18.535 -25.170  0.00  0.00    -0.505 OA
ATOM     25  H   UNL     1      35.571 -18.808 -25.584  0.00  0.00    +0.292 HD
ENDBRANCH   8  24
BRANCH  10  26
ATOM     26  O   UNL     1      35.915 -18.436 -20.562  0.00  0.00    -0.505 OA
ATOM     27  H   UNL     1      35.857 -19.369 -20.490  0.00  0.00    +0.292 HD
ENDBRANCH  10  26
TORSDOF 6
ENDMDL
MODEL 5
REMARK VINA RESULT:      -9.6      1.436      2.845
REMARK  Name = 5280343
REMARK  6 active torsions:
REMARK  status: ('A' for Active; 'I' for Inactive)
REMARK    1  A    between atoms: C_5  and  C_12
REMARK    2  A    between atoms: C_6  and  O_22
REMARK    3  A    between atoms: C_8  and  O_24
REMARK    4  A    between atoms: C_10  and  O_26
REMARK    5  A    between atoms: C_15  and  O_18
REMARK    6  A    between atoms: C_17  and  O_20
REMARK                            x       y       z     vdW  Elec       q    Type
REMARK                         _______ _______ _______ _____ _____    ______ ____
ROOT
ATOM      1  O   UNL     1      34.303 -17.173 -23.226  0.00  0.00    -0.450 OA
ATOM      2  O   UNL     1      34.296 -13.613 -21.241  0.00  0.00    -0.283 OA
ATOM      3  C   UNL     1      34.002 -14.765 -23.278  0.00  0.00    +0.110 A 
ATOM      4  C   UNL     1      34.021 -16.013 -23.899  0.00  0.00    +0.155 A 
ATOM      5  C   UNL     1      34.566 -17.103 -21.867  0.00  0.00    +0.182 A 
ATOM      6  C   UNL     1      34.587 -15.963 -21.152  0.00  0.00    +0.208 A 
ATOM      7  C   UNL     1      34.293 -14.682 -21.839  0.00  0.00    +0.238 A 
ATOM      8  C   UNL     1      33.710 -13.615 -24.016  0.00  0.00    +0.143 C 
ATOM      9  C   UNL     1      33.751 -16.118 -25.263  0.00  0.00    +0.074 C 
ATOM     10  C   UNL     1      33.458 -14.971 -26.003  0.00  0.00    +0.140 C 
ATOM     11  C   UNL     1      33.438 -13.723 -25.379  0.00  0.00    +0.073 C 
ENDROOT
BRANCH   5  12
ATOM     12  C   UNL     1      34.851 -18.418 -21.267  0.00  0.00    +0.041 C 
ATOM     13  C   UNL     1      33.802 -19.261 -20.902  0.00  0.00    +0.043 C 
ATOM     14  C   UNL     1      36.172 -18.820 -21.065  0.00  0.00    +0.006 C 
ATOM     15  C   UNL     1      34.072 -20.507 -20.336  0.00  0.00    +0.168 C 
ATOM     16  C   UNL     1      36.442 -20.066 -20.498  0.00  0.00    +0.040 C 
ATOM     17  C   UNL     1      35.393 -20.909 -20.133  0.00  0.00    +0.167 C 
BRANCH  15  18
ATOM     18  O   UNL     1      33.040 -21.322 -19.982  0.00  0.00    -0.503 OA
ATOM     19  H   UNL     1      32.471 -21.670 -20.640  0.00  0.00    +0.292 HD
ENDBRANCH  15  18
BRANCH  17  20
ATOM     20  O   UNL     1      35.670 -22.124 -19.582  0.00  0.00    -0.503 OA
ATOM     21  H   UNL     1      35.434 -22.909 -20.035  0.00  0.00    +0.292 HD
ENDBRANCH  17  20
ENDBRANCH   5  12
BRANCH   6  22
ATOM     22  O   UNL     1      34.885 -15.923 -19.807  0.00  0.00    -0.501 OA
ATOM     23  H   UNL     1      34.414 -16.467 -19.206  0.00  0.00    +0.292 HD
ENDBRANCH   6  22
BRANCH   8  24
ATOM     24  O   UNL     1      33.678 -12.372 -23.457  0.00  0.00    -0.505 OA
ATOM     25  H   UNL     1      32.903 -11.850 -23.520  0.00  0.00    +0.292 HD
ENDBRANCH   8  24
BRANCH  10  26
ATOM     26  O   UNL     1      33.193 -15.071 -27.334  0.00  0.00    -0.505 OA
ATOM     27  H   UNL     1      33.667 -15.685 -27.862  0.00  0.00    +0.292 HD
ENDBRANCH  10  26
TORSDOF 6
ENDMDL
MODEL 6
REMARK VINA RESULT:      -9.5      9.028     11.463
REMARK  Name = 5280343
REMARK  6 active torsions:
REMARK  status: ('A' for Active; 'I' for Inactive)
REMARK    1  A    between atoms: C_5  and  C_12
REMARK    2  A    between atoms: C_6  and  O_22
REMARK    3  A    between atoms: C_8  and  O_24
REMARK    4  A    between atoms: C_10  and  O_26
REMARK    5  A    between atoms: C_15  and  O_18
REMARK    6  A    between atoms: C_17  and  O_20
REMARK                            x       y       z     vdW  Elec       q    Type
REMARK                         _______ _______ _______ _____ _____    ______ ____
ROOT
ATOM      1  O   UNL     1      33.402 -23.904 -13.436  0.00  0.00    -0.450 OA
ATOM      2  O   UNL     1      36.451 -23.651 -16.128  0.00  0.00    -0.283 OA
ATOM      3  C   UNL     1      35.788 -23.824 -13.872  0.00  0.00    +0.110 A 
ATOM      4  C   UNL     1      34.702 -23.906 -13.003  0.00  0.00    +0.155 A 
ATOM      5  C   UNL     1      33.158 -23.829 -14.799  0.00  0.00    +0.182 A 
ATOM      6  C   UNL     1      34.115 -23.737 -15.740  0.00  0.00    +0.208 A 
ATOM      7  C   UNL     1      35.537 -23.731 -15.318  0.00  0.00    +0.238 A 
ATOM      8  C   UNL     1      37.093 -23.829 -13.372  0.00  0.00    +0.143 C 
ATOM      9  C   UNL     1      34.913 -23.993 -11.626  0.00  0.00    +0.074 C 
ATOM     10  C   UNL     1      36.216 -23.999 -11.123  0.00  0.00    +0.140 C 
ATOM     11  C   UNL     1      37.302 -23.917 -11.996  0.00  0.00    +0.073 C 
ENDROOT
BRANCH   5  12
ATOM     12  C   UNL     1      31.722 -23.835 -15.128  0.00  0.00    +0.041 C 
ATOM     13  C   UNL     1      30.879 -24.788 -14.556  0.00  0.00    +0.043 C 
ATOM     14  C   UNL     1      31.205 -22.888 -16.012  0.00  0.00    +0.006 C 
ATOM     15  C   UNL     1      29.519 -24.793 -14.867  0.00  0.00    +0.168 C 
ATOM     16  C   UNL     1      29.846 -22.893 -16.324  0.00  0.00    +0.040 C 
ATOM     17  C   UNL     1      29.003 -23.846 -15.752  0.00  0.00    +0.167 C 
BRANCH  15  18
ATOM     18  O   UNL     1      28.706 -25.729 -14.304  0.00  0.00    -0.503 OA
ATOM     19  H   UNL     1      27.950 -26.033 -14.767  0.00  0.00    +0.292 HD
ENDBRANCH  15  18
BRANCH  17  20
ATOM     20  O   UNL     1      27.676 -23.840 -16.062  0.00  0.00    -0.503 OA
ATOM     21  H   UNL     1      27.189 -24.640 -16.054  0.00  0.00    +0.292 HD
ENDBRANCH  17  20
ENDBRANCH   5  12
BRANCH   6  22
ATOM     22  O   UNL     1      33.839 -23.631 -17.086  0.00  0.00    -0.501 OA
ATOM     23  H   UNL     1      34.519 -23.768 -17.716  0.00  0.00    +0.292 HD
ENDBRANCH   6  22
BRANCH   8  24
ATOM     24  O   UNL     1      38.189 -23.751 -14.178  0.00  0.00    -0.505 OA
ATOM     25  H   UNL     1      38.088 -23.766 -15.109  0.00  0.00    +0.292 HD
ENDBRANCH   8  24
BRANCH  10  26
ATOM     26  O   UNL     1      36.425 -24.084  -9.782  0.00  0.00    -0.505 OA
ATOM     27  H   UNL     1      36.284 -23.334  -9.237  0.00  0.00    +0.292 HD
ENDBRANCH  10  26
TORSDOF 6
ENDMDL
MODEL 7
REMARK VINA RESULT:      -9.5      4.016      6.777
REMARK  Name = 5280343
REMARK  6 active torsions:
REMARK  status: ('A' for Active; 'I' for Inactive)
REMARK    1  A    between atoms: C_5  and  C_12
REMARK    2  A    between atoms: C_6  and  O_22
REMARK    3  A    between atoms: C_8  and  O_24
REMARK    4  A    between atoms: C_10  and  O_26
REMARK    5  A    between atoms: C_15  and  O_18
REMARK    6  A    between atoms: C_17  and  O_20
REMARK                            x       y       z     vdW  Elec       q    Type
REMARK                         _______ _______ _______ _____ _____    ______ ____
ROOT
ATOM      1  O   UNL     1      33.961 -11.450 -24.093  0.00  0.00    -0.450 OA
ATOM      2  O   UNL     1      31.091 -10.781 -21.279  0.00  0.00    -0.283 OA
ATOM      3  C   UNL     1      32.738  -9.879 -22.705  0.00  0.00    +0.110 A 
ATOM      4  C   UNL     1      33.707 -10.175 -23.663  0.00  0.00    +0.155 A 
ATOM      5  C   UNL     1      33.214 -12.490 -23.562  0.00  0.00    +0.182 A 
ATOM      6  C   UNL     1      32.257 -12.341 -22.627  0.00  0.00    +0.208 A 
ATOM      7  C   UNL     1      31.951 -10.979 -22.127  0.00  0.00    +0.238 A 
ATOM      8  C   UNL     1      32.524  -8.559 -22.304  0.00  0.00    +0.143 C 
ATOM      9  C   UNL     1      34.468  -9.150 -24.225  0.00  0.00    +0.074 C 
ATOM     10  C   UNL     1      34.257  -7.829 -23.826  0.00  0.00    +0.140 C 
ATOM     11  C   UNL     1      33.286  -7.535 -22.867  0.00  0.00    +0.073 C 
ENDROOT
BRANCH   5  12
ATOM     12  C   UNL     1      33.587 -13.806 -24.109  0.00  0.00    +0.041 C 
ATOM     13  C   UNL     1      34.494 -14.615 -23.425  0.00  0.00    +0.043 C 
ATOM     14  C   UNL     1      33.033 -14.243 -25.313  0.00  0.00    +0.006 C 
ATOM     15  C   UNL     1      34.846 -15.861 -23.943  0.00  0.00    +0.168 C 
ATOM     16  C   UNL     1      33.386 -15.489 -25.831  0.00  0.00    +0.040 C 
ATOM     17  C   UNL     1      34.293 -16.298 -25.147  0.00  0.00    +0.167 C 
BRANCH  15  18
ATOM     18  O   UNL     1      35.734 -16.642 -23.267  0.00  0.00    -0.503 OA
ATOM     19  H   UNL     1      35.469 -17.083 -22.484  0.00  0.00    +0.292 HD
ENDBRANCH  15  18
BRANCH  17  20
ATOM     20  O   UNL     1      34.628 -17.514 -25.662  0.00  0.00    -0.503 OA
ATOM     21  H   UNL     1      34.899 -17.586 -26.556  0.00  0.00    +0.292 HD
ENDBRANCH  17  20
ENDBRANCH   5  12
BRANCH   6  22
ATOM     22  O   UNL     1      31.554 -13.400 -22.094  0.00  0.00    -0.501 OA
ATOM     23  H   UNL     1      31.757 -14.276 -22.355  0.00  0.00    +0.292 HD
ENDBRANCH   6  22
BRANCH   8  24
ATOM     24  O   UNL     1      31.590  -8.216 -21.372  0.00  0.00    -0.505 OA
ATOM     25  H   UNL     1      31.511  -8.715 -20.583  0.00  0.00    +0.292 HD
ENDBRANCH   8  24
BRANCH  10  26
ATOM     26  O   UNL     1      34.998  -6.827 -24.372  0.00  0.00    -0.505 OA
ATOM     27  H   UNL     1      35.920  -6.784 -24.209  0.00  0.00    +0.292 HD
ENDBRANCH  10  26
TORSDOF 6
ENDMDL
MODEL 8
REMARK VINA RESULT:      -9.4      2.407      7.837
REMARK  Name = 5280343
REMARK  6 active torsions:
REMARK  status: ('A' for Active; 'I' for Inactive)
REMARK    1  A    between atoms: C_5  and  C_12
REMARK    2  A    between atoms: C_6  and  O_22
REMARK    3  A    between atoms: C_8  and  O_24
REMARK    4  A    between atoms: C_10  and  O_26
REMARK    5  A    between atoms: C_15  and  O_18
REMARK    6  A    between atoms: C_17  and  O_20
REMARK                            x       y       z     vdW  Elec       q    Type
REMARK                         _______ _______ _______ _____ _____    ______ ____
ROOT
ATOM      1  O   UNL     1      35.875 -20.546 -19.558  0.00  0.00    -0.450 OA
ATOM      2  O   UNL     1      32.401 -22.429 -18.563  0.00  0.00    -0.283 OA
ATOM      3  C   UNL     1      34.691 -22.095 -18.113  0.00  0.00    +0.110 A 
ATOM      4  C   UNL     1      35.847 -21.421 -18.504  0.00  0.00    +0.155 A 
ATOM      5  C   UNL     1      34.700 -20.311 -20.256  0.00  0.00    +0.182 A 
ATOM      6  C   UNL     1      33.522 -20.903 -19.986  0.00  0.00    +0.208 A 
ATOM      7  C   UNL     1      33.445 -21.862 -18.857  0.00  0.00    +0.238 A 
ATOM      8  C   UNL     1      34.723 -22.978 -17.030  0.00  0.00    +0.143 C 
ATOM      9  C   UNL     1      37.042 -21.627 -17.816  0.00  0.00    +0.074 C 
ATOM     10  C   UNL     1      37.078 -22.508 -16.734  0.00  0.00    +0.140 C 
ATOM     11  C   UNL     1      35.919 -23.182 -16.343  0.00  0.00    +0.073 C 
ENDROOT
BRANCH   5  12
ATOM     12  C   UNL     1      34.869 -19.352 -21.361  0.00  0.00    +0.041 C 
ATOM     13  C   UNL     1      34.835 -17.981 -21.106  0.00  0.00    +0.043 C 
ATOM     14  C   UNL     1      35.063 -19.815 -22.663  0.00  0.00    +0.006 C 
ATOM     15  C   UNL     1      34.996 -17.073 -22.153  0.00  0.00    +0.168 C 
ATOM     16  C   UNL     1      35.223 -18.907 -23.709  0.00  0.00    +0.040 C 
ATOM     17  C   UNL     1      35.189 -17.536 -23.455  0.00  0.00    +0.167 C 
BRANCH  15  18
ATOM     18  O   UNL     1      34.959 -15.736 -21.893  0.00  0.00    -0.503 OA
ATOM     19  H   UNL     1      34.696 -15.136 -22.563  0.00  0.00    +0.292 HD
ENDBRANCH  15  18
BRANCH  17  20
ATOM     20  O   UNL     1      35.349 -16.659 -24.485  0.00  0.00    -0.503 OA
ATOM     21  H   UNL     1      36.007 -15.994 -24.437  0.00  0.00    +0.292 HD
ENDBRANCH  17  20
ENDBRANCH   5  12
BRANCH   6  22
ATOM     22  O   UNL     1      32.378 -20.673 -20.720  0.00  0.00    -0.501 OA
ATOM     23  H   UNL     1      31.668 -21.282 -20.683  0.00  0.00    +0.292 HD
ENDBRANCH   6  22
BRANCH   8  24
ATOM     24  O   UNL     1      33.623 -23.662 -16.607  0.00  0.00    -0.505 OA
ATOM     25  H   UNL     1      32.776 -23.438 -16.940  0.00  0.00    +0.292 HD
ENDBRANCH   8  24
BRANCH  10  26
ATOM     26  O   UNL     1      38.242 -22.711 -16.061  0.00  0.00    -0.505 OA
ATOM     27  H   UNL     1      38.419 -22.231 -15.274  0.00  0.00    +0.292 HD
ENDBRANCH  10  26
TORSDOF 6
ENDMDL
MODEL 9
REMARK VINA RESULT:      -9.4      5.481     11.240
REMARK  Name = 5280343
REMARK  6 active torsions:
REMARK  status: ('A' for Active; 'I' for Inactive)
REMARK    1  A    between atoms: C_5  and  C_12
REMARK    2  A    between atoms: C_6  and  O_22
REMARK    3  A    between atoms: C_8  and  O_24
REMARK    4  A    between atoms: C_10  and  O_26
REMARK    5  A    between atoms: C_15  and  O_18
REMARK    6  A    between atoms: C_17  and  O_20
REMARK                            x       y       z     vdW  Elec       q    Type
REMARK                         _______ _______ _______ _____ _____    ______ ____
ROOT
ATOM      1  O   UNL     1      36.907 -23.818 -15.914  0.00  0.00    -0.450 OA
ATOM      2  O   UNL     1      34.219 -24.094 -12.863  0.00  0.00    -0.283 OA
ATOM      3  C   UNL     1      36.362 -24.625 -13.691  0.00  0.00    +0.110 A 
ATOM      4  C   UNL     1      37.235 -24.496 -14.769  0.00  0.00    +0.155 A 
ATOM      5  C   UNL     1      35.657 -23.224 -15.996  0.00  0.00    +0.182 A 
ATOM      6  C   UNL     1      34.721 -23.281 -15.031  0.00  0.00    +0.208 A 
ATOM      7  C   UNL     1      35.030 -24.009 -13.776  0.00  0.00    +0.238 A 
ATOM      8  C   UNL     1      36.752 -25.330 -12.549  0.00  0.00    +0.143 C 
ATOM      9  C   UNL     1      38.504 -25.073 -14.714  0.00  0.00    +0.074 C 
ATOM     10  C   UNL     1      38.897 -25.778 -13.575  0.00  0.00    +0.140 C 
ATOM     11  C   UNL     1      38.021 -25.906 -12.495  0.00  0.00    +0.073 C 
ENDROOT
BRANCH   5  12
ATOM     12  C   UNL     1      35.433 -22.528 -17.275  0.00  0.00    +0.041 C 
ATOM     13  C   UNL     1      34.198 -22.624 -17.915  0.00  0.00    +0.043 C 
ATOM     14  C   UNL     1      36.458 -21.773 -17.846  0.00  0.00    +0.006 C 
ATOM     15  C   UNL     1      33.986 -21.964 -19.126  0.00  0.00    +0.168 C 
ATOM     16  C   UNL     1      36.247 -21.114 -19.058  0.00  0.00    +0.040 C 
ATOM     17  C   UNL     1      35.011 -21.210 -19.697  0.00  0.00    +0.167 C 
BRANCH  15  18
ATOM     18  O   UNL     1      32.776 -22.066 -19.743  0.00  0.00    -0.503 OA
ATOM     19  H   UNL     1      32.711 -22.481 -20.581  0.00  0.00    +0.292 HD
ENDBRANCH  15  18
BRANCH  17  20
ATOM     20  O   UNL     1      34.816 -20.560 -20.879  0.00  0.00    -0.503 OA
ATOM     21  H   UNL     1      34.369 -19.736 -20.893  0.00  0.00    +0.292 HD
ENDBRANCH  17  20
ENDBRANCH   5  12
BRANCH   6  22
ATOM     22  O   UNL     1      33.474 -22.707 -15.157  0.00  0.00    -0.501 OA
ATOM     23  H   UNL     1      32.720 -23.144 -14.813  0.00  0.00    +0.292 HD
ENDBRANCH   6  22
BRANCH   8  24
ATOM     24  O   UNL     1      35.937 -25.486 -11.468  0.00  0.00    -0.505 OA
ATOM     25  H   UNL     1      36.214 -25.186 -10.625  0.00  0.00    +0.292 HD
ENDBRANCH   8  24
BRANCH  10  26
ATOM     26  O   UNL     1      40.133 -26.342 -13.517  0.00  0.00    -0.505 OA
ATOM     27  H   UNL     1      40.886 -25.849 -13.782  0.00  0.00    +0.292 HD
ENDBRANCH  10  26
TORSDOF 6
ENDMDL
