MODEL 1
REMARK VINA RESULT:      -9.6      0.000      0.000
REMARK  Name = 5362129
REMARK  11 active torsions:
REMARK  status: ('A' for Active; 'I' for Inactive)
REMARK    1  A    between atoms: N_1  and  CA_4
REMARK    2  A    between atoms: N_1  and  C_20
REMARK    3  A    between atoms: CA_4  and  C_15
REMARK    4  A    between atoms: CA_13  and  C_17
REMARK    5  A    between atoms: C_17  and  O_18
REMARK    6  A    between atoms: C_20  and  C_22
REMARK    7  A    between atoms: C_20  and  C_26
REMARK    8  A    between atoms: C_22  and  O_23
REMARK    9  A    between atoms: O_23  and  C_24
REMARK   10  A    between atoms: C_26  and  C_27
REMARK   11  A    between atoms: C_27  and  C_28
REMARK                            x       y       z     vdW  Elec       q    Type
REMARK                         _______ _______ _______ _____ _____    ______ ____
ROOT
ATOM      1  N   ALA A   1      33.346 -24.309 -15.337  0.00  0.00    +0.399 N 
ATOM      2  H1  ALA A   1      32.571 -24.729 -14.825  0.00  0.00    -0.083 HD
ATOM      3  H2  ALA A   1      33.676 -24.940 -16.068  0.00  0.00    -0.083 HD
ENDROOT
BRANCH   1   4
ATOM      4  CA  ALA A   1      34.442 -24.056 -14.418  0.00  0.00    +0.018 C 
ATOM      5  CB  ALA A   1      34.023 -24.319 -12.985  0.00  0.00    -0.014 C 
BRANCH   4  15
ATOM      6  O   ALA A   1      35.467 -25.678 -15.822  0.00  0.00    -0.277 OA
ATOM      7  N   ALA A   1      36.663 -25.006 -13.960  0.00  0.00    -0.275 N 
ATOM      8  C   ALA A   1      38.652 -25.830 -12.914  0.00  0.00    +0.020 C 
ATOM      9  C   ALA A   1      37.744 -25.969 -14.145  0.00  0.00    +0.076 C 
ATOM     10  C   ALA A   1      37.859 -24.995 -11.912  0.00  0.00    +0.033 C 
ATOM     11  C   ALA A   1      39.941 -25.191 -13.424  0.00  0.00    +0.002 C 
ATOM     12  C   ALA A   1      38.627 -25.664 -15.361  0.00  0.00    +0.020 C 
ATOM     13  CA  ALA A   1      36.844 -24.220 -12.746  0.00  0.00    +0.174 C 
ATOM     14  C   ALA A   1      40.056 -25.731 -14.839  0.00  0.00    +0.002 C 
ATOM     15  C   ALA A   1      35.563 -24.987 -14.806  0.00  0.00    +0.206 C 
BRANCH  13  17
ATOM     16  OXT ALA A   1      37.484 -22.449 -14.263  0.00  0.00    -0.248 OA
ATOM     17  C   ALA A   1      37.362 -22.863 -13.119  0.00  0.00    +0.332 C 
BRANCH  17  18
ATOM     18  O   ALA A   1      37.683 -22.151 -12.012  0.00  0.00    -0.479 OA
ATOM     19  H   ALA A   1      37.520 -22.509 -11.162  0.00  0.00    +0.295 HD
ENDBRANCH  17  18
ENDBRANCH  13  17
ENDBRANCH   4  15
ENDBRANCH   1   4
BRANCH   1  20
ATOM     20  C   UNK A   0      32.890 -23.074 -15.963  0.00  0.00    +0.041 C 
BRANCH  20  22
ATOM     21  O   UNK A   0      31.033 -22.751 -14.410  0.00  0.00    -0.252 OA
ATOM     22  C   UNK A   0      31.440 -22.865 -15.560  0.00  0.00    +0.297 C 
BRANCH  22  23
ATOM     23  O   UNK A   0      30.664 -22.818 -16.685  0.00  0.00    -0.450 OA
BRANCH  23  24
ATOM     24  C   UNK A   0      29.253 -22.722 -16.459  0.00  0.00    +0.208 C 
ATOM     25  C   UNK A   0      28.648 -24.107 -16.520  0.00  0.00    +0.051 C 
ENDBRANCH  23  24
ENDBRANCH  22  23
ENDBRANCH  20  22
BRANCH  20  26
ATOM     26  C   UNK A   0      32.996 -23.140 -17.495  0.00  0.00    -0.006 C 
BRANCH  26  27
ATOM     27  C   UNK A   0      34.363 -22.750 -18.074  0.00  0.00    +0.025 C 
BRANCH  27  28
ATOM     28  C   UNK A   0      34.291 -21.676 -19.131  0.00  0.00    -0.022 C 
ATOM     29  C   UNK A   0      35.463 -21.192 -19.691  0.00  0.00    -0.004 C 
ATOM     30  C   UNK A   0      33.054 -21.191 -19.525  0.00  0.00    -0.004 C 
ATOM     31  C   UNK A   0      35.397 -20.199 -20.669  0.00  0.00    -0.000 C 
ATOM     32  C   UNK A   0      32.986 -20.198 -20.503  0.00  0.00    -0.000 C 
ATOM     33  C   UNK A   0      34.158 -19.703 -21.075  0.00  0.00    -0.000 C 
ENDBRANCH  27  28
ENDBRANCH  26  27
ENDBRANCH  20  26
ENDBRANCH   1  20
TORSDOF 11
ENDMDL
MODEL 2
REMARK VINA RESULT:      -9.3      1.441      2.049
REMARK  Name = 5362129
REMARK  11 active torsions:
REMARK  status: ('A' for Active; 'I' for Inactive)
REMARK    1  A    between atoms: N_1  and  CA_4
REMARK    2  A    between atoms: N_1  and  C_20
REMARK    3  A    between atoms: CA_4  and  C_15
REMARK    4  A    between atoms: CA_13  and  C_17
REMARK    5  A    between atoms: C_17  and  O_18
REMARK    6  A    between atoms: C_20  and  C_22
REMARK    7  A    between atoms: C_20  and  C_26
REMARK    8  A    between atoms: C_22  and  O_23
REMARK    9  A    between atoms: O_23  and  C_24
REMARK   10  A    between atoms: C_26  and  C_27
REMARK   11  A    between atoms: C_27  and  C_28
REMARK                            x       y       z     vdW  Elec       q    Type
REMARK                         _______ _______ _______ _____ _____    ______ ____
ROOT
ATOM      1  N   ALA A   1      32.639 -23.675 -16.117  0.00  0.00    +0.399 N 
ATOM      2  H1  ALA A   1      32.176 -24.580 -16.036  0.00  0.00    -0.083 HD
ATOM      3  H2  ALA A   1      33.378 -23.713 -16.819  0.00  0.00    -0.083 HD
ENDROOT
BRANCH   1   4
ATOM      4  CA  ALA A   1      33.235 -23.331 -14.838  0.00  0.00    +0.018 C 
ATOM      5  CB  ALA A   1      32.170 -23.041 -13.799  0.00  0.00    -0.014 C 
BRANCH   4  15
ATOM      6  O   ALA A   1      33.543 -25.628 -14.305  0.00  0.00    -0.277 OA
ATOM      7  N   ALA A   1      35.403 -24.261 -14.144  0.00  0.00    -0.275 N 
ATOM      8  C   ALA A   1      37.592 -24.587 -13.232  0.00  0.00    +0.020 C 
ATOM      9  C   ALA A   1      36.272 -25.290 -13.581  0.00  0.00    +0.076 C 
ATOM     10  C   ALA A   1      37.297 -23.091 -13.326  0.00  0.00    +0.033 C 
ATOM     11  C   ALA A   1      38.617 -25.116 -14.231  0.00  0.00    +0.002 C 
ATOM     12  C   ALA A   1      36.631 -26.396 -14.580  0.00  0.00    +0.020 C 
ATOM     13  CA  ALA A   1      36.085 -22.976 -14.244  0.00  0.00    +0.174 C 
ATOM     14  C   ALA A   1      38.144 -26.538 -14.487  0.00  0.00    +0.002 C 
ATOM     15  C   ALA A   1      34.064 -24.515 -14.408  0.00  0.00    +0.206 C 
BRANCH  13  17
ATOM     16  OXT ALA A   1      35.879 -23.157 -16.647  0.00  0.00    -0.248 OA
ATOM     17  C   ALA A   1      36.493 -22.754 -15.669  0.00  0.00    +0.332 C 
BRANCH  17  18
ATOM     18  O   ALA A   1      37.645 -22.043 -15.732  0.00  0.00    -0.479 OA
ATOM     19  H   ALA A   1      38.316 -22.292 -16.335  0.00  0.00    +0.295 HD
ENDBRANCH  17  18
ENDBRANCH  13  17
ENDBRANCH   4  15
ENDBRANCH   1   4
BRANCH   1  20
ATOM     20  C   UNK A   0      31.661 -22.674 -16.526  0.00  0.00    +0.041 C 
BRANCH  20  22
ATOM     21  O   UNK A   0      30.052 -24.450 -16.056  0.00  0.00    -0.252 OA
ATOM     22  C   UNK A   0      30.292 -23.332 -16.495  0.00  0.00    +0.297 C 
BRANCH  22  23
ATOM     23  O   UNK A   0      29.370 -22.475 -17.030  0.00  0.00    -0.450 OA
BRANCH  23  24
ATOM     24  C   UNK A   0      28.020 -22.950 -17.046  0.00  0.00    +0.208 C 
ATOM     25  C   UNK A   0      27.264 -22.323 -15.895  0.00  0.00    +0.051 C 
ENDBRANCH  23  24
ENDBRANCH  22  23
ENDBRANCH  20  22
BRANCH  20  26
ATOM     26  C   UNK A   0      31.948 -22.144 -17.940  0.00  0.00    -0.006 C 
BRANCH  26  27
ATOM     27  C   UNK A   0      33.329 -22.502 -18.506  0.00  0.00    +0.025 C 
BRANCH  27  28
ATOM     28  C   UNK A   0      33.897 -21.454 -19.431  0.00  0.00    -0.022 C 
ATOM     29  C   UNK A   0      33.037 -20.586 -20.086  0.00  0.00    -0.004 C 
ATOM     30  C   UNK A   0      35.269 -21.377 -19.612  0.00  0.00    -0.004 C 
ATOM     31  C   UNK A   0      33.562 -19.617 -20.942  0.00  0.00    -0.000 C 
ATOM     32  C   UNK A   0      35.795 -20.409 -20.467  0.00  0.00    -0.000 C 
ATOM     33  C   UNK A   0      34.941 -19.529 -21.132  0.00  0.00    -0.000 C 
ENDBRANCH  27  28
ENDBRANCH  26  27
ENDBRANCH  20  26
ENDBRANCH   1  20
TORSDOF 11
ENDMDL
MODEL 3
REMARK VINA RESULT:      -8.8      8.658     12.657
REMARK  Name = 5362129
REMARK  11 active torsions:
REMARK  status: ('A' for Active; 'I' for Inactive)
REMARK    1  A    between atoms: N_1  and  CA_4
REMARK    2  A    between atoms: N_1  and  C_20
REMARK    3  A    between atoms: CA_4  and  C_15
REMARK    4  A    between atoms: CA_13  and  C_17
REMARK    5  A    between atoms: C_17  and  O_18
REMARK    6  A    between atoms: C_20  and  C_22
REMARK    7  A    between atoms: C_20  and  C_26
REMARK    8  A    between atoms: C_22  and  O_23
REMARK    9  A    between atoms: O_23  and  C_24
REMARK   10  A    between atoms: C_26  and  C_27
REMARK   11  A    between atoms: C_27  and  C_28
REMARK                            x       y       z     vdW  Elec       q    Type
REMARK                         _______ _______ _______ _____ _____    ______ ____
ROOT
ATOM      1  N   ALA A   1      34.200 -14.277 -24.251  0.00  0.00    +0.399 N 
ATOM      2  H1  ALA A   1      34.878 -14.058 -24.980  0.00  0.00    -0.083 HD
ATOM      3  H2  ALA A   1      34.671 -14.434 -23.359  0.00  0.00    -0.083 HD
ENDROOT
BRANCH   1   4
ATOM      4  CA  ALA A   1      33.486 -15.488 -24.615  0.00  0.00    +0.018 C 
ATOM      5  CB  ALA A   1      33.032 -15.441 -26.061  0.00  0.00    -0.014 C 
BRANCH   4  15
ATOM      6  O   ALA A   1      35.236 -16.943 -25.305  0.00  0.00    -0.277 OA
ATOM      7  N   ALA A   1      34.355 -17.298 -23.195  0.00  0.00    -0.275 N 
ATOM      8  C   ALA A   1      34.607 -19.063 -21.598  0.00  0.00    +0.020 C 
ATOM      9  C   ALA A   1      35.121 -18.514 -22.937  0.00  0.00    +0.076 C 
ATOM     10  C   ALA A   1      33.326 -18.287 -21.301  0.00  0.00    +0.033 C 
ATOM     11  C   ALA A   1      35.745 -18.854 -20.603  0.00  0.00    +0.002 C 
ATOM     12  C   ALA A   1      36.621 -18.258 -22.744  0.00  0.00    +0.020 C 
ATOM     13  CA  ALA A   1      33.444 -16.993 -22.098  0.00  0.00    +0.174 C 
ATOM     14  C   ALA A   1      36.987 -19.000 -21.466  0.00  0.00    +0.002 C 
ATOM     15  C   ALA A   1      34.442 -16.637 -24.412  0.00  0.00    +0.206 C 
BRANCH  13  17
ATOM     16  OXT ALA A   1      35.155 -15.426 -21.417  0.00  0.00    -0.248 OA
ATOM     17  C   ALA A   1      34.033 -15.890 -21.271  0.00  0.00    +0.332 C 
BRANCH  17  18
ATOM     18  O   ALA A   1      33.151 -15.473 -20.330  0.00  0.00    -0.479 OA
ATOM     19  H   ALA A   1      33.295 -14.665 -19.879  0.00  0.00    +0.295 HD
ENDBRANCH  17  18
ENDBRANCH  13  17
ENDBRANCH   4  15
ENDBRANCH   1   4
BRANCH   1  20
ATOM     20  C   UNK A   0      33.284 -13.153 -24.099  0.00  0.00    +0.041 C 
BRANCH  20  22
ATOM     21  O   UNK A   0      33.863 -11.937 -26.136  0.00  0.00    -0.252 OA
ATOM     22  C   UNK A   0      33.839 -11.996 -24.913  0.00  0.00    +0.297 C 
BRANCH  22  23
ATOM     23  O   UNK A   0      34.302 -11.031 -24.062  0.00  0.00    -0.450 OA
BRANCH  23  24
ATOM     24  C   UNK A   0      35.008  -9.949 -24.680  0.00  0.00    +0.208 C 
ATOM     25  C   UNK A   0      34.675  -8.665 -23.953  0.00  0.00    +0.051 C 
ENDBRANCH  23  24
ENDBRANCH  22  23
ENDBRANCH  20  22
BRANCH  20  26
ATOM     26  C   UNK A   0      33.142 -12.730 -22.629  0.00  0.00    -0.006 C 
BRANCH  26  27
ATOM     27  C   UNK A   0      31.734 -12.285 -22.208  0.00  0.00    +0.025 C 
BRANCH  27  28
ATOM     28  C   UNK A   0      31.727 -11.134 -21.233  0.00  0.00    -0.022 C 
ATOM     29  C   UNK A   0      31.488 -11.380 -19.890  0.00  0.00    -0.004 C 
ATOM     30  C   UNK A   0      31.958  -9.848 -21.697  0.00  0.00    -0.004 C 
ATOM     31  C   UNK A   0      31.480 -10.316 -18.989  0.00  0.00    -0.000 C 
ATOM     32  C   UNK A   0      31.952  -8.783 -20.796  0.00  0.00    -0.000 C 
ATOM     33  C   UNK A   0      31.713  -9.017 -19.442  0.00  0.00    -0.000 C 
ENDBRANCH  27  28
ENDBRANCH  26  27
ENDBRANCH  20  26
ENDBRANCH   1  20
TORSDOF 11
ENDMDL
MODEL 4
REMARK VINA RESULT:      -8.7      9.325     14.262
REMARK  Name = 5362129
REMARK  11 active torsions:
REMARK  status: ('A' for Active; 'I' for Inactive)
REMARK    1  A    between atoms: N_1  and  CA_4
REMARK    2  A    between atoms: N_1  and  C_20
REMARK    3  A    between atoms: CA_4  and  C_15
REMARK    4  A    between atoms: CA_13  and  C_17
REMARK    5  A    between atoms: C_17  and  O_18
REMARK    6  A    between atoms: C_20  and  C_22
REMARK    7  A    between atoms: C_20  and  C_26
REMARK    8  A    between atoms: C_22  and  O_23
REMARK    9  A    between atoms: O_23  and  C_24
REMARK   10  A    between atoms: C_26  and  C_27
REMARK   11  A    between atoms: C_27  and  C_28
REMARK                            x       y       z     vdW  Elec       q    Type
REMARK                         _______ _______ _______ _____ _____    ______ ____
ROOT
ATOM      1  N   ALA A   1      33.213 -14.156 -23.274  0.00  0.00    +0.399 N 
ATOM      2  H1  ALA A   1      32.437 -14.560 -23.798  0.00  0.00    -0.083 HD
ATOM      3  H2  ALA A   1      33.037 -14.215 -22.270  0.00  0.00    -0.083 HD
ENDROOT
BRANCH   1   4
ATOM      4  CA  ALA A   1      33.351 -12.756 -23.635  0.00  0.00    +0.018 C 
ATOM      5  CB  ALA A   1      32.798 -12.493 -25.022  0.00  0.00    -0.014 C 
BRANCH   4  15
ATOM      6  O   ALA A   1      32.101 -12.525 -21.626  0.00  0.00    -0.277 OA
ATOM      7  N   ALA A   1      32.444 -10.603 -22.868  0.00  0.00    -0.275 N 
ATOM      8  C   ALA A   1      31.529  -8.395 -22.742  0.00  0.00    +0.020 C 
ATOM      9  C   ALA A   1      31.596  -9.757 -22.034  0.00  0.00    +0.076 C 
ATOM     10  C   ALA A   1      32.102  -8.629 -24.137  0.00  0.00    +0.033 C 
ATOM     11  C   ALA A   1      32.324  -7.435 -21.860  0.00  0.00    +0.002 C 
ATOM     12  C   ALA A   1      32.185  -9.486 -20.645  0.00  0.00    +0.020 C 
ATOM     13  CA  ALA A   1      32.977  -9.872 -24.011  0.00  0.00    +0.174 C 
ATOM     14  C   ALA A   1      32.087  -7.978 -20.461  0.00  0.00    +0.002 C 
ATOM     15  C   ALA A   1      32.577 -11.961 -22.614  0.00  0.00    +0.206 C 
BRANCH  13  17
ATOM     16  OXT ALA A   1      34.775  -8.506 -23.146  0.00  0.00    -0.248 OA
ATOM     17  C   ALA A   1      34.406  -9.513 -23.733  0.00  0.00    +0.332 C 
BRANCH  17  18
ATOM     18  O   ALA A   1      35.242 -10.459 -24.226  0.00  0.00    -0.479 OA
ATOM     19  H   ALA A   1      35.250 -11.317 -23.851  0.00  0.00    +0.295 HD
ENDBRANCH  17  18
ENDBRANCH  13  17
ENDBRANCH   4  15
ENDBRANCH   1   4
BRANCH   1  20
ATOM     20  C   UNK A   0      34.431 -14.898 -23.575  0.00  0.00    +0.041 C 
BRANCH  20  22
ATOM     21  O   UNK A   0      33.285 -15.706 -25.574  0.00  0.00    -0.252 OA
ATOM     22  C   UNK A   0      34.103 -15.887 -24.681  0.00  0.00    +0.297 C 
BRANCH  22  23
ATOM     23  O   UNK A   0      34.870 -17.008 -24.522  0.00  0.00    -0.450 OA
BRANCH  23  24
ATOM     24  C   UNK A   0      34.396 -18.181 -25.192  0.00  0.00    +0.208 C 
ATOM     25  C   UNK A   0      34.828 -19.403 -24.412  0.00  0.00    +0.051 C 
ENDBRANCH  23  24
ENDBRANCH  22  23
ENDBRANCH  20  22
BRANCH  20  26
ATOM     26  C   UNK A   0      34.955 -15.654 -22.344  0.00  0.00    -0.006 C 
BRANCH  26  27
ATOM     27  C   UNK A   0      33.900 -16.453 -21.567  0.00  0.00    +0.025 C 
BRANCH  27  28
ATOM     28  C   UNK A   0      34.342 -17.847 -21.199  0.00  0.00    -0.022 C 
ATOM     29  C   UNK A   0      33.388 -18.823 -20.956  0.00  0.00    -0.004 C 
ATOM     30  C   UNK A   0      35.696 -18.130 -21.110  0.00  0.00    -0.004 C 
ATOM     31  C   UNK A   0      33.796 -20.112 -20.615  0.00  0.00    -0.000 C 
ATOM     32  C   UNK A   0      36.106 -19.420 -20.771  0.00  0.00    -0.000 C 
ATOM     33  C   UNK A   0      35.156 -20.411 -20.523  0.00  0.00    -0.000 C 
ENDBRANCH  27  28
ENDBRANCH  26  27
ENDBRANCH  20  26
ENDBRANCH   1  20
TORSDOF 11
ENDMDL
MODEL 5
REMARK VINA RESULT:      -8.7      8.685     12.458
REMARK  Name = 5362129
REMARK  11 active torsions:
REMARK  status: ('A' for Active; 'I' for Inactive)
REMARK    1  A    between atoms: N_1  and  CA_4
REMARK    2  A    between atoms: N_1  and  C_20
REMARK    3  A    between atoms: CA_4  and  C_15
REMARK    4  A    between atoms: CA_13  and  C_17
REMARK    5  A    between atoms: C_17  and  O_18
REMARK    6  A    between atoms: C_20  and  C_22
REMARK    7  A    between atoms: C_20  and  C_26
REMARK    8  A    between atoms: C_22  and  O_23
REMARK    9  A    between atoms: O_23  and  C_24
REMARK   10  A    between atoms: C_26  and  C_27
REMARK   11  A    between atoms: C_27  and  C_28
REMARK                            x       y       z     vdW  Elec       q    Type
REMARK                         _______ _______ _______ _____ _____    ______ ____
ROOT
ATOM      1  N   ALA A   1      32.167 -14.028 -22.745  0.00  0.00    +0.399 N 
ATOM      2  H1  ALA A   1      31.562 -14.433 -22.031  0.00  0.00    -0.083 HD
ATOM      3  H2  ALA A   1      31.652 -13.887 -23.614  0.00  0.00    -0.083 HD
ENDROOT
BRANCH   1   4
ATOM      4  CA  ALA A   1      33.268 -14.940 -23.005  0.00  0.00    +0.018 C 
ATOM      5  CB  ALA A   1      34.597 -14.209 -22.991  0.00  0.00    -0.014 C 
BRANCH   4  15
ATOM      6  O   ALA A   1      32.397 -15.916 -21.020  0.00  0.00    -0.277 OA
ATOM      7  N   ALA A   1      34.209 -16.974 -21.995  0.00  0.00    -0.275 N 
ATOM      8  C   ALA A   1      35.659 -18.731 -21.261  0.00  0.00    +0.020 C 
ATOM      9  C   ALA A   1      34.380 -17.951 -20.924  0.00  0.00    +0.076 C 
ATOM     10  C   ALA A   1      36.343 -17.937 -22.371  0.00  0.00    +0.033 C 
ATOM     11  C   ALA A   1      35.195 -20.133 -21.650  0.00  0.00    +0.002 C 
ATOM     12  C   ALA A   1      33.253 -18.989 -20.861  0.00  0.00    +0.020 C 
ATOM     13  CA  ALA A   1      35.235 -17.114 -23.020  0.00  0.00    +0.174 C 
ATOM     14  C   ALA A   1      33.959 -20.336 -20.791  0.00  0.00    +0.002 C 
ATOM     15  C   ALA A   1      33.242 -15.981 -21.916  0.00  0.00    +0.206 C 
BRANCH  13  17
ATOM     16  OXT ALA A   1      34.118 -18.924 -24.170  0.00  0.00    -0.248 OA
ATOM     17  C   ALA A   1      34.646 -17.822 -24.203  0.00  0.00    +0.332 C 
BRANCH  17  18
ATOM     18  O   ALA A   1      34.780 -17.073 -25.325  0.00  0.00    -0.479 OA
ATOM     19  H   ALA A   1      34.173 -16.382 -25.501  0.00  0.00    +0.295 HD
ENDBRANCH  17  18
ENDBRANCH  13  17
ENDBRANCH   4  15
ENDBRANCH   1   4
BRANCH   1  20
ATOM     20  C   UNK A   0      32.655 -12.736 -22.280  0.00  0.00    +0.041 C 
BRANCH  20  22
ATOM     21  O   UNK A   0      32.216 -13.072 -19.901  0.00  0.00    -0.252 OA
ATOM     22  C   UNK A   0      32.001 -12.455 -20.937  0.00  0.00    +0.297 C 
BRANCH  22  23
ATOM     23  O   UNK A   0      31.139 -11.402 -21.070  0.00  0.00    -0.450 OA
BRANCH  23  24
ATOM     24  C   UNK A   0      30.976 -10.587 -19.905  0.00  0.00    +0.208 C 
ATOM     25  C   UNK A   0      31.986  -9.461 -19.945  0.00  0.00    +0.051 C 
ENDBRANCH  23  24
ENDBRANCH  22  23
ENDBRANCH  20  22
BRANCH  20  26
ATOM     26  C   UNK A   0      32.313 -11.610 -23.267  0.00  0.00    -0.006 C 
BRANCH  26  27
ATOM     27  C   UNK A   0      33.518 -10.922 -23.921  0.00  0.00    +0.025 C 
BRANCH  27  28
ATOM     28  C   UNK A   0      33.484  -9.416 -23.827  0.00  0.00    -0.022 C 
ATOM     29  C   UNK A   0      34.662  -8.698 -23.961  0.00  0.00    -0.004 C 
ATOM     30  C   UNK A   0      32.274  -8.776 -23.608  0.00  0.00    -0.004 C 
ATOM     31  C   UNK A   0      34.631  -7.307 -23.874  0.00  0.00    -0.000 C 
ATOM     32  C   UNK A   0      32.242  -7.384 -23.522  0.00  0.00    -0.000 C 
ATOM     33  C   UNK A   0      33.420  -6.649 -23.655  0.00  0.00    -0.000 C 
ENDBRANCH  27  28
ENDBRANCH  26  27
ENDBRANCH  20  26
ENDBRANCH   1  20
TORSDOF 11
ENDMDL
MODEL 6
REMARK VINA RESULT:      -8.7     11.239     16.071
REMARK  Name = 5362129
REMARK  11 active torsions:
REMARK  status: ('A' for Active; 'I' for Inactive)
REMARK    1  A    between atoms: N_1  and  CA_4
REMARK    2  A    between atoms: N_1  and  C_20
REMARK    3  A    between atoms: CA_4  and  C_15
REMARK    4  A    between atoms: CA_13  and  C_17
REMARK    5  A    between atoms: C_17  and  O_18
REMARK    6  A    between atoms: C_20  and  C_22
REMARK    7  A    between atoms: C_20  and  C_26
REMARK    8  A    between atoms: C_22  and  O_23
REMARK    9  A    between atoms: O_23  and  C_24
REMARK   10  A    between atoms: C_26  and  C_27
REMARK   11  A    between atoms: C_27  and  C_28
REMARK                            x       y       z     vdW  Elec       q    Type
REMARK                         _______ _______ _______ _____ _____    ______ ____
ROOT
ATOM      1  N   ALA A   1      33.206 -10.689 -24.317  0.00  0.00    +0.399 N 
ATOM      2  H1  ALA A   1      33.090 -10.540 -25.318  0.00  0.00    -0.083 HD
ATOM      3  H2  ALA A   1      32.367 -10.402 -23.812  0.00  0.00    -0.083 HD
ENDROOT
BRANCH   1   4
ATOM      4  CA  ALA A   1      34.323  -9.889 -23.844  0.00  0.00    +0.018 C 
ATOM      5  CB  ALA A   1      35.554 -10.111 -24.702  0.00  0.00    -0.014 C 
BRANCH   4  15
ATOM      6  O   ALA A   1      34.138  -7.785 -24.937  0.00  0.00    -0.277 OA
ATOM      7  N   ALA A   1      33.234  -7.941 -22.813  0.00  0.00    -0.275 N 
ATOM      8  C   ALA A   1      32.386  -6.312 -21.278  0.00  0.00    +0.020 C 
ATOM      9  C   ALA A   1      32.899  -6.524 -22.710  0.00  0.00    +0.076 C 
ATOM     10  C   ALA A   1      32.753  -7.585 -20.518  0.00  0.00    +0.033 C 
ATOM     11  C   ALA A   1      30.891  -6.039 -21.413  0.00  0.00    +0.002 C 
ATOM     12  C   ALA A   1      31.755  -6.100 -23.638  0.00  0.00    +0.020 C 
ATOM     13  CA  ALA A   1      32.912  -8.661 -21.587  0.00  0.00    +0.174 C 
ATOM     14  C   ALA A   1      30.792  -5.325 -22.750  0.00  0.00    +0.002 C 
ATOM     15  C   ALA A   1      33.894  -8.446 -23.925  0.00  0.00    +0.206 C 
BRANCH  13  17
ATOM     16  OXT ALA A   1      30.981  -9.428 -22.823  0.00  0.00    -0.248 OA
ATOM     17  C   ALA A   1      31.638  -9.424 -21.792  0.00  0.00    +0.332 C 
BRANCH  17  18
ATOM     18  O   ALA A   1      31.306 -10.112 -20.673  0.00  0.00    -0.479 OA
ATOM     19  H   ALA A   1      31.935 -10.223 -19.988  0.00  0.00    +0.295 HD
ENDBRANCH  17  18
ENDBRANCH  13  17
ENDBRANCH   4  15
ENDBRANCH   1   4
BRANCH   1  20
ATOM     20  C   UNK A   0      33.434 -12.107 -24.068  0.00  0.00    +0.041 C 
BRANCH  20  22
ATOM     21  O   UNK A   0      33.766 -12.388 -26.470  0.00  0.00    -0.252 OA
ATOM     22  C   UNK A   0      33.352 -12.825 -25.404  0.00  0.00    +0.297 C 
BRANCH  22  23
ATOM     23  O   UNK A   0      32.748 -14.039 -25.224  0.00  0.00    -0.450 OA
BRANCH  23  24
ATOM     24  C   UNK A   0      33.069 -15.039 -26.196  0.00  0.00    +0.208 C 
ATOM     25  C   UNK A   0      33.888 -16.125 -25.533  0.00  0.00    +0.051 C 
ENDBRANCH  23  24
ENDBRANCH  22  23
ENDBRANCH  20  22
BRANCH  20  26
ATOM     26  C   UNK A   0      32.390 -12.690 -23.102  0.00  0.00    -0.006 C 
BRANCH  26  27
ATOM     27  C   UNK A   0      32.920 -13.063 -21.711  0.00  0.00    +0.025 C 
BRANCH  27  28
ATOM     28  C   UNK A   0      33.356 -14.502 -21.593  0.00  0.00    -0.022 C 
ATOM     29  C   UNK A   0      32.540 -15.409 -20.935  0.00  0.00    -0.004 C 
ATOM     30  C   UNK A   0      34.567 -14.894 -22.144  0.00  0.00    -0.004 C 
ATOM     31  C   UNK A   0      32.944 -16.740 -20.825  0.00  0.00    -0.000 C 
ATOM     32  C   UNK A   0      34.970 -16.225 -22.036  0.00  0.00    -0.000 C 
ATOM     33  C   UNK A   0      34.159 -17.148 -21.376  0.00  0.00    -0.000 C 
ENDBRANCH  27  28
ENDBRANCH  26  27
ENDBRANCH  20  26
ENDBRANCH   1  20
TORSDOF 11
ENDMDL
MODEL 7
REMARK VINA RESULT:      -8.3      4.766      9.949
REMARK  Name = 5362129
REMARK  11 active torsions:
REMARK  status: ('A' for Active; 'I' for Inactive)
REMARK    1  A    between atoms: N_1  and  CA_4
REMARK    2  A    between atoms: N_1  and  C_20
REMARK    3  A    between atoms: CA_4  and  C_15
REMARK    4  A    between atoms: CA_13  and  C_17
REMARK    5  A    between atoms: C_17  and  O_18
REMARK    6  A    between atoms: C_20  and  C_22
REMARK    7  A    between atoms: C_20  and  C_26
REMARK    8  A    between atoms: C_22  and  O_23
REMARK    9  A    between atoms: O_23  and  C_24
REMARK   10  A    between atoms: C_26  and  C_27
REMARK   11  A    between atoms: C_27  and  C_28
REMARK                            x       y       z     vdW  Elec       q    Type
REMARK                         _______ _______ _______ _____ _____    ______ ____
ROOT
ATOM      1  N   ALA A   1      34.904 -19.855 -21.168  0.00  0.00    +0.399 N 
ATOM      2  H1  ALA A   1      35.312 -20.564 -21.775  0.00  0.00    -0.083 HD
ATOM      3  H2  ALA A   1      33.991 -19.564 -21.518  0.00  0.00    -0.083 HD
ENDROOT
BRANCH   1   4
ATOM      4  CA  ALA A   1      35.778 -18.694 -21.141  0.00  0.00    +0.018 C 
ATOM      5  CB  ALA A   1      37.225 -19.104 -20.949  0.00  0.00    -0.014 C 
BRANCH   4  15
ATOM      6  O   ALA A   1      35.962 -18.551 -23.508  0.00  0.00    -0.277 OA
ATOM      7  N   ALA A   1      35.067 -16.717 -22.419  0.00  0.00    -0.275 N 
ATOM      8  C   ALA A   1      34.542 -14.493 -23.132  0.00  0.00    +0.020 C 
ATOM      9  C   ALA A   1      34.994 -15.880 -23.612  0.00  0.00    +0.076 C 
ATOM     10  C   ALA A   1      34.683 -14.520 -21.611  0.00  0.00    +0.033 C 
ATOM     11  C   ALA A   1      33.119 -14.320 -23.655  0.00  0.00    +0.002 C 
ATOM     12  C   ALA A   1      33.935 -16.347 -24.618  0.00  0.00    +0.020 C 
ATOM     13  CA  ALA A   1      34.634 -15.996 -21.228  0.00  0.00    +0.174 C 
ATOM     14  C   ALA A   1      33.136 -15.097 -24.960  0.00  0.00    +0.002 C 
ATOM     15  C   ALA A   1      35.614 -17.992 -22.465  0.00  0.00    +0.206 C 
BRANCH  13  17
ATOM     16  OXT ALA A   1      32.817 -17.570 -20.972  0.00  0.00    -0.248 OA
ATOM     17  C   ALA A   1      33.241 -16.427 -20.879  0.00  0.00    +0.332 C 
BRANCH  17  18
ATOM     18  O   ALA A   1      32.508 -15.373 -20.444  0.00  0.00    -0.479 OA
ATOM     19  H   ALA A   1      31.708 -15.520 -19.981  0.00  0.00    +0.295 HD
ENDBRANCH  17  18
ENDBRANCH  13  17
ENDBRANCH   4  15
ENDBRANCH   1   4
BRANCH   1  20
ATOM     20  C   UNK A   0      34.732 -20.412 -19.832  0.00  0.00    +0.041 C 
BRANCH  20  22
ATOM     21  O   UNK A   0      36.329 -22.194 -20.320  0.00  0.00    -0.252 OA
ATOM     22  C   UNK A   0      35.915 -21.326 -19.561  0.00  0.00    +0.297 C 
BRANCH  22  23
ATOM     23  O   UNK A   0      36.446 -21.021 -18.338  0.00  0.00    -0.450 OA
BRANCH  23  24
ATOM     24  C   UNK A   0      37.102 -22.100 -17.663  0.00  0.00    +0.208 C 
ATOM     25  C   UNK A   0      37.264 -21.740 -16.202  0.00  0.00    +0.051 C 
ENDBRANCH  23  24
ENDBRANCH  22  23
ENDBRANCH  20  22
BRANCH  20  26
ATOM     26  C   UNK A   0      33.424 -21.210 -19.713  0.00  0.00    -0.006 C 
BRANCH  26  27
ATOM     27  C   UNK A   0      33.577 -22.648 -19.200  0.00  0.00    +0.025 C 
BRANCH  27  28
ATOM     28  C   UNK A   0      33.086 -22.845 -17.788  0.00  0.00    -0.022 C 
ATOM     29  C   UNK A   0      31.756 -22.597 -17.488  0.00  0.00    -0.004 C 
ATOM     30  C   UNK A   0      33.974 -23.272 -16.812  0.00  0.00    -0.004 C 
ATOM     31  C   UNK A   0      31.302 -22.779 -16.182  0.00  0.00    -0.000 C 
ATOM     32  C   UNK A   0      33.520 -23.455 -15.506  0.00  0.00    -0.000 C 
ATOM     33  C   UNK A   0      32.184 -23.209 -15.191  0.00  0.00    -0.000 C 
ENDBRANCH  27  28
ENDBRANCH  26  27
ENDBRANCH  20  26
ENDBRANCH   1  20
TORSDOF 11
ENDMDL
MODEL 8
REMARK VINA RESULT:      -8.2      2.047      4.931
REMARK  Name = 5362129
REMARK  11 active torsions:
REMARK  status: ('A' for Active; 'I' for Inactive)
REMARK    1  A    between atoms: N_1  and  CA_4
REMARK    2  A    between atoms: N_1  and  C_20
REMARK    3  A    between atoms: CA_4  and  C_15
REMARK    4  A    between atoms: CA_13  and  C_17
REMARK    5  A    between atoms: C_17  and  O_18
REMARK    6  A    between atoms: C_20  and  C_22
REMARK    7  A    between atoms: C_20  and  C_26
REMARK    8  A    between atoms: C_22  and  O_23
REMARK    9  A    between atoms: O_23  and  C_24
REMARK   10  A    between atoms: C_26  and  C_27
REMARK   11  A    between atoms: C_27  and  C_28
REMARK                            x       y       z     vdW  Elec       q    Type
REMARK                         _______ _______ _______ _____ _____    ______ ____
ROOT
ATOM      1  N   ALA A   1      35.259 -22.029 -17.055  0.00  0.00    +0.399 N 
ATOM      2  H1  ALA A   1      35.580 -21.151 -17.461  0.00  0.00    -0.083 HD
ATOM      3  H2  ALA A   1      34.578 -21.855 -16.315  0.00  0.00    -0.083 HD
ENDROOT
BRANCH   1   4
ATOM      4  CA  ALA A   1      36.395 -22.730 -16.480  0.00  0.00    +0.018 C 
ATOM      5  CB  ALA A   1      37.699 -22.051 -16.851  0.00  0.00    -0.014 C 
BRANCH   4  15
ATOM      6  O   ALA A   1      35.469 -21.870 -14.465  0.00  0.00    -0.277 OA
ATOM      7  N   ALA A   1      36.918 -23.663 -14.266  0.00  0.00    -0.275 N 
ATOM      8  C   ALA A   1      37.979 -24.701 -12.389  0.00  0.00    +0.020 C 
ATOM      9  C   ALA A   1      36.939 -23.651 -12.807  0.00  0.00    +0.076 C 
ATOM     10  C   ALA A   1      38.745 -25.049 -13.663  0.00  0.00    +0.033 C 
ATOM     11  C   ALA A   1      37.182 -25.846 -11.770  0.00  0.00    +0.002 C 
ATOM     12  C   ALA A   1      35.612 -24.092 -12.176  0.00  0.00    +0.020 C 
ATOM     13  CA  ALA A   1      37.809 -24.680 -14.809  0.00  0.00    +0.174 C 
ATOM     14  C   ALA A   1      35.997 -25.136 -11.137  0.00  0.00    +0.002 C 
ATOM     15  C   ALA A   1      36.211 -22.708 -14.984  0.00  0.00    +0.206 C 
BRANCH  13  17
ATOM     16  OXT ALA A   1      35.773 -25.862 -15.362  0.00  0.00    -0.248 OA
ATOM     17  C   ALA A   1      36.991 -25.856 -15.252  0.00  0.00    +0.332 C 
BRANCH  17  18
ATOM     18  O   ALA A   1      37.786 -26.922 -15.514  0.00  0.00    -0.479 OA
ATOM     19  H   ALA A   1      37.835 -27.630 -14.904  0.00  0.00    +0.295 HD
ENDBRANCH  17  18
ENDBRANCH  13  17
ENDBRANCH   4  15
ENDBRANCH   1   4
BRANCH   1  20
ATOM     20  C   UNK A   0      34.620 -22.829 -18.093  0.00  0.00    +0.041 C 
BRANCH  20  22
ATOM     21  O   UNK A   0      35.780 -22.099 -20.114  0.00  0.00    -0.252 OA
ATOM     22  C   UNK A   0      34.780 -22.084 -19.408  0.00  0.00    +0.297 C 
BRANCH  22  23
ATOM     23  O   UNK A   0      33.627 -21.401 -19.678  0.00  0.00    -0.450 OA
BRANCH  23  24
ATOM     24  C   UNK A   0      33.779 -20.224 -20.479  0.00  0.00    +0.208 C 
ATOM     25  C   UNK A   0      32.419 -19.602 -20.706  0.00  0.00    +0.051 C 
ENDBRANCH  23  24
ENDBRANCH  22  23
ENDBRANCH  20  22
BRANCH  20  26
ATOM     26  C   UNK A   0      33.128 -23.051 -17.802  0.00  0.00    -0.006 C 
BRANCH  26  27
ATOM     27  C   UNK A   0      32.779 -23.310 -16.330  0.00  0.00    +0.025 C 
BRANCH  27  28
ATOM     28  C   UNK A   0      31.302 -23.481 -16.077  0.00  0.00    -0.022 C 
ATOM     29  C   UNK A   0      30.862 -24.542 -15.300  0.00  0.00    -0.004 C 
ATOM     30  C   UNK A   0      30.408 -22.575 -16.626  0.00  0.00    -0.004 C 
ATOM     31  C   UNK A   0      29.496 -24.700 -15.066  0.00  0.00    -0.000 C 
ATOM     32  C   UNK A   0      29.042 -22.732 -16.392  0.00  0.00    -0.000 C 
ATOM     33  C   UNK A   0      28.586 -23.794 -15.612  0.00  0.00    -0.000 C 
ENDBRANCH  27  28
ENDBRANCH  26  27
ENDBRANCH  20  26
ENDBRANCH   1  20
TORSDOF 11
ENDMDL
MODEL 9
REMARK VINA RESULT:      -8.1      9.994     14.863
REMARK  Name = 5362129
REMARK  11 active torsions:
REMARK  status: ('A' for Active; 'I' for Inactive)
REMARK    1  A    between atoms: N_1  and  CA_4
REMARK    2  A    between atoms: N_1  and  C_20
REMARK    3  A    between atoms: CA_4  and  C_15
REMARK    4  A    between atoms: CA_13  and  C_17
REMARK    5  A    between atoms: C_17  and  O_18
REMARK    6  A    between atoms: C_20  and  C_22
REMARK    7  A    between atoms: C_20  and  C_26
REMARK    8  A    between atoms: C_22  and  O_23
REMARK    9  A    between atoms: O_23  and  C_24
REMARK   10  A    between atoms: C_26  and  C_27
REMARK   11  A    between atoms: C_27  and  C_28
REMARK                            x       y       z     vdW  Elec       q    Type
REMARK                         _______ _______ _______ _____ _____    ______ ____
ROOT
ATOM      1  N   ALA A   1      33.037 -13.354 -23.106  0.00  0.00    +0.399 N 
ATOM      2  H1  ALA A   1      32.437 -13.738 -23.835  0.00  0.00    -0.083 HD
ATOM      3  H2  ALA A   1      32.565 -13.384 -22.201  0.00  0.00    -0.083 HD
ENDROOT
BRANCH   1   4
ATOM      4  CA  ALA A   1      33.342 -11.969 -23.421  0.00  0.00    +0.018 C 
ATOM      5  CB  ALA A   1      32.942 -11.633 -24.844  0.00  0.00    -0.014 C 
BRANCH   4  15
ATOM      6  O   ALA A   1      32.020 -11.636 -21.472  0.00  0.00    -0.277 OA
ATOM      7  N   ALA A   1      32.495  -9.762 -22.743  0.00  0.00    -0.275 N 
ATOM      8  C   ALA A   1      31.671  -7.516 -22.707  0.00  0.00    +0.020 C 
ATOM      9  C   ALA A   1      31.650  -8.861 -21.967  0.00  0.00    +0.076 C 
ATOM     10  C   ALA A   1      32.292  -7.808 -24.072  0.00  0.00    +0.033 C 
ATOM     11  C   ALA A   1      32.468  -6.568 -21.815  0.00  0.00    +0.002 C 
ATOM     12  C   ALA A   1      32.191  -8.580 -20.560  0.00  0.00    +0.020 C 
ATOM     13  CA  ALA A   1      33.107  -9.083 -23.879  0.00  0.00    +0.174 C 
ATOM     14  C   ALA A   1      32.150  -7.065 -20.415  0.00  0.00    +0.002 C 
ATOM     15  C   ALA A   1      32.560 -11.118 -22.452  0.00  0.00    +0.206 C 
BRANCH  13  17
ATOM     16  OXT ALA A   1      34.916  -7.808 -22.906  0.00  0.00    -0.248 OA
ATOM     17  C   ALA A   1      34.536  -8.776 -23.548  0.00  0.00    +0.332 C 
BRANCH  17  18
ATOM     18  O   ALA A   1      35.360  -9.722 -24.062  0.00  0.00    -0.479 OA
ATOM     19  H   ALA A   1      35.008 -10.415 -24.584  0.00  0.00    +0.295 HD
ENDBRANCH  17  18
ENDBRANCH  13  17
ENDBRANCH   4  15
ENDBRANCH   1   4
BRANCH   1  20
ATOM     20  C   UNK A   0      34.254 -14.153 -23.020  0.00  0.00    +0.041 C 
BRANCH  20  22
ATOM     21  O   UNK A   0      35.024 -16.079 -24.309  0.00  0.00    -0.252 OA
ATOM     22  C   UNK A   0      34.194 -15.198 -24.122  0.00  0.00    +0.297 C 
BRANCH  22  23
ATOM     23  O   UNK A   0      33.065 -14.999 -24.867  0.00  0.00    -0.450 OA
BRANCH  23  24
ATOM     24  C   UNK A   0      33.175 -15.328 -26.256  0.00  0.00    +0.208 C 
ATOM     25  C   UNK A   0      33.207 -14.050 -27.064  0.00  0.00    +0.051 C 
ENDBRANCH  23  24
ENDBRANCH  22  23
ENDBRANCH  20  22
BRANCH  20  26
ATOM     26  C   UNK A   0      34.383 -14.847 -21.656  0.00  0.00    -0.006 C 
BRANCH  26  27
ATOM     27  C   UNK A   0      33.387 -15.986 -21.402  0.00  0.00    +0.025 C 
BRANCH  27  28
ATOM     28  C   UNK A   0      34.038 -17.334 -21.216  0.00  0.00    -0.022 C 
ATOM     29  C   UNK A   0      33.245 -18.450 -20.999  0.00  0.00    -0.004 C 
ATOM     30  C   UNK A   0      35.420 -17.434 -21.264  0.00  0.00    -0.004 C 
ATOM     31  C   UNK A   0      33.848 -19.696 -20.827  0.00  0.00    -0.000 C 
ATOM     32  C   UNK A   0      36.024 -18.680 -21.092  0.00  0.00    -0.000 C 
ATOM     33  C   UNK A   0      35.238 -19.811 -20.873  0.00  0.00    -0.000 C 
ENDBRANCH  27  28
ENDBRANCH  26  27
ENDBRANCH  20  26
ENDBRANCH   1  20
TORSDOF 11
ENDMDL
