MODEL 1
REMARK VINA RESULT:      -9.9      0.000      0.000
REMARK  Name = 46937031
REMARK  3 active torsions:
REMARK  status: ('A' for Active; 'I' for Inactive)
REMARK    1  A    between atoms: N_4  and  C_31
REMARK    2  A    between atoms: C_16  and  C_24
REMARK    3  A    between atoms: C_28  and  C_30
REMARK                            x       y       z     vdW  Elec       q    Type
REMARK                         _______ _______ _______ _____ _____    ______ ____
ROOT
ATOM      1  F   UNL     1      32.403 -20.726 -19.696  0.00  0.00    -0.203 F 
ATOM      2  F   UNL     1      37.823 -21.035 -20.097  0.00  0.00    -0.204 F 
ATOM      3  O   UNL     1      33.115 -14.582 -25.616  0.00  0.00    -0.270 OA
ATOM      4  N   UNL     1      33.726 -18.743 -21.266  0.00  0.00    -0.291 N 
ATOM      5  N   UNL     1      34.265 -15.371 -23.754  0.00  0.00    -0.276 N 
ATOM      6  N   UNL     1      35.955 -17.914 -22.118  0.00  0.00    -0.242 NA
ATOM      7  N   UNL     1      37.931 -18.953 -21.597  0.00  0.00    -0.343 N 
ATOM      8  C   UNL     1      34.494 -17.764 -22.058  0.00  0.00    +0.148 C 
ATOM      9  C   UNL     1      34.016 -17.819 -23.538  0.00  0.00    +0.063 C 
ATOM     10  C   UNL     1      34.254 -16.341 -21.480  0.00  0.00    +0.063 C 
ATOM     11  C   UNL     1      34.783 -15.224 -22.388  0.00  0.00    +0.097 C 
ATOM     12  C   UNL     1      34.563 -16.662 -24.377  0.00  0.00    +0.097 C 
ATOM     13  C   UNL     1      34.408 -19.766 -20.614  0.00  0.00    +0.082 C 
ATOM     14  C   UNL     1      35.808 -19.876 -20.695  0.00  0.00    +0.074 C 
ATOM     15  C   UNL     1      36.561 -18.873 -21.499  0.00  0.00    +0.126 C 
ATOM     16  C   UNL     1      33.535 -14.425 -24.468  0.00  0.00    +0.247 C 
ATOM     17  C   UNL     1      33.737 -20.739 -19.841  0.00  0.00    +0.154 C 
ATOM     18  C   UNL     1      36.490 -20.913 -20.031  0.00  0.00    +0.144 C 
ATOM     19  C   UNL     1      34.414 -21.767 -19.182  0.00  0.00    +0.033 C 
ATOM     20  C   UNL     1      35.793 -21.853 -19.279  0.00  0.00    +0.032 C 
ATOM     21  H   UNL     1      38.426 -18.289 -22.128  0.00  0.00    +0.144 HD
ATOM     22  H   UNL     1      38.416 -19.675 -21.134  0.00  0.00    +0.144 HD
ENDROOT
BRANCH  16  24
ATOM     23  N   UNL     1      33.587 -10.759 -23.790  0.00  0.00    -0.238 NA
ATOM     24  C   UNL     1      33.242 -13.137 -23.806  0.00  0.00    +0.051 C 
ATOM     25  C   UNL     1      32.371 -13.112 -22.592  0.00  0.00    +0.040 C 
ATOM     26  C   UNL     1      33.759 -12.014 -24.323  0.00  0.00    +0.099 C 
ATOM     27  C   UNL     1      31.748 -11.732 -22.399  0.00  0.00    +0.061 C 
ATOM     28  C   UNL     1      32.672 -10.653 -22.881  0.00  0.00    +0.127 C 
BRANCH  28  30
ATOM     29  N   UNL     1      32.459  -8.231 -21.973  0.00  0.00    -0.190 NA
ATOM     30  C   UNL     1      32.555  -9.313 -22.379  0.00  0.00    +0.115 C 
ENDBRANCH  28  30
ENDBRANCH  16  24
BRANCH   4  31
ATOM     31  C   UNL     1      32.270 -18.657 -21.166  0.00  0.00    +0.092 C 
ATOM     32  C   UNL     1      31.865 -17.317 -20.586  0.00  0.00    +0.023 C 
ENDBRANCH   4  31
TORSDOF 3
ENDMDL
MODEL 2
REMARK VINA RESULT:      -9.8      3.802      8.668
REMARK  Name = 46937031
REMARK  3 active torsions:
REMARK  status: ('A' for Active; 'I' for Inactive)
REMARK    1  A    between atoms: N_4  and  C_31
REMARK    2  A    between atoms: C_16  and  C_24
REMARK    3  A    between atoms: C_28  and  C_30
REMARK                            x       y       z     vdW  Elec       q    Type
REMARK                         _______ _______ _______ _____ _____    ______ ____
ROOT
ATOM      1  F   UNL     1      34.108 -13.788 -21.613  0.00  0.00    -0.203 F 
ATOM      2  F   UNL     1      33.606 -16.182 -26.476  0.00  0.00    -0.204 F 
ATOM      3  O   UNL     1      36.968 -21.434 -19.034  0.00  0.00    -0.270 OA
ATOM      4  N   UNL     1      34.525 -16.608 -21.745  0.00  0.00    -0.291 N 
ATOM      5  N   UNL     1      35.379 -20.549 -20.485  0.00  0.00    -0.276 N 
ATOM      6  N   UNL     1      34.571 -18.633 -23.254  0.00  0.00    -0.242 NA
ATOM      7  N   UNL     1      34.142 -18.498 -25.503  0.00  0.00    -0.343 N 
ATOM      8  C   UNL     1      34.725 -18.060 -21.910  0.00  0.00    +0.148 C 
ATOM      9  C   UNL     1      36.171 -18.428 -21.471  0.00  0.00    +0.063 C 
ATOM     10  C   UNL     1      33.697 -18.820 -21.024  0.00  0.00    +0.063 C 
ATOM     11  C   UNL     1      33.992 -20.320 -20.909  0.00  0.00    +0.097 C 
ATOM     12  C   UNL     1      36.386 -19.939 -21.354  0.00  0.00    +0.097 C 
ATOM     13  C   UNL     1      34.204 -15.841 -22.861  0.00  0.00    +0.082 C 
ATOM     14  C   UNL     1      34.066 -16.426 -24.132  0.00  0.00    +0.074 C 
ATOM     15  C   UNL     1      34.270 -17.895 -24.272  0.00  0.00    +0.126 C 
ATOM     16  C   UNL     1      35.793 -21.261 -19.361  0.00  0.00    +0.247 C 
ATOM     17  C   UNL     1      34.001 -14.446 -22.777  0.00  0.00    +0.154 C 
ATOM     18  C   UNL     1      33.741 -15.643 -25.256  0.00  0.00    +0.144 C 
ATOM     19  C   UNL     1      33.679 -13.670 -23.892  0.00  0.00    +0.033 C 
ATOM     20  C   UNL     1      33.549 -14.270 -25.133  0.00  0.00    +0.032 C 
ATOM     21  H   UNL     1      34.277 -19.468 -25.592  0.00  0.00    +0.144 HD
ATOM     22  H   UNL     1      33.913 -17.957 -26.293  0.00  0.00    +0.144 HD
ENDROOT
BRANCH  16  24
ATOM     23  N   UNL     1      32.428 -22.416 -18.247  0.00  0.00    -0.238 NA
ATOM     24  C   UNL     1      34.751 -21.854 -18.499  0.00  0.00    +0.051 C 
ATOM     25  C   UNL     1      35.121 -22.384 -17.152  0.00  0.00    +0.040 C 
ATOM     26  C   UNL     1      33.492 -21.915 -18.956  0.00  0.00    +0.099 C 
ATOM     27  C   UNL     1      34.100 -23.414 -16.674  0.00  0.00    +0.061 C 
ATOM     28  C   UNL     1      32.726 -23.083 -17.179  0.00  0.00    +0.127 C 
BRANCH  28  30
ATOM     29  N   UNL     1      30.620 -23.967 -15.948  0.00  0.00    -0.190 NA
ATOM     30  C   UNL     1      31.561 -23.572 -16.498  0.00  0.00    +0.115 C 
ENDBRANCH  28  30
ENDBRANCH  16  24
BRANCH   4  31
ATOM     31  C   UNL     1      34.665 -15.971 -20.437  0.00  0.00    +0.092 C 
ATOM     32  C   UNL     1      33.302 -15.597 -19.889  0.00  0.00    +0.023 C 
ENDBRANCH   4  31
TORSDOF 3
ENDMDL
MODEL 3
REMARK VINA RESULT:      -9.4      3.652      8.613
REMARK  Name = 46937031
REMARK  3 active torsions:
REMARK  status: ('A' for Active; 'I' for Inactive)
REMARK    1  A    between atoms: N_4  and  C_31
REMARK    2  A    between atoms: C_16  and  C_24
REMARK    3  A    between atoms: C_28  and  C_30
REMARK                            x       y       z     vdW  Elec       q    Type
REMARK                         _______ _______ _______ _____ _____    ______ ____
ROOT
ATOM      1  F   UNL     1      33.544 -13.336 -21.543  0.00  0.00    -0.203 F 
ATOM      2  F   UNL     1      33.539 -15.329 -26.609  0.00  0.00    -0.204 F 
ATOM      3  O   UNL     1      37.058 -20.855 -19.443  0.00  0.00    -0.270 OA
ATOM      4  N   UNL     1      34.261 -16.078 -21.883  0.00  0.00    -0.291 N 
ATOM      5  N   UNL     1      35.459 -20.010 -20.906  0.00  0.00    -0.276 N 
ATOM      6  N   UNL     1      34.594 -17.947 -23.550  0.00  0.00    -0.242 NA
ATOM      7  N   UNL     1      34.266 -17.656 -25.801  0.00  0.00    -0.343 N 
ATOM      8  C   UNL     1      34.620 -17.482 -22.156  0.00  0.00    +0.148 C 
ATOM      9  C   UNL     1      36.073 -17.741 -21.665  0.00  0.00    +0.063 C 
ATOM     10  C   UNL     1      33.634 -18.416 -21.398  0.00  0.00    +0.063 C 
ATOM     11  C   UNL     1      34.079 -19.884 -21.391  0.00  0.00    +0.097 C 
ATOM     12  C   UNL     1      36.439 -19.227 -21.661  0.00  0.00    +0.097 C 
ATOM     13  C   UNL     1      33.918 -15.251 -22.949  0.00  0.00    +0.082 C 
ATOM     14  C   UNL     1      33.905 -15.732 -24.271  0.00  0.00    +0.074 C 
ATOM     15  C   UNL     1      34.269 -17.156 -24.519  0.00  0.00    +0.126 C 
ATOM     16  C   UNL     1      35.889 -20.773 -19.823  0.00  0.00    +0.247 C 
ATOM     17  C   UNL     1      33.565 -13.896 -22.762  0.00  0.00    +0.154 C 
ATOM     18  C   UNL     1      33.556 -14.889 -25.343  0.00  0.00    +0.144 C 
ATOM     19  C   UNL     1      33.219 -13.061 -23.826  0.00  0.00    +0.033 C 
ATOM     20  C   UNL     1      33.216 -13.559 -25.117  0.00  0.00    +0.032 C 
ATOM     21  H   UNL     1      34.507 -18.597 -25.963  0.00  0.00    +0.144 HD
ATOM     22  H   UNL     1      34.022 -17.074 -26.556  0.00  0.00    +0.144 HD
ENDROOT
BRANCH  16  24
ATOM     23  N   UNL     1      34.402 -22.941 -17.179  0.00  0.00    -0.238 NA
ATOM     24  C   UNL     1      34.873 -21.542 -19.076  0.00  0.00    +0.051 C 
ATOM     25  C   UNL     1      33.466 -21.588 -19.577  0.00  0.00    +0.040 C 
ATOM     26  C   UNL     1      35.239 -22.172 -17.951  0.00  0.00    +0.099 C 
ATOM     27  C   UNL     1      32.497 -21.923 -18.445  0.00  0.00    +0.061 C 
ATOM     28  C   UNL     1      33.139 -22.835 -17.440  0.00  0.00    +0.127 C 
BRANCH  28  30
ATOM     29  N   UNL     1      31.685 -24.338 -15.905  0.00  0.00    -0.190 NA
ATOM     30  C   UNL     1      32.335 -23.666 -16.591  0.00  0.00    +0.115 C 
ENDBRANCH  28  30
ENDBRANCH  16  24
BRANCH   4  31
ATOM     31  C   UNL     1      34.268 -15.548 -20.521  0.00  0.00    +0.092 C 
ATOM     32  C   UNL     1      32.853 -15.476 -19.982  0.00  0.00    +0.023 C 
ENDBRANCH   4  31
TORSDOF 3
ENDMDL
MODEL 4
REMARK VINA RESULT:      -9.0      0.964      1.049
REMARK  Name = 46937031
REMARK  3 active torsions:
REMARK  status: ('A' for Active; 'I' for Inactive)
REMARK    1  A    between atoms: N_4  and  C_31
REMARK    2  A    between atoms: C_16  and  C_24
REMARK    3  A    between atoms: C_28  and  C_30
REMARK                            x       y       z     vdW  Elec       q    Type
REMARK                         _______ _______ _______ _____ _____    ______ ____
ROOT
ATOM      1  F   UNL     1      32.119 -21.332 -19.375  0.00  0.00    -0.203 F 
ATOM      2  F   UNL     1      37.539 -21.698 -19.027  0.00  0.00    -0.204 F 
ATOM      3  O   UNL     1      33.700 -15.763 -25.682  0.00  0.00    -0.270 OA
ATOM      4  N   UNL     1      33.668 -19.507 -20.931  0.00  0.00    -0.291 N 
ATOM      5  N   UNL     1      34.584 -16.382 -23.621  0.00  0.00    -0.276 N 
ATOM      6  N   UNL     1      36.002 -18.769 -21.552  0.00  0.00    -0.242 NA
ATOM      7  N   UNL     1      37.876 -19.765 -20.682  0.00  0.00    -0.343 N 
ATOM      8  C   UNL     1      34.549 -18.609 -21.700  0.00  0.00    +0.148 C 
ATOM      9  C   UNL     1      34.268 -18.798 -23.218  0.00  0.00    +0.063 C 
ATOM     10  C   UNL     1      34.258 -17.137 -21.290  0.00  0.00    +0.063 C 
ATOM     11  C   UNL     1      34.920 -16.111 -22.217  0.00  0.00    +0.097 C 
ATOM     12  C   UNL     1      34.939 -17.725 -24.080  0.00  0.00    +0.097 C 
ATOM     13  C   UNL     1      34.242 -20.469 -20.103  0.00  0.00    +0.082 C 
ATOM     14  C   UNL     1      35.638 -20.591 -19.988  0.00  0.00    +0.074 C 
ATOM     15  C   UNL     1      36.506 -19.669 -20.774  0.00  0.00    +0.126 C 
ATOM     16  C   UNL     1      33.968 -15.502 -24.508  0.00  0.00    +0.247 C 
ATOM     17  C   UNL     1      33.459 -21.363 -19.340  0.00  0.00    +0.154 C 
ATOM     18  C   UNL     1      36.210 -21.566 -19.149  0.00  0.00    +0.144 C 
ATOM     19  C   UNL     1      34.028 -22.329 -18.507  0.00  0.00    +0.033 C 
ATOM     20  C   UNL     1      35.405 -22.429 -18.413  0.00  0.00    +0.032 C 
ATOM     21  H   UNL     1      38.448 -19.154 -21.202  0.00  0.00    +0.144 HD
ATOM     22  H   UNL     1      38.284 -20.442 -20.096  0.00  0.00    +0.144 HD
ENDROOT
BRANCH  16  24
ATOM     23  N   UNL     1      33.748 -11.783 -24.356  0.00  0.00    -0.238 NA
ATOM     24  C   UNL     1      33.612 -14.158 -24.010  0.00  0.00    +0.051 C 
ATOM     25  C   UNL     1      32.831 -14.022 -22.744  0.00  0.00    +0.040 C 
ATOM     26  C   UNL     1      33.991 -13.085 -24.720  0.00  0.00    +0.099 C 
ATOM     27  C   UNL     1      32.105 -12.680 -22.694  0.00  0.00    +0.061 C 
ATOM     28  C   UNL     1      32.895 -11.616 -23.398  0.00  0.00    +0.127 C 
BRANCH  28  30
ATOM     29  N   UNL     1      32.538  -9.111 -22.822  0.00  0.00    -0.190 NA
ATOM     30  C   UNL     1      32.697 -10.230 -23.079  0.00  0.00    +0.115 C 
ENDBRANCH  28  30
ENDBRANCH  16  24
BRANCH   4  31
ATOM     31  C   UNL     1      32.213 -19.407 -21.032  0.00  0.00    +0.092 C 
ATOM     32  C   UNL     1      31.758 -18.014 -20.643  0.00  0.00    +0.023 C 
ENDBRANCH   4  31
TORSDOF 3
ENDMDL
MODEL 5
REMARK VINA RESULT:      -8.3      1.313      1.824
REMARK  Name = 46937031
REMARK  3 active torsions:
REMARK  status: ('A' for Active; 'I' for Inactive)
REMARK    1  A    between atoms: N_4  and  C_31
REMARK    2  A    between atoms: C_16  and  C_24
REMARK    3  A    between atoms: C_28  and  C_30
REMARK                            x       y       z     vdW  Elec       q    Type
REMARK                         _______ _______ _______ _____ _____    ______ ____
ROOT
ATOM      1  F   UNL     1      32.147 -21.688 -19.447  0.00  0.00    -0.203 F 
ATOM      2  F   UNL     1      37.500 -21.735 -18.456  0.00  0.00    -0.204 F 
ATOM      3  O   UNL     1      34.208 -16.544 -25.972  0.00  0.00    -0.270 OA
ATOM      4  N   UNL     1      33.785 -19.908 -20.961  0.00  0.00    -0.291 N 
ATOM      5  N   UNL     1      34.871 -16.954 -23.779  0.00  0.00    -0.276 N 
ATOM      6  N   UNL     1      36.141 -19.096 -21.373  0.00  0.00    -0.242 NA
ATOM      7  N   UNL     1      37.943 -19.919 -20.217  0.00  0.00    -0.343 N 
ATOM      8  C   UNL     1      34.710 -19.026 -21.697  0.00  0.00    +0.148 C 
ATOM      9  C   UNL     1      34.618 -19.345 -23.217  0.00  0.00    +0.063 C 
ATOM     10  C   UNL     1      34.307 -17.545 -21.446  0.00  0.00    +0.063 C 
ATOM     11  C   UNL     1      35.027 -16.559 -22.374  0.00  0.00    +0.097 C 
ATOM     12  C   UNL     1      35.337 -18.308 -24.082  0.00  0.00    +0.097 C 
ATOM     13  C   UNL     1      34.300 -20.771 -19.998  0.00  0.00    +0.082 C 
ATOM     14  C   UNL     1      35.678 -20.809 -19.715  0.00  0.00    +0.074 C 
ATOM     15  C   UNL     1      36.590 -19.905 -20.470  0.00  0.00    +0.126 C 
ATOM     16  C   UNL     1      34.325 -16.180 -24.801  0.00  0.00    +0.247 C 
ATOM     17  C   UNL     1      33.474 -21.645 -19.257  0.00  0.00    +0.154 C 
ATOM     18  C   UNL     1      36.190 -21.684 -18.739  0.00  0.00    +0.144 C 
ATOM     19  C   UNL     1      33.984 -22.511 -18.289  0.00  0.00    +0.033 C 
ATOM     20  C   UNL     1      35.343 -22.530 -18.030  0.00  0.00    +0.032 C 
ATOM     21  H   UNL     1      38.543 -19.321 -20.717  0.00  0.00    +0.144 HD
ATOM     22  H   UNL     1      38.309 -20.526 -19.534  0.00  0.00    +0.144 HD
ENDROOT
BRANCH  16  24
ATOM     23  N   UNL     1      33.466 -13.204 -22.724  0.00  0.00    -0.238 NA
ATOM     24  C   UNL     1      33.854 -14.822 -24.459  0.00  0.00    +0.051 C 
ATOM     25  C   UNL     1      33.355 -13.920 -25.540  0.00  0.00    +0.040 C 
ATOM     26  C   UNL     1      33.898 -14.427 -23.179  0.00  0.00    +0.099 C 
ATOM     27  C   UNL     1      33.449 -12.457 -25.113  0.00  0.00    +0.061 C 
ATOM     28  C   UNL     1      33.236 -12.314 -23.634  0.00  0.00    +0.127 C 
BRANCH  28  30
ATOM     29  N   UNL     1      32.432 -10.060 -22.629  0.00  0.00    -0.190 NA
ATOM     30  C   UNL     1      32.792 -11.067 -23.079  0.00  0.00    +0.115 C 
ENDBRANCH  28  30
ENDBRANCH  16  24
BRANCH   4  31
ATOM     31  C   UNL     1      32.350 -19.894 -21.235  0.00  0.00    +0.092 C 
ATOM     32  C   UNL     1      31.732 -18.610 -20.718  0.00  0.00    +0.023 C 
ENDBRANCH   4  31
TORSDOF 3
ENDMDL
MODEL 6
REMARK VINA RESULT:      -8.1      4.039      9.484
REMARK  Name = 46937031
REMARK  3 active torsions:
REMARK  status: ('A' for Active; 'I' for Inactive)
REMARK    1  A    between atoms: N_4  and  C_31
REMARK    2  A    between atoms: C_16  and  C_24
REMARK    3  A    between atoms: C_28  and  C_30
REMARK                            x       y       z     vdW  Elec       q    Type
REMARK                         _______ _______ _______ _____ _____    ______ ____
ROOT
ATOM      1  F   UNL     1      35.765  -8.123 -24.276  0.00  0.00    -0.203 F 
ATOM      2  F   UNL     1      30.764  -7.790 -22.150  0.00  0.00    -0.204 F 
ATOM      3  O   UNL     1      33.560 -16.178 -26.162  0.00  0.00    -0.270 OA
ATOM      4  N   UNL     1      34.242 -10.531 -24.100  0.00  0.00    -0.291 N 
ATOM      5  N   UNL     1      33.238 -14.618 -24.465  0.00  0.00    -0.276 N 
ATOM      6  N   UNL     1      32.044 -11.551 -23.387  0.00  0.00    -0.242 NA
ATOM      7  N   UNL     1      30.358 -10.307 -22.455  0.00  0.00    -0.343 N 
ATOM      8  C   UNL     1      33.381 -11.722 -23.972  0.00  0.00    +0.148 C 
ATOM      9  C   UNL     1      33.137 -12.328 -25.383  0.00  0.00    +0.063 C 
ATOM     10  C   UNL     1      34.091 -12.768 -23.066  0.00  0.00    +0.063 C 
ATOM     11  C   UNL     1      33.413 -14.143 -23.087  0.00  0.00    +0.097 C 
ATOM     12  C   UNL     1      32.481 -13.709 -25.327  0.00  0.00    +0.097 C 
ATOM     13  C   UNL     1      33.757  -9.299 -23.669  0.00  0.00    +0.082 C 
ATOM     14  C   UNL     1      32.470  -9.176 -23.114  0.00  0.00    +0.074 C 
ATOM     15  C   UNL     1      31.622 -10.395 -22.993  0.00  0.00    +0.126 C 
ATOM     16  C   UNL     1      33.726 -15.809 -24.998  0.00  0.00    +0.247 C 
ATOM     17  C   UNL     1      34.525  -8.118 -23.764  0.00  0.00    +0.154 C 
ATOM     18  C   UNL     1      31.988  -7.927 -22.681  0.00  0.00    +0.144 C 
ATOM     19  C   UNL     1      34.046  -6.879 -23.333  0.00  0.00    +0.033 C 
ATOM     20  C   UNL     1      32.775  -6.785 -22.791  0.00  0.00    +0.032 C 
ATOM     21  H   UNL     1      29.800 -11.113 -22.375  0.00  0.00    +0.144 HD
ATOM     22  H   UNL     1      30.014  -9.437 -22.147  0.00  0.00    +0.144 HD
ENDROOT
BRANCH  16  24
ATOM     23  N   UNL     1      35.516 -16.991 -21.947  0.00  0.00    -0.238 NA
ATOM     24  C   UNL     1      34.496 -16.699 -24.104  0.00  0.00    +0.051 C 
ATOM     25  C   UNL     1      34.920 -18.046 -24.590  0.00  0.00    +0.040 C 
ATOM     26  C   UNL     1      34.786 -16.276 -22.866  0.00  0.00    +0.099 C 
ATOM     27  C   UNL     1      35.182 -18.989 -23.418  0.00  0.00    +0.061 C 
ATOM     28  C   UNL     1      35.714 -18.237 -22.233  0.00  0.00    +0.127 C 
BRANCH  28  30
ATOM     29  N   UNL     1      37.101 -19.458 -20.411  0.00  0.00    -0.190 NA
ATOM     30  C   UNL     1      36.481 -18.913 -21.225  0.00  0.00    +0.115 C 
ENDBRANCH  28  30
ENDBRANCH  16  24
BRANCH   4  31
ATOM     31  C   UNL     1      35.582 -10.626 -24.675  0.00  0.00    +0.092 C 
ATOM     32  C   UNL     1      35.522 -10.423 -26.176  0.00  0.00    +0.023 C 
ENDBRANCH   4  31
TORSDOF 3
ENDMDL
