MODEL 1
REMARK VINA RESULT:      -8.2      0.000      0.000
REMARK  Name = 369976
REMARK  7 active torsions:
REMARK  status: ('A' for Active; 'I' for Inactive)
REMARK    1  A    between atoms: C_2  and  C_10
REMARK    2  A    between atoms: C_4  and  O_18
REMARK    3  A    between atoms: C_7  and  O_20
REMARK    4  A    between atoms: C_11  and  C_13
REMARK    5  A    between atoms: C_13  and  C_14
REMARK    6  A    between atoms: O_20  and  C_24
REMARK    7  A    between atoms: C_25  and  C_28
REMARK                            x       y       z     vdW  Elec       q    Type
REMARK                         _______ _______ _______ _____ _____    ______ ____
ROOT
ATOM      1  O   UNL     1      35.851 -25.088 -11.468  0.00  0.00    -0.353 OA
ATOM      2  C   UNL     1      35.201 -25.001 -13.864  0.00  0.00    +0.085 C 
ATOM      3  C   UNL     1      36.172 -24.585 -12.775  0.00  0.00    +0.125 C 
ATOM      4  C   UNL     1      35.755 -24.574 -15.241  0.00  0.00    +0.160 C 
ATOM      5  C   UNL     1      37.018 -25.639 -12.092  0.00  0.00    +0.169 C 
ATOM      6  C   UNL     1      36.645 -23.159 -12.783  0.00  0.00    +0.034 C 
ATOM      7  C   UNL     1      36.211 -23.107 -15.263  0.00  0.00    +0.198 C 
ATOM      8  C   UNL     1      37.218 -22.802 -14.152  0.00  0.00    +0.049 C 
ENDROOT
BRANCH   2  10
ATOM      9  O   UNL     1      33.149 -24.010 -14.824  0.00  0.00    -0.356 OA
ATOM     10  C   UNL     1      33.809 -24.464 -13.636  0.00  0.00    +0.122 C 
ATOM     11  C   UNL     1      32.594 -25.162 -14.176  0.00  0.00    +0.144 C 
ATOM     12  C   UNL     1      33.685 -23.538 -12.485  0.00  0.00    +0.032 C 
BRANCH  11  13
ATOM     13  C   UNL     1      31.251 -24.931 -13.595  0.00  0.00    +0.057 C 
BRANCH  13  14
ATOM     14  C   UNL     1      30.106 -25.040 -14.575  0.00  0.00    -0.032 C 
ATOM     15  C   UNL     1      29.506 -24.044 -15.255  0.00  0.00    -0.048 C 
ATOM     16  C   UNL     1      29.971 -22.622 -15.095  0.00  0.00    +0.026 C 
ATOM     17  C   UNL     1      28.367 -24.224 -16.218  0.00  0.00    +0.026 C 
ENDBRANCH  13  14
ENDBRANCH  11  13
ENDBRANCH   2  10
BRANCH   4  18
ATOM     18  O   UNL     1      36.870 -25.410 -15.564  0.00  0.00    -0.350 OA
ATOM     19  C   UNL     1      36.535 -26.782 -15.441  0.00  0.00    +0.174 C 
ENDBRANCH   4  18
BRANCH   7  20
ATOM     20  O   UNL     1      36.810 -22.798 -16.518  0.00  0.00    -0.436 OA
BRANCH  20  24
ATOM     21  O   UNL     1      34.780 -22.731 -17.590  0.00  0.00    -0.226 OA
ATOM     22  O   UNL     1      34.887 -21.097 -19.880  0.00  0.00    -0.273 OA
ATOM     23  N   UNL     1      36.623 -21.553 -18.391  0.00  0.00    -0.220 N 
ATOM     24  C   UNL     1      35.956 -22.393 -17.510  0.00  0.00    +0.407 C 
ATOM     25  C   UNL     1      36.053 -20.961 -19.516  0.00  0.00    +0.247 C 
ATOM     26  H   UNL     1      37.571 -21.364 -18.209  0.00  0.00    +0.161 HD
BRANCH  25  28
ATOM     27 CL   UNL     1      36.092 -18.807 -21.070  0.00  0.00    -0.103 Cl
ATOM     28  C   UNL     1      37.023 -20.082 -20.267  0.00  0.00    +0.180 C 
ENDBRANCH  25  28
ENDBRANCH  20  24
ENDBRANCH   7  20
TORSDOF 7
ENDMDL
MODEL 2
REMARK VINA RESULT:      -7.3      2.392      5.690
REMARK  Name = 369976
REMARK  7 active torsions:
REMARK  status: ('A' for Active; 'I' for Inactive)
REMARK    1  A    between atoms: C_2  and  C_10
REMARK    2  A    between atoms: C_4  and  O_18
REMARK    3  A    between atoms: C_7  and  O_20
REMARK    4  A    between atoms: C_11  and  C_13
REMARK    5  A    between atoms: C_13  and  C_14
REMARK    6  A    between atoms: O_20  and  C_24
REMARK    7  A    between atoms: C_25  and  C_28
REMARK                            x       y       z     vdW  Elec       q    Type
REMARK                         _______ _______ _______ _____ _____    ______ ____
ROOT
ATOM      1  O   UNL     1      39.066 -25.581 -14.466  0.00  0.00    -0.353 OA
ATOM      2  C   UNL     1      37.510 -23.674 -14.128  0.00  0.00    +0.085 C 
ATOM      3  C   UNL     1      37.768 -25.166 -14.015  0.00  0.00    +0.125 C 
ATOM      4  C   UNL     1      36.176 -23.326 -13.432  0.00  0.00    +0.160 C 
ATOM      5  C   UNL     1      38.827 -25.665 -13.055  0.00  0.00    +0.169 C 
ATOM      6  C   UNL     1      36.654 -26.088 -14.420  0.00  0.00    +0.034 C 
ATOM      7  C   UNL     1      35.027 -24.247 -13.869  0.00  0.00    +0.198 C 
ATOM      8  C   UNL     1      35.372 -25.725 -13.676  0.00  0.00    +0.049 C 
ENDROOT
BRANCH   2  10
ATOM      9  O   UNL     1      36.340 -23.470 -16.297  0.00  0.00    -0.356 OA
ATOM     10  C   UNL     1      37.535 -23.188 -15.556  0.00  0.00    +0.122 C 
ATOM     11  C   UNL     1      36.629 -22.090 -16.033  0.00  0.00    +0.144 C 
ATOM     12  C   UNL     1      38.786 -23.493 -16.291  0.00  0.00    +0.032 C 
BRANCH  11  13
ATOM     13  C   UNL     1      36.945 -21.304 -17.249  0.00  0.00    +0.057 C 
BRANCH  13  14
ATOM     14  C   UNL     1      36.057 -21.587 -18.439  0.00  0.00    -0.032 C 
ATOM     15  C   UNL     1      36.089 -20.998 -19.649  0.00  0.00    -0.048 C 
ATOM     16  C   UNL     1      37.104 -19.929 -19.952  0.00  0.00    +0.026 C 
ATOM     17  C   UNL     1      35.172 -21.329 -20.792  0.00  0.00    +0.026 C 
ENDBRANCH  13  14
ENDBRANCH  11  13
ENDBRANCH   2  10
BRANCH   4  18
ATOM     18  O   UNL     1      36.353 -23.445 -12.018  0.00  0.00    -0.350 OA
ATOM     19  C   UNL     1      37.419 -22.628 -11.564  0.00  0.00    +0.174 C 
ENDBRANCH   4  18
BRANCH   7  20
ATOM     20  O   UNL     1      33.851 -23.952 -13.120  0.00  0.00    -0.436 OA
BRANCH  20  24
ATOM     21  O   UNL     1      31.918 -25.188 -13.225  0.00  0.00    -0.226 OA
ATOM     22  O   UNL     1      30.396 -24.513 -15.495  0.00  0.00    -0.273 OA
ATOM     23  N   UNL     1      32.444 -23.605 -14.851  0.00  0.00    -0.220 N 
ATOM     24  C   UNL     1      32.664 -24.332 -13.689  0.00  0.00    +0.407 C 
ATOM     25  C   UNL     1      31.332 -23.738 -15.679  0.00  0.00    +0.247 C 
ATOM     26  H   UNL     1      33.127 -22.946 -15.110  0.00  0.00    +0.161 HD
BRANCH  25  28
ATOM     27 CL   UNL     1      32.961 -22.926 -17.612  0.00  0.00    -0.103 Cl
ATOM     28  C   UNL     1      31.365 -22.795 -16.856  0.00  0.00    +0.180 C 
ENDBRANCH  25  28
ENDBRANCH  20  24
ENDBRANCH   7  20
TORSDOF 7
ENDMDL
MODEL 3
REMARK VINA RESULT:      -7.0      3.071      5.872
REMARK  Name = 369976
REMARK  7 active torsions:
REMARK  status: ('A' for Active; 'I' for Inactive)
REMARK    1  A    between atoms: C_2  and  C_10
REMARK    2  A    between atoms: C_4  and  O_18
REMARK    3  A    between atoms: C_7  and  O_20
REMARK    4  A    between atoms: C_11  and  C_13
REMARK    5  A    between atoms: C_13  and  C_14
REMARK    6  A    between atoms: O_20  and  C_24
REMARK    7  A    between atoms: C_25  and  C_28
REMARK                            x       y       z     vdW  Elec       q    Type
REMARK                         _______ _______ _______ _____ _____    ______ ____
ROOT
ATOM      1  O   UNL     1      37.654 -26.133 -14.959  0.00  0.00    -0.353 OA
ATOM      2  C   UNL     1      36.684 -24.355 -13.521  0.00  0.00    +0.085 C 
ATOM      3  C   UNL     1      36.456 -25.564 -14.409  0.00  0.00    +0.125 C 
ATOM      4  C   UNL     1      35.358 -23.961 -12.834  0.00  0.00    +0.160 C 
ATOM      5  C   UNL     1      36.976 -26.916 -13.969  0.00  0.00    +0.169 C 
ATOM      6  C   UNL     1      35.307 -25.501 -15.375  0.00  0.00    +0.034 C 
ATOM      7  C   UNL     1      34.188 -23.864 -13.824  0.00  0.00    +0.198 C 
ATOM      8  C   UNL     1      34.018 -25.147 -14.640  0.00  0.00    +0.049 C 
ENDROOT
BRANCH   2  10
ATOM      9  O   UNL     1      38.307 -23.558 -15.208  0.00  0.00    -0.356 OA
ATOM     10  C   UNL     1      37.288 -23.192 -14.269  0.00  0.00    +0.122 C 
ATOM     11  C   UNL     1      37.094 -23.016 -15.748  0.00  0.00    +0.144 C 
ATOM     12  C   UNL     1      37.638 -22.027 -13.421  0.00  0.00    +0.032 C 
BRANCH  11  13
ATOM     13  C   UNL     1      37.267 -21.696 -16.397  0.00  0.00    +0.057 C 
BRANCH  13  14
ATOM     14  C   UNL     1      36.840 -21.636 -17.844  0.00  0.00    -0.032 C 
ATOM     15  C   UNL     1      35.657 -22.004 -18.371  0.00  0.00    -0.048 C 
ATOM     16  C   UNL     1      34.562 -22.539 -17.488  0.00  0.00    +0.026 C 
ATOM     17  C   UNL     1      35.298 -21.918 -19.827  0.00  0.00    +0.026 C 
ENDBRANCH  13  14
ENDBRANCH  11  13
ENDBRANCH   2  10
BRANCH   4  18
ATOM     18  O   UNL     1      35.046 -24.945 -11.844  0.00  0.00    -0.350 OA
ATOM     19  C   UNL     1      35.618 -24.611 -10.590  0.00  0.00    +0.174 C 
ENDBRANCH   4  18
BRANCH   7  20
ATOM     20  O   UNL     1      32.974 -23.604 -13.125  0.00  0.00    -0.436 OA
BRANCH  20  24
ATOM     21  O   UNL     1      31.479 -25.348 -13.134  0.00  0.00    -0.226 OA
ATOM     22  O   UNL     1      29.471 -24.962 -15.069  0.00  0.00    -0.273 OA
ATOM     23  N   UNL     1      31.258 -23.543 -14.589  0.00  0.00    -0.220 N 
ATOM     24  C   UNL     1      31.865 -24.270 -13.575  0.00  0.00    +0.407 C 
ATOM     25  C   UNL     1      30.106 -23.930 -15.272  0.00  0.00    +0.247 C 
ATOM     26  H   UNL     1      31.674 -22.690 -14.848  0.00  0.00    +0.161 HD
BRANCH  25  28
ATOM     27 CL   UNL     1      28.046 -22.369 -15.880  0.00  0.00    -0.103 Cl
ATOM     28  C   UNL     1      29.674 -22.921 -16.306  0.00  0.00    +0.180 C 
ENDBRANCH  25  28
ENDBRANCH  20  24
ENDBRANCH   7  20
TORSDOF 7
ENDMDL
MODEL 4
REMARK VINA RESULT:      -6.9     13.621     18.358
REMARK  Name = 369976
REMARK  7 active torsions:
REMARK  status: ('A' for Active; 'I' for Inactive)
REMARK    1  A    between atoms: C_2  and  C_10
REMARK    2  A    between atoms: C_4  and  O_18
REMARK    3  A    between atoms: C_7  and  O_20
REMARK    4  A    between atoms: C_11  and  C_13
REMARK    5  A    between atoms: C_13  and  C_14
REMARK    6  A    between atoms: O_20  and  C_24
REMARK    7  A    between atoms: C_25  and  C_28
REMARK                            x       y       z     vdW  Elec       q    Type
REMARK                         _______ _______ _______ _____ _____    ______ ____
ROOT
ATOM      1  O   UNL     1      34.406  -6.952 -24.105  0.00  0.00    -0.353 OA
ATOM      2  C   UNL     1      32.395  -7.179 -22.664  0.00  0.00    +0.085 C 
ATOM      3  C   UNL     1      33.539  -7.853 -23.399  0.00  0.00    +0.125 C 
ATOM      4  C   UNL     1      31.661  -8.218 -21.788  0.00  0.00    +0.160 C 
ATOM      5  C   UNL     1      34.962  -7.597 -22.952  0.00  0.00    +0.169 C 
ATOM      6  C   UNL     1      33.224  -9.115 -24.151  0.00  0.00    +0.034 C 
ATOM      7  C   UNL     1      31.309  -9.498 -22.562  0.00  0.00    +0.198 C 
ATOM      8  C   UNL     1      32.536 -10.120 -23.232  0.00  0.00    +0.049 C 
ENDROOT
BRANCH   2  10
ATOM      9  O   UNL     1      30.514  -5.599 -22.940  0.00  0.00    -0.356 OA
ATOM     10  C   UNL     1      31.445  -6.469 -23.596  0.00  0.00    +0.122 C 
ATOM     11  C   UNL     1      31.491  -4.981 -23.788  0.00  0.00    +0.144 C 
ATOM     12  C   UNL     1      30.834  -7.335 -24.633  0.00  0.00    +0.032 C 
BRANCH  11  13
ATOM     13  C   UNL     1      30.914  -4.341 -24.994  0.00  0.00    +0.057 C 
BRANCH  13  14
ATOM     14  C   UNL     1      31.807  -3.323 -25.664  0.00  0.00    -0.032 C 
ATOM     15  C   UNL     1      32.843  -3.555 -26.493  0.00  0.00    -0.048 C 
ATOM     16  C   UNL     1      33.224  -4.962 -26.865  0.00  0.00    +0.026 C 
ATOM     17  C   UNL     1      33.693  -2.490 -27.126  0.00  0.00    +0.026 C 
ENDBRANCH  13  14
ENDBRANCH  11  13
ENDBRANCH   2  10
BRANCH   4  18
ATOM     18  O   UNL     1      32.503  -8.563 -20.684  0.00  0.00    -0.350 OA
ATOM     19  C   UNL     1      32.715  -7.448 -19.833  0.00  0.00    +0.174 C 
ENDBRANCH   4  18
BRANCH   7  20
ATOM     20  O   UNL     1      30.732 -10.459 -21.684  0.00  0.00    -0.436 OA
BRANCH  20  24
ATOM     21  O   UNL     1      32.014 -11.602 -20.159  0.00  0.00    -0.226 OA
ATOM     22  O   UNL     1      33.162 -13.901 -21.309  0.00  0.00    -0.273 OA
ATOM     23  N   UNL     1      31.769 -12.349 -22.352  0.00  0.00    -0.220 N 
ATOM     24  C   UNL     1      31.551 -11.483 -21.289  0.00  0.00    +0.407 C 
ATOM     25  C   UNL     1      32.556 -13.497 -22.299  0.00  0.00    +0.247 C 
ATOM     26  H   UNL     1      31.336 -12.134 -23.209  0.00  0.00    +0.161 HD
BRANCH  25  28
ATOM     27 CL   UNL     1      33.441 -13.243 -24.790  0.00  0.00    -0.103 Cl
ATOM     28  C   UNL     1      32.584 -14.246 -23.608  0.00  0.00    +0.180 C 
ENDBRANCH  25  28
ENDBRANCH  20  24
ENDBRANCH   7  20
TORSDOF 7
ENDMDL
MODEL 5
REMARK VINA RESULT:      -6.7     15.582     19.027
REMARK  Name = 369976
REMARK  7 active torsions:
REMARK  status: ('A' for Active; 'I' for Inactive)
REMARK    1  A    between atoms: C_2  and  C_10
REMARK    2  A    between atoms: C_4  and  O_18
REMARK    3  A    between atoms: C_7  and  O_20
REMARK    4  A    between atoms: C_11  and  C_13
REMARK    5  A    between atoms: C_13  and  C_14
REMARK    6  A    between atoms: O_20  and  C_24
REMARK    7  A    between atoms: C_25  and  C_28
REMARK                            x       y       z     vdW  Elec       q    Type
REMARK                         _______ _______ _______ _____ _____    ______ ____
ROOT
ATOM      1  O   UNL     1      31.985 -10.299 -22.893  0.00  0.00    -0.353 OA
ATOM      2  C   UNL     1      33.050  -8.066 -22.677  0.00  0.00    +0.085 C 
ATOM      3  C   UNL     1      31.790  -8.877 -22.919  0.00  0.00    +0.125 C 
ATOM      4  C   UNL     1      32.683  -6.573 -22.529  0.00  0.00    +0.160 C 
ATOM      5  C   UNL     1      31.237  -9.740 -21.805  0.00  0.00    +0.169 C 
ATOM      6  C   UNL     1      30.868  -8.404 -24.007  0.00  0.00    +0.034 C 
ATOM      7  C   UNL     1      31.765  -6.078 -23.657  0.00  0.00    +0.198 C 
ATOM      8  C   UNL     1      30.507  -6.937 -23.792  0.00  0.00    +0.049 C 
ENDROOT
BRANCH   2  10
ATOM      9  O   UNL     1      35.373  -8.686 -23.253  0.00  0.00    -0.356 OA
ATOM     10  C   UNL     1      34.092  -8.278 -23.748  0.00  0.00    +0.122 C 
ATOM     11  C   UNL     1      34.653  -9.637 -24.047  0.00  0.00    +0.144 C 
ATOM     12  C   UNL     1      34.153  -7.205 -24.770  0.00  0.00    +0.032 C 
BRANCH  11  13
ATOM     13  C   UNL     1      35.295  -9.937 -25.349  0.00  0.00    +0.057 C 
BRANCH  13  14
ATOM     14  C   UNL     1      34.571 -10.953 -26.198  0.00  0.00    -0.032 C 
ATOM     15  C   UNL     1      33.955 -12.080 -25.791  0.00  0.00    -0.048 C 
ATOM     16  C   UNL     1      33.921 -12.446 -24.332  0.00  0.00    +0.026 C 
ATOM     17  C   UNL     1      33.251 -13.051 -26.695  0.00  0.00    +0.026 C 
ENDBRANCH  13  14
ENDBRANCH  11  13
ENDBRANCH   2  10
BRANCH   4  18
ATOM     18  O   UNL     1      32.018  -6.387 -21.276  0.00  0.00    -0.350 OA
ATOM     19  C   UNL     1      32.800  -6.882 -20.202  0.00  0.00    +0.174 C 
ENDBRANCH   4  18
BRANCH   7  20
ATOM     20  O   UNL     1      31.373  -4.730 -23.414  0.00  0.00    -0.436 OA
BRANCH  20  24
ATOM     21  O   UNL     1      30.333  -3.078 -24.624  0.00  0.00    -0.226 OA
ATOM     22  O   UNL     1      31.510  -2.776 -27.163  0.00  0.00    -0.273 OA
ATOM     23  N   UNL     1      32.126  -4.283 -25.494  0.00  0.00    -0.220 N 
ATOM     24  C   UNL     1      31.194  -3.945 -24.523  0.00  0.00    +0.407 C 
ATOM     25  C   UNL     1      32.227  -3.683 -26.747  0.00  0.00    +0.247 C 
ATOM     26  H   UNL     1      32.763  -5.002 -25.282  0.00  0.00    +0.161 HD
BRANCH  25  28
ATOM     27 CL   UNL     1      32.721  -4.590 -29.194  0.00  0.00    -0.103 Cl
ATOM     28  C   UNL     1      33.354  -4.249 -27.575  0.00  0.00    +0.180 C 
ENDBRANCH  25  28
ENDBRANCH  20  24
ENDBRANCH   7  20
TORSDOF 7
ENDMDL
MODEL 6
REMARK VINA RESULT:      -6.6      6.520     11.920
REMARK  Name = 369976
REMARK  7 active torsions:
REMARK  status: ('A' for Active; 'I' for Inactive)
REMARK    1  A    between atoms: C_2  and  C_10
REMARK    2  A    between atoms: C_4  and  O_18
REMARK    3  A    between atoms: C_7  and  O_20
REMARK    4  A    between atoms: C_11  and  C_13
REMARK    5  A    between atoms: C_13  and  C_14
REMARK    6  A    between atoms: O_20  and  C_24
REMARK    7  A    between atoms: C_25  and  C_28
REMARK                            x       y       z     vdW  Elec       q    Type
REMARK                         _______ _______ _______ _____ _____    ______ ____
ROOT
ATOM      1  O   UNL     1      32.057 -15.202 -20.738  0.00  0.00    -0.353 OA
ATOM      2  C   UNL     1      33.410 -15.919 -22.693  0.00  0.00    +0.085 C 
ATOM      3  C   UNL     1      33.129 -16.034 -21.207  0.00  0.00    +0.125 C 
ATOM      4  C   UNL     1      34.434 -16.998 -23.110  0.00  0.00    +0.160 C 
ATOM      5  C   UNL     1      31.808 -16.613 -20.744  0.00  0.00    +0.169 C 
ATOM      6  C   UNL     1      34.314 -16.085 -20.285  0.00  0.00    +0.034 C 
ATOM      7  C   UNL     1      35.663 -17.031 -22.188  0.00  0.00    +0.198 C 
ATOM      8  C   UNL     1      35.272 -17.191 -20.718  0.00  0.00    +0.049 C 
ENDROOT
BRANCH   2  10
ATOM      9  O   UNL     1      34.433 -14.458 -24.407  0.00  0.00    -0.356 OA
ATOM     10  C   UNL     1      33.867 -14.537 -23.092  0.00  0.00    +0.122 C 
ATOM     11  C   UNL     1      33.194 -13.769 -24.192  0.00  0.00    +0.144 C 
ATOM     12  C   UNL     1      34.649 -13.822 -22.055  0.00  0.00    +0.032 C 
BRANCH  11  13
ATOM     13  C   UNL     1      33.308 -12.294 -24.284  0.00  0.00    +0.057 C 
BRANCH  13  14
ATOM     14  C   UNL     1      34.239 -11.793 -25.363  0.00  0.00    -0.032 C 
ATOM     15  C   UNL     1      34.924 -10.635 -25.388  0.00  0.00    -0.048 C 
ATOM     16  C   UNL     1      34.824  -9.664 -24.243  0.00  0.00    +0.026 C 
ATOM     17  C   UNL     1      35.836 -10.197 -26.499  0.00  0.00    +0.026 C 
ENDBRANCH  13  14
ENDBRANCH  11  13
ENDBRANCH   2  10
BRANCH   4  18
ATOM     18  O   UNL     1      33.793 -18.276 -23.073  0.00  0.00    -0.350 OA
ATOM     19  C   UNL     1      34.058 -19.017 -24.252  0.00  0.00    +0.174 C 
ENDBRANCH   4  18
BRANCH   7  20
ATOM     20  O   UNL     1      36.520 -18.110 -22.552  0.00  0.00    -0.436 OA
BRANCH  20  24
ATOM     21  O   UNL     1      37.961 -19.109 -21.069  0.00  0.00    -0.226 OA
ATOM     22  O   UNL     1      36.641 -21.048 -19.511  0.00  0.00    -0.273 OA
ATOM     23  N   UNL     1      35.712 -19.707 -21.177  0.00  0.00    -0.220 N 
ATOM     24  C   UNL     1      36.840 -18.989 -21.551  0.00  0.00    +0.407 C 
ATOM     25  C   UNL     1      35.680 -20.687 -20.187  0.00  0.00    +0.247 C 
ATOM     26  H   UNL     1      34.871 -19.511 -21.649  0.00  0.00    +0.161 HD
BRANCH  25  28
ATOM     27 CL   UNL     1      33.118 -20.019 -20.380  0.00  0.00    -0.103 Cl
ATOM     28  C   UNL     1      34.305 -21.275 -19.992  0.00  0.00    +0.180 C 
ENDBRANCH  25  28
ENDBRANCH  20  24
ENDBRANCH   7  20
TORSDOF 7
ENDMDL
MODEL 7
REMARK VINA RESULT:      -6.5     13.806     17.675
REMARK  Name = 369976
REMARK  7 active torsions:
REMARK  status: ('A' for Active; 'I' for Inactive)
REMARK    1  A    between atoms: C_2  and  C_10
REMARK    2  A    between atoms: C_4  and  O_18
REMARK    3  A    between atoms: C_7  and  O_20
REMARK    4  A    between atoms: C_11  and  C_13
REMARK    5  A    between atoms: C_13  and  C_14
REMARK    6  A    between atoms: O_20  and  C_24
REMARK    7  A    between atoms: C_25  and  C_28
REMARK                            x       y       z     vdW  Elec       q    Type
REMARK                         _______ _______ _______ _____ _____    ______ ____
ROOT
ATOM      1  O   UNL     1      32.622  -7.658 -19.468  0.00  0.00    -0.353 OA
ATOM      2  C   UNL     1      32.664  -8.467 -21.816  0.00  0.00    +0.085 C 
ATOM      3  C   UNL     1      32.297  -7.368 -20.836  0.00  0.00    +0.125 C 
ATOM      4  C   UNL     1      32.456  -7.962 -23.261  0.00  0.00    +0.160 C 
ATOM      5  C   UNL     1      33.397  -6.632 -20.100  0.00  0.00    +0.169 C 
ATOM      6  C   UNL     1      30.965  -6.698 -21.022  0.00  0.00    +0.034 C 
ATOM      7  C   UNL     1      31.082  -7.304 -23.463  0.00  0.00    +0.198 C 
ATOM      8  C   UNL     1      30.828  -6.184 -22.452  0.00  0.00    +0.049 C 
ENDROOT
BRANCH   2  10
ATOM      9  O   UNL     1      30.902 -10.044 -22.540  0.00  0.00    -0.356 OA
ATOM     10  C   UNL     1      31.906  -9.747 -21.562  0.00  0.00    +0.122 C 
ATOM     11  C   UNL     1      32.026 -10.932 -22.476  0.00  0.00    +0.144 C 
ATOM     12  C   UNL     1      31.457  -9.931 -20.160  0.00  0.00    +0.032 C 
BRANCH  11  13
ATOM     13  C   UNL     1      31.682 -12.298 -22.017  0.00  0.00    +0.057 C 
BRANCH  13  14
ATOM     14  C   UNL     1      32.543 -13.399 -22.590  0.00  0.00    -0.032 C 
ATOM     15  C   UNL     1      33.047 -14.470 -21.949  0.00  0.00    -0.048 C 
ATOM     16  C   UNL     1      32.762 -14.688 -20.488  0.00  0.00    +0.026 C 
ATOM     17  C   UNL     1      33.901 -15.531 -22.584  0.00  0.00    +0.026 C 
ENDBRANCH  13  14
ENDBRANCH  11  13
ENDBRANCH   2  10
BRANCH   4  18
ATOM     18  O   UNL     1      33.476  -7.005 -23.562  0.00  0.00    -0.350 OA
ATOM     19  C   UNL     1      34.759  -7.608 -23.570  0.00  0.00    +0.174 C 
ENDBRANCH   4  18
BRANCH   7  20
ATOM     20  O   UNL     1      30.986  -6.763 -24.777  0.00  0.00    -0.436 OA
BRANCH  20  24
ATOM     21  O   UNL     1      30.487  -4.564 -24.345  0.00  0.00    -0.226 OA
ATOM     22  O   UNL     1      32.290  -2.834 -25.643  0.00  0.00    -0.273 OA
ATOM     23  N   UNL     1      32.283  -5.164 -25.701  0.00  0.00    -0.220 N 
ATOM     24  C   UNL     1      31.185  -5.413 -24.889  0.00  0.00    +0.407 C 
ATOM     25  C   UNL     1      32.766  -3.899 -26.028  0.00  0.00    +0.247 C 
ATOM     26  H   UNL     1      32.756  -5.942 -26.076  0.00  0.00    +0.161 HD
BRANCH  25  28
ATOM     27 CL   UNL     1      34.854  -5.453 -26.551  0.00  0.00    -0.103 Cl
ATOM     28  C   UNL     1      33.987  -3.951 -26.911  0.00  0.00    +0.180 C 
ENDBRANCH  25  28
ENDBRANCH  20  24
ENDBRANCH   7  20
TORSDOF 7
ENDMDL
MODEL 8
REMARK VINA RESULT:      -6.5      5.745      9.384
REMARK  Name = 369976
REMARK  7 active torsions:
REMARK  status: ('A' for Active; 'I' for Inactive)
REMARK    1  A    between atoms: C_2  and  C_10
REMARK    2  A    between atoms: C_4  and  O_18
REMARK    3  A    between atoms: C_7  and  O_20
REMARK    4  A    between atoms: C_11  and  C_13
REMARK    5  A    between atoms: C_13  and  C_14
REMARK    6  A    between atoms: O_20  and  C_24
REMARK    7  A    between atoms: C_25  and  C_28
REMARK                            x       y       z     vdW  Elec       q    Type
REMARK                         _______ _______ _______ _____ _____    ______ ____
ROOT
ATOM      1  O   UNL     1      36.419 -19.384 -20.324  0.00  0.00    -0.353 OA
ATOM      2  C   UNL     1      34.561 -19.096 -21.947  0.00  0.00    +0.085 C 
ATOM      3  C   UNL     1      35.725 -18.478 -21.195  0.00  0.00    +0.125 C 
ATOM      4  C   UNL     1      34.027 -18.090 -22.991  0.00  0.00    +0.160 C 
ATOM      5  C   UNL     1      37.133 -18.951 -21.489  0.00  0.00    +0.169 C 
ATOM      6  C   UNL     1      35.518 -17.108 -20.615  0.00  0.00    +0.034 C 
ATOM      7  C   UNL     1      33.785 -16.696 -22.394  0.00  0.00    +0.198 C 
ATOM      8  C   UNL     1      35.030 -16.146 -21.695  0.00  0.00    +0.049 C 
ENDROOT
BRANCH   2  10
ATOM      9  O   UNL     1      32.638 -20.607 -21.579  0.00  0.00    -0.356 OA
ATOM     10  C   UNL     1      33.465 -19.575 -21.027  0.00  0.00    +0.122 C 
ATOM     11  C   UNL     1      33.460 -20.965 -20.460  0.00  0.00    +0.144 C 
ATOM     12  C   UNL     1      32.708 -18.493 -20.352  0.00  0.00    +0.032 C 
BRANCH  11  13
ATOM     13  C   UNL     1      32.690 -21.296 -19.237  0.00  0.00    +0.057 C 
BRANCH  13  14
ATOM     14  C   UNL     1      33.397 -22.213 -18.268  0.00  0.00    -0.032 C 
ATOM     15  C   UNL     1      32.868 -22.866 -17.216  0.00  0.00    -0.048 C 
ATOM     16  C   UNL     1      31.403 -22.740 -16.897  0.00  0.00    +0.026 C 
ATOM     17  C   UNL     1      33.634 -23.767 -16.288  0.00  0.00    +0.026 C 
ENDBRANCH  13  14
ENDBRANCH  11  13
ENDBRANCH   2  10
BRANCH   4  18
ATOM     18  O   UNL     1      34.982 -17.981 -24.050  0.00  0.00    -0.350 OA
ATOM     19  C   UNL     1      34.540 -18.663 -25.212  0.00  0.00    +0.174 C 
ENDBRANCH   4  18
BRANCH   7  20
ATOM     20  O   UNL     1      33.397 -15.784 -23.418  0.00  0.00    -0.436 OA
BRANCH  20  24
ATOM     21  O   UNL     1      32.183 -14.385 -22.062  0.00  0.00    -0.226 OA
ATOM     22  O   UNL     1      32.549 -11.689 -22.787  0.00  0.00    -0.273 OA
ATOM     23  N   UNL     1      33.514 -13.561 -23.787  0.00  0.00    -0.220 N 
ATOM     24  C   UNL     1      32.956 -14.558 -22.998  0.00  0.00    +0.407 C 
ATOM     25  C   UNL     1      33.278 -12.196 -23.636  0.00  0.00    +0.247 C 
ATOM     26  H   UNL     1      34.121 -13.840 -24.509  0.00  0.00    +0.161 HD
BRANCH  25  28
ATOM     27 CL   UNL     1      34.344  -9.778 -23.889  0.00  0.00    -0.103 Cl
ATOM     28  C   UNL     1      34.044 -11.359 -24.629  0.00  0.00    +0.180 C 
ENDBRANCH  25  28
ENDBRANCH  20  24
ENDBRANCH   7  20
TORSDOF 7
ENDMDL
MODEL 9
REMARK VINA RESULT:      -6.4     14.777     18.273
REMARK  Name = 369976
REMARK  7 active torsions:
REMARK  status: ('A' for Active; 'I' for Inactive)
REMARK    1  A    between atoms: C_2  and  C_10
REMARK    2  A    between atoms: C_4  and  O_18
REMARK    3  A    between atoms: C_7  and  O_20
REMARK    4  A    between atoms: C_11  and  C_13
REMARK    5  A    between atoms: C_13  and  C_14
REMARK    6  A    between atoms: O_20  and  C_24
REMARK    7  A    between atoms: C_25  and  C_28
REMARK                            x       y       z     vdW  Elec       q    Type
REMARK                         _______ _______ _______ _____ _____    ______ ____
ROOT
ATOM      1  O   UNL     1      32.482  -5.929 -21.193  0.00  0.00    -0.353 OA
ATOM      2  C   UNL     1      31.480  -7.829 -22.441  0.00  0.00    +0.085 C 
ATOM      3  C   UNL     1      32.689  -7.243 -21.735  0.00  0.00    +0.125 C 
ATOM      4  C   UNL     1      31.756  -9.306 -22.798  0.00  0.00    +0.160 C 
ATOM      5  C   UNL     1      32.627  -6.992 -20.243  0.00  0.00    +0.169 C 
ATOM      6  C   UNL     1      34.026  -7.431 -22.391  0.00  0.00    +0.034 C 
ATOM      7  C   UNL     1      33.110  -9.498 -23.499  0.00  0.00    +0.198 C 
ATOM      8  C   UNL     1      34.265  -8.909 -22.687  0.00  0.00    +0.049 C 
ENDROOT
BRANCH   2  10
ATOM      9  O   UNL     1      30.416  -5.793 -23.356  0.00  0.00    -0.356 OA
ATOM     10  C   UNL     1      31.074  -7.031 -23.655  0.00  0.00    +0.122 C 
ATOM     11  C   UNL     1      31.704  -5.708 -23.979  0.00  0.00    +0.144 C 
ATOM     12  C   UNL     1      30.415  -7.822 -24.722  0.00  0.00    +0.032 C 
BRANCH  11  13
ATOM     13  C   UNL     1      31.668  -5.151 -25.352  0.00  0.00    +0.057 C 
BRANCH  13  14
ATOM     14  C   UNL     1      33.009  -5.070 -26.043  0.00  0.00    -0.032 C 
ATOM     15  C   UNL     1      33.309  -4.424 -27.185  0.00  0.00    -0.048 C 
ATOM     16  C   UNL     1      32.252  -3.652 -27.926  0.00  0.00    +0.026 C 
ATOM     17  C   UNL     1      34.671  -4.385 -27.819  0.00  0.00    +0.026 C 
ENDBRANCH  13  14
ENDBRANCH  11  13
ENDBRANCH   2  10
BRANCH   4  18
ATOM     18  O   UNL     1      31.745 -10.078 -21.594  0.00  0.00    -0.350 OA
ATOM     19  C   UNL     1      30.770 -11.106 -21.654  0.00  0.00    +0.174 C 
ENDBRANCH   4  18
BRANCH   7  20
ATOM     20  O   UNL     1      33.361 -10.885 -23.708  0.00  0.00    -0.436 OA
BRANCH  20  24
ATOM     21  O   UNL     1      34.525 -10.546 -25.659  0.00  0.00    -0.226 OA
ATOM     22  O   UNL     1      34.206 -12.713 -27.428  0.00  0.00    -0.273 OA
ATOM     23  N   UNL     1      33.274 -12.479 -25.304  0.00  0.00    -0.220 N 
ATOM     24  C   UNL     1      33.791 -11.237 -24.960  0.00  0.00    +0.407 C 
ATOM     25  C   UNL     1      33.510 -13.137 -26.509  0.00  0.00    +0.247 C 
ATOM     26  H   UNL     1      32.694 -12.927 -24.647  0.00  0.00    +0.161 HD
BRANCH  25  28
ATOM     27 CL   UNL     1      33.583 -15.539 -25.379  0.00  0.00    -0.103 Cl
ATOM     28  C   UNL     1      32.828 -14.481 -26.582  0.00  0.00    +0.180 C 
ENDBRANCH  25  28
ENDBRANCH  20  24
ENDBRANCH   7  20
TORSDOF 7
ENDMDL
