MODEL 1
REMARK VINA RESULT:     -11.9      0.000      0.000
REMARK  Name = 54671008
REMARK  7 active torsions:
REMARK  status: ('A' for Active; 'I' for Inactive)
REMARK    1  A    between atoms: C_4  and  C_21
REMARK    2  A    between atoms: C_6  and  C_11
REMARK    3  A    between atoms: C_8  and  O_34
REMARK    4  A    between atoms: N_10  and  C_13
REMARK    5  A    between atoms: C_13  and  C_15
REMARK    6  A    between atoms: C_21  and  N_25
REMARK    7  A    between atoms: C_26  and  C_31
REMARK                            x       y       z     vdW  Elec       q    Type
REMARK                         _______ _______ _______ _____ _____    ______ ____
ROOT
ATOM      1  O   UNL     1      36.231 -23.365 -14.664  0.00  0.00    -0.271 OA
ATOM      2  N   UNL     1      33.903 -23.600 -14.585  0.00  0.00    -0.232 N 
ATOM      3  N   UNL     1      32.639 -23.279 -16.573  0.00  0.00    -0.386 NA
ATOM      4  C   UNL     1      32.713 -23.551 -15.306  0.00  0.00    +0.182 C 
ATOM      5  C   UNL     1      35.128 -23.349 -15.208  0.00  0.00    +0.265 C 
ATOM      6  C   UNL     1      33.816 -23.029 -17.224  0.00  0.00    +0.199 C 
ATOM      7  C   UNL     1      33.869 -23.918 -13.159  0.00  0.00    +0.122 C 
ATOM      8  C   UNL     1      35.033 -23.040 -16.661  0.00  0.00    +0.245 C 
ENDROOT
BRANCH   6  11
ATOM      9  O   UNL     1      34.025 -23.560 -19.502  0.00  0.00    -0.268 OA
ATOM     10  N   UNL     1      33.231 -21.452 -18.901  0.00  0.00    -0.295 N 
ATOM     11  C   UNL     1      33.707 -22.726 -18.658  0.00  0.00    +0.275 C 
ATOM     12  H   UNL     1      33.012 -20.879 -18.131  0.00  0.00    +0.150 HD
BRANCH  10  13
ATOM     13  C   UNL     1      33.037 -20.920 -20.231  0.00  0.00    +0.117 C 
BRANCH  13  15
ATOM     14  F   UNL     1      37.618 -18.250 -22.125  0.00  0.00    -0.204 F 
ATOM     15  C   UNL     1      34.259 -20.208 -20.736  0.00  0.00    -0.002 C 
ATOM     16  C   UNL     1      34.151 -19.299 -21.789  0.00  0.00    -0.000 C 
ATOM     17  C   UNL     1      35.501 -20.455 -20.153  0.00  0.00    -0.000 C 
ATOM     18  C   UNL     1      35.285 -18.638 -22.258  0.00  0.00    +0.029 C 
ATOM     19  C   UNL     1      36.636 -19.794 -20.622  0.00  0.00    +0.029 C 
ATOM     20  C   UNL     1      36.528 -18.885 -21.675  0.00  0.00    +0.140 C 
ENDBRANCH  13  15
ENDBRANCH  10  13
ENDBRANCH   6  11
BRANCH   4  21
ATOM     21  C   UNL     1      31.423 -23.831 -14.572  0.00  0.00    +0.117 C 
ATOM     22  C   UNL     1      31.303 -25.324 -14.296  0.00  0.00    +0.028 C 
ATOM     23  C   UNL     1      31.377 -23.021 -13.284  0.00  0.00    +0.028 C 
BRANCH  21  25
ATOM     24  O   UNL     1      28.649 -24.569 -14.562  0.00  0.00    -0.265 OA
ATOM     25  N   UNL     1      30.413 -23.392 -15.500  0.00  0.00    -0.293 N 
ATOM     26  C   UNL     1      29.090 -23.804 -15.415  0.00  0.00    +0.302 C 
ATOM     27  H   UNL     1      30.672 -22.774 -16.223  0.00  0.00    +0.150 HD
BRANCH  26  31
ATOM     28  O   UNL     1      27.501 -22.117 -16.258  0.00  0.00    -0.416 OA
ATOM     29  N   UNL     1      27.928 -23.834 -17.627  0.00  0.00    -0.102 NA
ATOM     30  N   UNL     1      27.027 -22.998 -18.259  0.00  0.00    -0.111 NA
ATOM     31  C   UNL     1      28.177 -23.281 -16.463  0.00  0.00    +0.304 A 
ATOM     32  C   UNL     1      26.806 -22.010 -17.423  0.00  0.00    +0.227 A 
ATOM     33  C   UNL     1      25.936 -20.837 -17.569  0.00  0.00    +0.097 C 
ENDBRANCH  26  31
ENDBRANCH  21  25
ENDBRANCH   4  21
BRANCH   8  34
ATOM     34  O   UNL     1      36.195 -22.782 -17.352  0.00  0.00    -0.370 OA
ATOM     35  H   UNL     1      36.880 -23.422 -17.372  0.00  0.00    +0.211 HD
ENDBRANCH   8  34
TORSDOF 7
ENDMDL
MODEL 2
REMARK VINA RESULT:     -10.9      1.991      2.874
REMARK  Name = 54671008
REMARK  7 active torsions:
REMARK  status: ('A' for Active; 'I' for Inactive)
REMARK    1  A    between atoms: C_4  and  C_21
REMARK    2  A    between atoms: C_6  and  C_11
REMARK    3  A    between atoms: C_8  and  O_34
REMARK    4  A    between atoms: N_10  and  C_13
REMARK    5  A    between atoms: C_13  and  C_15
REMARK    6  A    between atoms: C_21  and  N_25
REMARK    7  A    between atoms: C_26  and  C_31
REMARK                            x       y       z     vdW  Elec       q    Type
REMARK                         _______ _______ _______ _____ _____    ______ ____
ROOT
ATOM      1  O   UNL     1      38.105 -21.328 -16.510  0.00  0.00    -0.271 OA
ATOM      2  N   UNL     1      36.425 -22.719 -15.659  0.00  0.00    -0.232 N 
ATOM      3  N   UNL     1      34.504 -23.160 -16.988  0.00  0.00    -0.386 NA
ATOM      4  C   UNL     1      35.187 -23.311 -15.895  0.00  0.00    +0.182 C 
ATOM      5  C   UNL     1      37.021 -21.898 -16.620  0.00  0.00    +0.265 C 
ATOM      6  C   UNL     1      35.051 -22.365 -17.957  0.00  0.00    +0.199 C 
ATOM      7  C   UNL     1      37.109 -22.960 -14.390  0.00  0.00    +0.122 C 
ATOM      8  C   UNL     1      36.229 -21.732 -17.870  0.00  0.00    +0.245 C 
ENDROOT
BRANCH   6  11
ATOM      9  O   UNL     1      33.886 -23.192 -19.821  0.00  0.00    -0.268 OA
ATOM     10  N   UNL     1      34.013 -20.887 -19.501  0.00  0.00    -0.295 N 
ATOM     11  C   UNL     1      34.259 -22.209 -19.186  0.00  0.00    +0.275 C 
ATOM     12  H   UNL     1      34.371 -20.189 -18.906  0.00  0.00    +0.150 HD
BRANCH  10  13
ATOM     13  C   UNL     1      33.257 -20.477 -20.663  0.00  0.00    +0.117 C 
BRANCH  13  15
ATOM     14  F   UNL     1      35.619 -16.085 -23.276  0.00  0.00    -0.204 F 
ATOM     15  C   UNL     1      33.886 -19.305 -21.360  0.00  0.00    -0.002 C 
ATOM     16  C   UNL     1      34.756 -19.516 -22.430  0.00  0.00    -0.000 C 
ATOM     17  C   UNL     1      33.603 -18.007 -20.937  0.00  0.00    -0.000 C 
ATOM     18  C   UNL     1      35.341 -18.428 -23.077  0.00  0.00    +0.029 C 
ATOM     19  C   UNL     1      34.188 -16.919 -21.584  0.00  0.00    +0.029 C 
ATOM     20  C   UNL     1      35.058 -17.130 -22.654  0.00  0.00    +0.140 C 
ENDBRANCH  13  15
ENDBRANCH  10  13
ENDBRANCH   6  11
BRANCH   4  21
ATOM     21  C   UNL     1      34.599 -24.187 -14.815  0.00  0.00    +0.117 C 
ATOM     22  C   UNL     1      35.145 -25.602 -14.946  0.00  0.00    +0.028 C 
ATOM     23  C   UNL     1      34.910 -23.595 -13.447  0.00  0.00    +0.028 C 
BRANCH  21  25
ATOM     24  O   UNL     1      32.485 -24.997 -13.049  0.00  0.00    -0.265 OA
ATOM     25  N   UNL     1      33.186 -24.147 -15.091  0.00  0.00    -0.293 N 
ATOM     26  C   UNL     1      32.234 -24.561 -14.170  0.00  0.00    +0.302 C 
ATOM     27  H   UNL     1      32.885 -23.811 -15.966  0.00  0.00    +0.150 HD
BRANCH  26  31
ATOM     28  O   UNL     1      30.306 -23.293 -15.041  0.00  0.00    -0.416 OA
ATOM     29  N   UNL     1      29.956 -25.469 -14.654  0.00  0.00    -0.102 NA
ATOM     30  N   UNL     1      28.779 -24.926 -15.133  0.00  0.00    -0.111 NA
ATOM     31  C   UNL     1      30.819 -24.481 -14.617  0.00  0.00    +0.304 A 
ATOM     32  C   UNL     1      29.029 -23.655 -15.345  0.00  0.00    +0.227 A 
ATOM     33  C   UNL     1      28.145 -22.598 -15.852  0.00  0.00    +0.097 C 
ENDBRANCH  26  31
ENDBRANCH  21  25
ENDBRANCH   4  21
BRANCH   8  34
ATOM     34  O   UNL     1      36.745 -20.939 -18.869  0.00  0.00    -0.370 OA
ATOM     35  H   UNL     1      36.539 -20.025 -18.897  0.00  0.00    +0.211 HD
ENDBRANCH   8  34
TORSDOF 7
ENDMDL
MODEL 3
REMARK VINA RESULT:     -10.3      7.452     11.663
REMARK  Name = 54671008
REMARK  7 active torsions:
REMARK  status: ('A' for Active; 'I' for Inactive)
REMARK    1  A    between atoms: C_4  and  C_21
REMARK    2  A    between atoms: C_6  and  C_11
REMARK    3  A    between atoms: C_8  and  O_34
REMARK    4  A    between atoms: N_10  and  C_13
REMARK    5  A    between atoms: C_13  and  C_15
REMARK    6  A    between atoms: C_21  and  N_25
REMARK    7  A    between atoms: C_26  and  C_31
REMARK                            x       y       z     vdW  Elec       q    Type
REMARK                         _______ _______ _______ _____ _____    ______ ____
ROOT
ATOM      1  O   UNL     1      33.275 -15.912 -26.699  0.00  0.00    -0.271 OA
ATOM      2  N   UNL     1      33.393 -14.947 -24.569  0.00  0.00    -0.232 N 
ATOM      3  N   UNL     1      34.419 -16.162 -22.803  0.00  0.00    -0.386 NA
ATOM      4  C   UNL     1      33.814 -15.106 -23.251  0.00  0.00    +0.182 C 
ATOM      5  C   UNL     1      33.608 -15.952 -25.516  0.00  0.00    +0.265 C 
ATOM      6  C   UNL     1      34.652 -17.171 -23.696  0.00  0.00    +0.199 C 
ATOM      7  C   UNL     1      32.720 -13.711 -24.967  0.00  0.00    +0.122 C 
ATOM      8  C   UNL     1      34.305 -17.159 -24.991  0.00  0.00    +0.245 C 
ENDROOT
BRANCH   6  11
ATOM      9  O   UNL     1      35.456 -19.373 -23.844  0.00  0.00    -0.268 OA
ATOM     10  N   UNL     1      35.805 -18.173 -21.876  0.00  0.00    -0.295 N 
ATOM     11  C   UNL     1      35.340 -18.356 -23.165  0.00  0.00    +0.275 C 
ATOM     12  H   UNL     1      35.646 -17.305 -21.440  0.00  0.00    +0.150 HD
BRANCH  10  13
ATOM     13  C   UNL     1      36.515 -19.193 -21.138  0.00  0.00    +0.117 C 
BRANCH  13  15
ATOM     14  F   UNL     1      33.000 -22.715 -18.502  0.00  0.00    -0.204 F 
ATOM     15  C   UNL     1      35.577 -20.133 -20.435  0.00  0.00    -0.002 C 
ATOM     16  C   UNL     1      34.200 -20.005 -20.612  0.00  0.00    -0.000 C 
ATOM     17  C   UNL     1      36.084 -21.132 -19.604  0.00  0.00    -0.000 C 
ATOM     18  C   UNL     1      33.329 -20.877 -19.959  0.00  0.00    +0.029 C 
ATOM     19  C   UNL     1      35.214 -22.004 -18.951  0.00  0.00    +0.029 C 
ATOM     20  C   UNL     1      33.836 -21.877 -19.128  0.00  0.00    +0.140 C 
ENDBRANCH  13  15
ENDBRANCH  10  13
ENDBRANCH   6  11
BRANCH   4  21
ATOM     21  C   UNL     1      33.551 -13.981 -22.279  0.00  0.00    +0.117 C 
ATOM     22  C   UNL     1      32.056 -13.871 -22.013  0.00  0.00    +0.028 C 
ATOM     23  C   UNL     1      34.330 -14.219 -20.992  0.00  0.00    +0.028 C 
BRANCH  21  25
ATOM     24  O   UNL     1      32.343 -11.377 -22.336  0.00  0.00    -0.265 OA
ATOM     25  N   UNL     1      34.041 -12.821 -22.977  0.00  0.00    -0.293 N 
ATOM     26  C   UNL     1      33.386 -11.597 -22.945  0.00  0.00    +0.302 C 
ATOM     27  H   UNL     1      34.875 -12.899 -23.496  0.00  0.00    +0.150 HD
BRANCH  26  31
ATOM     28  O   UNL     1      33.868  -9.211 -23.341  0.00  0.00    -0.416 OA
ATOM     29  N   UNL     1      34.712 -10.644 -24.837  0.00  0.00    -0.102 NA
ATOM     30  N   UNL     1      35.079  -9.367 -25.215  0.00  0.00    -0.111 NA
ATOM     31  C   UNL     1      34.007 -10.506 -23.739  0.00  0.00    +0.304 A 
ATOM     32  C   UNL     1      34.565  -8.563 -24.314  0.00  0.00    +0.227 A 
ATOM     33  C   UNL     1      34.636  -7.100 -24.214  0.00  0.00    +0.097 C 
ENDBRANCH  26  31
ENDBRANCH  21  25
ENDBRANCH   4  21
BRANCH   8  34
ATOM     34  O   UNL     1      34.556 -18.196 -25.859  0.00  0.00    -0.370 OA
ATOM     35  H   UNL     1      35.114 -18.902 -25.596  0.00  0.00    +0.211 HD
ENDBRANCH   8  34
TORSDOF 7
ENDMDL
MODEL 4
REMARK VINA RESULT:     -10.2      2.330      5.961
REMARK  Name = 54671008
REMARK  7 active torsions:
REMARK  status: ('A' for Active; 'I' for Inactive)
REMARK    1  A    between atoms: C_4  and  C_21
REMARK    2  A    between atoms: C_6  and  C_11
REMARK    3  A    between atoms: C_8  and  O_34
REMARK    4  A    between atoms: N_10  and  C_13
REMARK    5  A    between atoms: C_13  and  C_15
REMARK    6  A    between atoms: C_21  and  N_25
REMARK    7  A    between atoms: C_26  and  C_31
REMARK                            x       y       z     vdW  Elec       q    Type
REMARK                         _______ _______ _______ _____ _____    ______ ____
ROOT
ATOM      1  O   UNL     1      30.127 -22.525 -17.239  0.00  0.00    -0.271 OA
ATOM      2  N   UNL     1      31.400 -23.332 -15.447  0.00  0.00    -0.232 N 
ATOM      3  N   UNL     1      33.769 -23.390 -15.644  0.00  0.00    -0.386 NA
ATOM      4  C   UNL     1      32.680 -23.603 -14.970  0.00  0.00    +0.182 C 
ATOM      5  C   UNL     1      31.210 -22.797 -16.724  0.00  0.00    +0.265 C 
ATOM      6  C   UNL     1      33.629 -22.865 -16.899  0.00  0.00    +0.199 C 
ATOM      7  C   UNL     1      30.241 -23.610 -14.601  0.00  0.00    +0.122 C 
ATOM      8  C   UNL     1      32.465 -22.555 -17.488  0.00  0.00    +0.245 C 
ENDROOT
BRANCH   6  11
ATOM      9  O   UNL     1      35.964 -22.918 -17.149  0.00  0.00    -0.268 OA
ATOM     10  N   UNL     1      34.661 -22.078 -18.890  0.00  0.00    -0.295 N 
ATOM     11  C   UNL     1      34.876 -22.631 -17.642  0.00  0.00    +0.275 C 
ATOM     12  H   UNL     1      33.734 -21.895 -19.167  0.00  0.00    +0.150 HD
BRANCH  10  13
ATOM     13  C   UNL     1      35.730 -21.755 -19.808  0.00  0.00    +0.117 C 
BRANCH  13  15
ATOM     14  F   UNL     1      34.925 -16.780 -22.317  0.00  0.00    -0.204 F 
ATOM     15  C   UNL     1      35.515 -20.428 -20.477  0.00  0.00    -0.002 C 
ATOM     16  C   UNL     1      34.220 -19.953 -20.684  0.00  0.00    -0.000 C 
ATOM     17  C   UNL     1      36.611 -19.671 -20.891  0.00  0.00    -0.000 C 
ATOM     18  C   UNL     1      34.021 -18.721 -21.306  0.00  0.00    +0.029 C 
ATOM     19  C   UNL     1      36.411 -18.439 -21.513  0.00  0.00    +0.029 C 
ATOM     20  C   UNL     1      35.116 -17.964 -21.721  0.00  0.00    +0.140 C 
ENDBRANCH  13  15
ENDBRANCH  10  13
ENDBRANCH   6  11
BRANCH   4  21
ATOM     21  C   UNL     1      32.815 -24.181 -13.582  0.00  0.00    +0.117 C 
ATOM     22  C   UNL     1      32.645 -23.077 -12.547  0.00  0.00    +0.028 C 
ATOM     23  C   UNL     1      31.792 -25.291 -13.385  0.00  0.00    +0.028 C 
BRANCH  21  25
ATOM     24  O   UNL     1      34.729 -23.942 -11.455  0.00  0.00    -0.265 OA
ATOM     25  N   UNL     1      34.158 -24.702 -13.571  0.00  0.00    -0.293 N 
ATOM     26  C   UNL     1      35.014 -24.536 -12.491  0.00  0.00    +0.302 C 
ATOM     27  H   UNL     1      34.479 -25.196 -14.360  0.00  0.00    +0.150 HD
BRANCH  26  31
ATOM     28  O   UNL     1      37.128 -24.796 -13.736  0.00  0.00    -0.416 OA
ATOM     29  N   UNL     1      36.974 -25.933 -11.816  0.00  0.00    -0.102 NA
ATOM     30  N   UNL     1      38.212 -26.196 -12.370  0.00  0.00    -0.111 NA
ATOM     31  C   UNL     1      36.375 -25.112 -12.646  0.00  0.00    +0.304 A 
ATOM     32  C   UNL     1      38.258 -25.512 -13.489  0.00  0.00    +0.227 A 
ATOM     33  C   UNL     1      39.334 -25.415 -14.484  0.00  0.00    +0.097 C 
ENDBRANCH  26  31
ENDBRANCH  21  25
ENDBRANCH   4  21
BRANCH   8  34
ATOM     34  O   UNL     1      32.367 -22.028 -18.755  0.00  0.00    -0.370 OA
ATOM     35  H   UNL     1      31.770 -21.327 -18.926  0.00  0.00    +0.211 HD
ENDBRANCH   8  34
TORSDOF 7
ENDMDL
MODEL 5
REMARK VINA RESULT:     -10.1      7.294     11.061
REMARK  Name = 54671008
REMARK  7 active torsions:
REMARK  status: ('A' for Active; 'I' for Inactive)
REMARK    1  A    between atoms: C_4  and  C_21
REMARK    2  A    between atoms: C_6  and  C_11
REMARK    3  A    between atoms: C_8  and  O_34
REMARK    4  A    between atoms: N_10  and  C_13
REMARK    5  A    between atoms: C_13  and  C_15
REMARK    6  A    between atoms: C_21  and  N_25
REMARK    7  A    between atoms: C_26  and  C_31
REMARK                            x       y       z     vdW  Elec       q    Type
REMARK                         _______ _______ _______ _____ _____    ______ ____
ROOT
ATOM      1  O   UNL     1      33.618 -15.429 -26.446  0.00  0.00    -0.271 OA
ATOM      2  N   UNL     1      33.432 -14.862 -24.182  0.00  0.00    -0.232 N 
ATOM      3  N   UNL     1      34.223 -16.387 -22.539  0.00  0.00    -0.386 NA
ATOM      4  C   UNL     1      33.671 -15.260 -22.869  0.00  0.00    +0.182 C 
ATOM      5  C   UNL     1      33.787 -15.685 -25.255  0.00  0.00    +0.265 C 
ATOM      6  C   UNL     1      34.587 -17.223 -23.558  0.00  0.00    +0.199 C 
ATOM      7  C   UNL     1      32.805 -13.567 -24.440  0.00  0.00    +0.122 C 
ATOM      8  C   UNL     1      34.420 -16.974 -24.865  0.00  0.00    +0.245 C 
ENDROOT
BRANCH   6  11
ATOM      9  O   UNL     1      35.229 -19.452 -23.925  0.00  0.00    -0.268 OA
ATOM     10  N   UNL     1      35.737 -18.452 -21.882  0.00  0.00    -0.295 N 
ATOM     11  C   UNL     1      35.211 -18.492 -23.159  0.00  0.00    +0.275 C 
ATOM     12  H   UNL     1      35.656 -17.616 -21.368  0.00  0.00    +0.150 HD
BRANCH  10  13
ATOM     13  C   UNL     1      36.402 -19.577 -21.263  0.00  0.00    +0.117 C 
BRANCH  13  15
ATOM     14  F   UNL     1      32.851 -22.709 -18.216  0.00  0.00    -0.204 F 
ATOM     15  C   UNL     1      35.455 -20.412 -20.450  0.00  0.00    -0.002 C 
ATOM     16  C   UNL     1      35.950 -21.411 -19.612  0.00  0.00    -0.000 C 
ATOM     17  C   UNL     1      34.080 -20.189 -20.533  0.00  0.00    -0.000 C 
ATOM     18  C   UNL     1      35.070 -22.187 -18.858  0.00  0.00    +0.029 C 
ATOM     19  C   UNL     1      33.201 -20.965 -19.779  0.00  0.00    +0.029 C 
ATOM     20  C   UNL     1      33.696 -21.964 -18.941  0.00  0.00    +0.140 C 
ENDBRANCH  13  15
ENDBRANCH  10  13
ENDBRANCH   6  11
BRANCH   4  21
ATOM     21  C   UNL     1      33.264 -14.324 -21.756  0.00  0.00    +0.117 C 
ATOM     22  C   UNL     1      31.917 -14.753 -21.191  0.00  0.00    +0.028 C 
ATOM     23  C   UNL     1      34.339 -14.306 -20.679  0.00  0.00    +0.028 C 
BRANCH  21  25
ATOM     24  O   UNL     1      31.866 -12.003 -20.808  0.00  0.00    -0.265 OA
ATOM     25  N   UNL     1      33.168 -13.048 -22.418  0.00  0.00    -0.293 N 
ATOM     26  C   UNL     1      32.466 -11.979 -21.878  0.00  0.00    +0.302 C 
ATOM     27  H   UNL     1      33.619 -12.930 -23.285  0.00  0.00    +0.150 HD
BRANCH  26  31
ATOM     28  O   UNL     1      31.376  -9.894 -22.620  0.00  0.00    -0.416 OA
ATOM     29  N   UNL     1      33.372 -10.336 -23.530  0.00  0.00    -0.102 NA
ATOM     30  N   UNL     1      32.917  -9.142 -24.057  0.00  0.00    -0.111 NA
ATOM     31  C   UNL     1      32.442 -10.738 -22.697  0.00  0.00    +0.304 A 
ATOM     32  C   UNL     1      31.750  -8.923 -23.498  0.00  0.00    +0.227 A 
ATOM     33  C   UNL     1      30.817  -7.805 -23.684  0.00  0.00    +0.097 C 
ENDBRANCH  26  31
ENDBRANCH  21  25
ENDBRANCH   4  21
BRANCH   8  34
ATOM     34  O   UNL     1      34.800 -17.843 -25.862  0.00  0.00    -0.370 OA
ATOM     35  H   UNL     1      34.254 -18.571 -26.082  0.00  0.00    +0.211 HD
ENDBRANCH   8  34
TORSDOF 7
ENDMDL
MODEL 6
REMARK VINA RESULT:      -9.9      6.642     10.168
REMARK  Name = 54671008
REMARK  7 active torsions:
REMARK  status: ('A' for Active; 'I' for Inactive)
REMARK    1  A    between atoms: C_4  and  C_21
REMARK    2  A    between atoms: C_6  and  C_11
REMARK    3  A    between atoms: C_8  and  O_34
REMARK    4  A    between atoms: N_10  and  C_13
REMARK    5  A    between atoms: C_13  and  C_15
REMARK    6  A    between atoms: C_21  and  N_25
REMARK    7  A    between atoms: C_26  and  C_31
REMARK                            x       y       z     vdW  Elec       q    Type
REMARK                         _______ _______ _______ _____ _____    ______ ____
ROOT
ATOM      1  O   UNL     1      33.299 -14.796 -25.674  0.00  0.00    -0.271 OA
ATOM      2  N   UNL     1      34.199 -16.501 -24.346  0.00  0.00    -0.232 N 
ATOM      3  N   UNL     1      33.893 -16.417 -21.989  0.00  0.00    -0.386 NA
ATOM      4  C   UNL     1      34.362 -16.993 -23.053  0.00  0.00    +0.182 C 
ATOM      5  C   UNL     1      33.496 -15.315 -24.576  0.00  0.00    +0.265 C 
ATOM      6  C   UNL     1      33.196 -15.253 -22.170  0.00  0.00    +0.199 C 
ATOM      7  C   UNL     1      34.770 -17.234 -25.474  0.00  0.00    +0.122 C 
ATOM      8  C   UNL     1      32.961 -14.663 -23.350  0.00  0.00    +0.245 C 
ENDROOT
BRANCH   6  11
ATOM      9  O   UNL     1      32.506 -15.275 -19.925  0.00  0.00    -0.268 OA
ATOM     10  N   UNL     1      32.413 -13.273 -21.116  0.00  0.00    -0.295 N 
ATOM     11  C   UNL     1      32.673 -14.620 -20.951  0.00  0.00    +0.275 C 
ATOM     12  H   UNL     1      32.592 -12.866 -21.994  0.00  0.00    +0.150 HD
BRANCH  10  13
ATOM     13  C   UNL     1      31.893 -12.432 -20.062  0.00  0.00    +0.117 C 
BRANCH  13  15
ATOM     14  F   UNL     1      31.961  -6.985 -21.485  0.00  0.00    -0.204 F 
ATOM     15  C   UNL     1      31.911 -10.979 -20.441  0.00  0.00    -0.002 C 
ATOM     16  C   UNL     1      31.890 -10.610 -21.786  0.00  0.00    -0.000 C 
ATOM     17  C   UNL     1      31.949  -9.999 -19.449  0.00  0.00    -0.000 C 
ATOM     18  C   UNL     1      31.907  -9.260 -22.138  0.00  0.00    +0.029 C 
ATOM     19  C   UNL     1      31.967  -8.650 -19.801  0.00  0.00    +0.029 C 
ATOM     20  C   UNL     1      31.945  -8.281 -21.146  0.00  0.00    +0.140 C 
ENDBRANCH  13  15
ENDBRANCH  10  13
ENDBRANCH   6  11
BRANCH   4  21
ATOM     21  C   UNL     1      35.133 -18.279 -22.873  0.00  0.00    +0.117 C 
ATOM     22  C   UNL     1      35.191 -19.033 -24.195  0.00  0.00    +0.028 C 
ATOM     23  C   UNL     1      36.527 -17.974 -22.344  0.00  0.00    +0.028 C 
BRANCH  21  25
ATOM     24  O   UNL     1      36.089 -20.275 -21.045  0.00  0.00    -0.265 OA
ATOM     25  N   UNL     1      34.352 -18.997 -21.899  0.00  0.00    -0.293 N 
ATOM     26  C   UNL     1      34.905 -19.949 -21.054  0.00  0.00    +0.302 C 
ATOM     27  H   UNL     1      33.389 -18.804 -21.830  0.00  0.00    +0.150 HD
BRANCH  26  31
ATOM     28  O   UNL     1      34.380 -21.676 -19.372  0.00  0.00    -0.416 OA
ATOM     29  N   UNL     1      32.704 -20.301 -19.924  0.00  0.00    -0.102 NA
ATOM     30  N   UNL     1      32.231 -21.192 -18.980  0.00  0.00    -0.111 NA
ATOM     31  C   UNL     1      33.961 -20.620 -20.122  0.00  0.00    +0.304 A 
ATOM     32  C   UNL     1      33.243 -21.976 -18.687  0.00  0.00    +0.227 A 
ATOM     33  C   UNL     1      33.315 -23.101 -17.746  0.00  0.00    +0.097 C 
ENDBRANCH  26  31
ENDBRANCH  21  25
ENDBRANCH   4  21
BRANCH   8  34
ATOM     34  O   UNL     1      32.255 -13.490 -23.489  0.00  0.00    -0.370 OA
ATOM     35  H   UNL     1      31.846 -13.283 -24.307  0.00  0.00    +0.211 HD
ENDBRANCH   8  34
TORSDOF 7
ENDMDL
MODEL 7
REMARK VINA RESULT:      -9.5      6.664     10.909
REMARK  Name = 54671008
REMARK  7 active torsions:
REMARK  status: ('A' for Active; 'I' for Inactive)
REMARK    1  A    between atoms: C_4  and  C_21
REMARK    2  A    between atoms: C_6  and  C_11
REMARK    3  A    between atoms: C_8  and  O_34
REMARK    4  A    between atoms: N_10  and  C_13
REMARK    5  A    between atoms: C_13  and  C_15
REMARK    6  A    between atoms: C_21  and  N_25
REMARK    7  A    between atoms: C_26  and  C_31
REMARK                            x       y       z     vdW  Elec       q    Type
REMARK                         _______ _______ _______ _____ _____    ______ ____
ROOT
ATOM      1  O   UNL     1      34.348 -17.653 -25.678  0.00  0.00    -0.271 OA
ATOM      2  N   UNL     1      34.101 -16.263 -23.810  0.00  0.00    -0.232 N 
ATOM      3  N   UNL     1      35.179 -16.855 -21.776  0.00  0.00    -0.386 NA
ATOM      4  C   UNL     1      34.429 -16.058 -22.472  0.00  0.00    +0.182 C 
ATOM      5  C   UNL     1      34.579 -17.379 -24.501  0.00  0.00    +0.265 C 
ATOM      6  C   UNL     1      35.671 -17.960 -22.414  0.00  0.00    +0.199 C 
ATOM      7  C   UNL     1      33.247 -15.297 -24.499  0.00  0.00    +0.122 C 
ATOM      8  C   UNL     1      35.440 -18.286 -23.693  0.00  0.00    +0.245 C 
ENDROOT
BRANCH   6  11
ATOM      9  O   UNL     1      37.743 -18.735 -21.624  0.00  0.00    -0.268 OA
ATOM     10  N   UNL     1      35.791 -19.763 -20.871  0.00  0.00    -0.295 N 
ATOM     11  C   UNL     1      36.520 -18.847 -21.605  0.00  0.00    +0.275 C 
ATOM     12  H   UNL     1      34.809 -19.748 -20.946  0.00  0.00    +0.150 HD
BRANCH  10  13
ATOM     13  C   UNL     1      36.399 -20.743 -19.999  0.00  0.00    +0.117 C 
BRANCH  13  15
ATOM     14  F   UNL     1      32.570 -23.471 -16.901  0.00  0.00    -0.204 F 
ATOM     15  C   UNL     1      35.378 -21.471 -19.173  0.00  0.00    -0.002 C 
ATOM     16  C   UNL     1      34.052 -21.536 -19.601  0.00  0.00    -0.000 C 
ATOM     17  C   UNL     1      35.755 -22.081 -17.977  0.00  0.00    -0.000 C 
ATOM     18  C   UNL     1      33.104 -22.211 -18.833  0.00  0.00    +0.029 C 
ATOM     19  C   UNL     1      34.807 -22.756 -17.209  0.00  0.00    +0.029 C 
ATOM     20  C   UNL     1      33.481 -22.821 -17.637  0.00  0.00    +0.140 C 
ENDBRANCH  13  15
ENDBRANCH  10  13
ENDBRANCH   6  11
BRANCH   4  21
ATOM     21  C   UNL     1      33.878 -14.831 -21.784  0.00  0.00    +0.117 C 
ATOM     22  C   UNL     1      32.366 -14.950 -21.655  0.00  0.00    +0.028 C 
ATOM     23  C   UNL     1      34.542 -14.662 -20.425  0.00  0.00    +0.028 C 
BRANCH  21  25
ATOM     24  O   UNL     1      32.358 -12.456 -22.320  0.00  0.00    -0.265 OA
ATOM     25  N   UNL     1      34.241 -13.762 -22.678  0.00  0.00    -0.293 N 
ATOM     26  C   UNL     1      33.438 -12.647 -22.873  0.00  0.00    +0.302 C 
ATOM     27  H   UNL     1      35.093 -13.824 -23.168  0.00  0.00    +0.150 HD
BRANCH  26  31
ATOM     28  O   UNL     1      34.062 -10.339 -23.479  0.00  0.00    -0.416 OA
ATOM     29  N   UNL     1      34.304 -11.875 -25.087  0.00  0.00    -0.102 NA
ATOM     30  N   UNL     1      34.698 -10.654 -25.600  0.00  0.00    -0.111 NA
ATOM     31  C   UNL     1      33.942 -11.644 -23.847  0.00  0.00    +0.304 A 
ATOM     32  C   UNL     1      34.540  -9.787 -24.628  0.00  0.00    +0.227 A 
ATOM     33  C   UNL     1      34.801  -8.342 -24.610  0.00  0.00    +0.097 C 
ENDBRANCH  26  31
ENDBRANCH  21  25
ENDBRANCH   4  21
BRANCH   8  34
ATOM     34  O   UNL     1      35.954 -19.410 -24.299  0.00  0.00    -0.370 OA
ATOM     35  H   UNL     1      36.082 -20.193 -23.802  0.00  0.00    +0.211 HD
ENDBRANCH   8  34
TORSDOF 7
ENDMDL
MODEL 8
REMARK VINA RESULT:      -9.2      7.085     10.472
REMARK  Name = 54671008
REMARK  7 active torsions:
REMARK  status: ('A' for Active; 'I' for Inactive)
REMARK    1  A    between atoms: C_4  and  C_21
REMARK    2  A    between atoms: C_6  and  C_11
REMARK    3  A    between atoms: C_8  and  O_34
REMARK    4  A    between atoms: N_10  and  C_13
REMARK    5  A    between atoms: C_13  and  C_15
REMARK    6  A    between atoms: C_21  and  N_25
REMARK    7  A    between atoms: C_26  and  C_31
REMARK                            x       y       z     vdW  Elec       q    Type
REMARK                         _______ _______ _______ _____ _____    ______ ____
ROOT
ATOM      1  O   UNL     1      32.279 -14.850 -20.116  0.00  0.00    -0.271 OA
ATOM      2  N   UNL     1      33.538 -16.284 -21.471  0.00  0.00    -0.232 N 
ATOM      3  N   UNL     1      34.212 -15.545 -23.628  0.00  0.00    -0.386 NA
ATOM      4  C   UNL     1      34.177 -16.449 -22.698  0.00  0.00    +0.182 C 
ATOM      5  C   UNL     1      32.874 -15.094 -21.164  0.00  0.00    +0.265 C 
ATOM      6  C   UNL     1      33.575 -14.362 -23.369  0.00  0.00    +0.199 C 
ATOM      7  C   UNL     1      33.564 -17.371 -20.494  0.00  0.00    +0.122 C 
ATOM      8  C   UNL     1      32.921 -14.063 -22.238  0.00  0.00    +0.245 C 
ENDROOT
BRANCH   6  11
ATOM      9  O   UNL     1      33.224 -13.613 -25.566  0.00  0.00    -0.268 OA
ATOM     10  N   UNL     1      34.170 -12.154 -24.014  0.00  0.00    -0.295 N 
ATOM     11  C   UNL     1      33.630 -13.354 -24.437  0.00  0.00    +0.275 C 
ATOM     12  H   UNL     1      34.459 -12.075 -23.076  0.00  0.00    +0.150 HD
BRANCH  10  13
ATOM     13  C   UNL     1      34.329 -11.008 -24.880  0.00  0.00    +0.117 C 
BRANCH  13  15
ATOM     14  F   UNL     1      32.896  -6.207 -22.313  0.00  0.00    -0.204 F 
ATOM     15  C   UNL     1      33.947  -9.727 -24.196  0.00  0.00    -0.002 C 
ATOM     16  C   UNL     1      34.863  -8.679 -24.116  0.00  0.00    -0.000 C 
ATOM     17  C   UNL     1      32.676  -9.586 -23.639  0.00  0.00    -0.000 C 
ATOM     18  C   UNL     1      34.508  -7.490 -23.480  0.00  0.00    +0.029 C 
ATOM     19  C   UNL     1      32.321  -8.398 -23.003  0.00  0.00    +0.029 C 
ATOM     20  C   UNL     1      33.237  -7.349 -22.923  0.00  0.00    +0.140 C 
ENDBRANCH  13  15
ENDBRANCH  10  13
ENDBRANCH   6  11
BRANCH   4  21
ATOM     21  C   UNL     1      34.876 -17.760 -22.966  0.00  0.00    +0.117 C 
ATOM     22  C   UNL     1      34.636 -18.185 -24.408  0.00  0.00    +0.028 C 
ATOM     23  C   UNL     1      36.363 -17.622 -22.666  0.00  0.00    +0.028 C 
BRANCH  21  25
ATOM     24  O   UNL     1      36.116 -19.956 -21.594  0.00  0.00    -0.265 OA
ATOM     25  N   UNL     1      34.241 -18.666 -22.045  0.00  0.00    -0.293 N 
ATOM     26  C   UNL     1      34.926 -19.704 -21.426  0.00  0.00    +0.302 C 
ATOM     27  H   UNL     1      33.284 -18.544 -21.845  0.00  0.00    +0.150 HD
BRANCH  26  31
ATOM     28  O   UNL     1      34.741 -21.336 -19.586  0.00  0.00    -0.416 OA
ATOM     29  N   UNL     1      32.814 -20.684 -20.516  0.00  0.00    -0.102 NA
ATOM     30  N   UNL     1      32.520 -21.589 -19.514  0.00  0.00    -0.111 NA
ATOM     31  C   UNL     1      34.121 -20.566 -20.522  0.00  0.00    +0.304 A 
ATOM     32  C   UNL     1      33.674 -21.942 -18.999  0.00  0.00    +0.227 A 
ATOM     33  C   UNL     1      33.964 -22.878 -17.905  0.00  0.00    +0.097 C 
ENDBRANCH  26  31
ENDBRANCH  21  25
ENDBRANCH   4  21
BRANCH   8  34
ATOM     34  O   UNL     1      32.292 -12.860 -22.015  0.00  0.00    -0.370 OA
ATOM     35  H   UNL     1      31.729 -12.497 -22.671  0.00  0.00    +0.211 HD
ENDBRANCH   8  34
TORSDOF 7
ENDMDL
MODEL 9
REMARK VINA RESULT:      -9.2      5.725      9.893
REMARK  Name = 54671008
REMARK  7 active torsions:
REMARK  status: ('A' for Active; 'I' for Inactive)
REMARK    1  A    between atoms: C_4  and  C_21
REMARK    2  A    between atoms: C_6  and  C_11
REMARK    3  A    between atoms: C_8  and  O_34
REMARK    4  A    between atoms: N_10  and  C_13
REMARK    5  A    between atoms: C_13  and  C_15
REMARK    6  A    between atoms: C_21  and  N_25
REMARK    7  A    between atoms: C_26  and  C_31
REMARK                            x       y       z     vdW  Elec       q    Type
REMARK                         _______ _______ _______ _____ _____    ______ ____
ROOT
ATOM      1  O   UNL     1      35.963 -18.650 -23.929  0.00  0.00    -0.271 OA
ATOM      2  N   UNL     1      34.828 -17.084 -22.609  0.00  0.00    -0.232 N 
ATOM      3  N   UNL     1      33.511 -17.847 -20.783  0.00  0.00    -0.386 NA
ATOM      4  C   UNL     1      33.984 -16.889 -21.519  0.00  0.00    +0.182 C 
ATOM      5  C   UNL     1      35.226 -18.370 -22.985  0.00  0.00    +0.265 C 
ATOM      6  C   UNL     1      33.876 -19.123 -21.115  0.00  0.00    +0.199 C 
ATOM      7  C   UNL     1      35.304 -15.930 -23.369  0.00  0.00    +0.122 C 
ATOM      8  C   UNL     1      34.678 -19.462 -22.134  0.00  0.00    +0.245 C 
ENDROOT
BRANCH   6  11
ATOM      9  O   UNL     1      32.137 -20.209 -19.970  0.00  0.00    -0.268 OA
ATOM     10  N   UNL     1      34.286 -21.108 -19.875  0.00  0.00    -0.295 N 
ATOM     11  C   UNL     1      33.329 -20.191 -20.266  0.00  0.00    +0.275 C 
ATOM     12  H   UNL     1      35.212 -20.979 -20.183  0.00  0.00    +0.150 HD
BRANCH  10  13
ATOM     13  C   UNL     1      33.993 -22.249 -19.037  0.00  0.00    +0.117 C 
BRANCH  13  15
ATOM     14  F   UNL     1      37.599 -22.685 -14.735  0.00  0.00    -0.204 F 
ATOM     15  C   UNL     1      34.955 -22.366 -17.890  0.00  0.00    -0.002 C 
ATOM     16  C   UNL     1      34.569 -23.021 -16.721  0.00  0.00    -0.000 C 
ATOM     17  C   UNL     1      36.234 -21.818 -17.993  0.00  0.00    -0.000 C 
ATOM     18  C   UNL     1      35.463 -23.129 -15.655  0.00  0.00    +0.029 C 
ATOM     19  C   UNL     1      37.127 -21.925 -16.927  0.00  0.00    +0.029 C 
ATOM     20  C   UNL     1      36.741 -22.581 -15.758  0.00  0.00    +0.140 C 
ENDBRANCH  13  15
ENDBRANCH  10  13
ENDBRANCH   6  11
BRANCH   4  21
ATOM     21  C   UNL     1      33.593 -15.474 -21.166  0.00  0.00    +0.117 C 
ATOM     22  C   UNL     1      32.152 -15.446 -20.676  0.00  0.00    +0.028 C 
ATOM     23  C   UNL     1      34.549 -14.921 -20.118  0.00  0.00    +0.028 C 
BRANCH  21  25
ATOM     24  O   UNL     1      32.478 -12.912 -21.825  0.00  0.00    -0.265 OA
ATOM     25  N   UNL     1      33.730 -14.773 -22.417  0.00  0.00    -0.293 N 
ATOM     26  C   UNL     1      33.152 -13.531 -22.644  0.00  0.00    +0.302 C 
ATOM     27  H   UNL     1      34.254 -15.191 -23.138  0.00  0.00    +0.150 HD
BRANCH  26  31
ATOM     28  O   UNL     1      33.128 -13.706 -25.104  0.00  0.00    -0.416 OA
ATOM     29  N   UNL     1      33.777 -11.736 -24.267  0.00  0.00    -0.102 NA
ATOM     30  N   UNL     1      33.825 -11.651 -25.645  0.00  0.00    -0.111 NA
ATOM     31  C   UNL     1      33.365 -12.952 -23.996  0.00  0.00    +0.304 A 
ATOM     32  C   UNL     1      33.439 -12.822 -26.092  0.00  0.00    +0.227 A 
ATOM     33  C   UNL     1      33.298 -13.299 -27.474  0.00  0.00    +0.097 C 
ENDBRANCH  26  31
ENDBRANCH  21  25
ENDBRANCH   4  21
BRANCH   8  34
ATOM     34  O   UNL     1      35.022 -20.760 -22.436  0.00  0.00    -0.370 OA
ATOM     35  H   UNL     1      35.036 -21.046 -23.328  0.00  0.00    +0.211 HD
ENDBRANCH   8  34
TORSDOF 7
ENDMDL
