MODEL 1
REMARK VINA RESULT:      -9.3      0.000      0.000
REMARK  Name = 118115473
REMARK  2 active torsions:
REMARK  status: ('A' for Active; 'I' for Inactive)
REMARK    1  A    between atoms: N_1  and  C_15
REMARK    2  A    between atoms: C_21  and  C_22
REMARK                            x       y       z     vdW  Elec       q    Type
REMARK                         _______ _______ _______ _____ _____    ______ ____
ROOT
ATOM      1  N   UNL     1      34.211 -24.368 -14.510  0.00  0.00    -0.321 N 
ATOM      2  N   UNL     1      34.784 -24.072 -12.232  0.00  0.00    -0.233 NA
ATOM      3  N   UNL     1      38.543 -25.271 -13.100  0.00  0.00    -0.300 N 
ATOM      4  N   UNL     1      37.024 -24.515 -11.387  0.00  0.00    -0.233 NA
ATOM      5  C   UNL     1      35.144 -24.420 -13.490  0.00  0.00    +0.113 C 
ATOM      6  C   UNL     1      36.453 -24.828 -13.741  0.00  0.00    +0.131 C 
ATOM      7  C   UNL     1      37.318 -24.848 -12.655  0.00  0.00    +0.117 C 
ATOM      8  C   UNL     1      37.196 -25.256 -14.871  0.00  0.00    +0.004 C 
ATOM      9  C   UNL     1      38.480 -25.521 -14.446  0.00  0.00    +0.059 C 
ATOM     10  C   UNL     1      35.733 -24.141 -11.272  0.00  0.00    +0.252 C 
ATOM     11  H   UNL     1      34.497 -24.626 -15.416  0.00  0.00    +0.148 HD
ATOM     12  H   UNL     1      39.346 -25.379 -12.538  0.00  0.00    +0.153 HD
ENDROOT
BRANCH   1  15
ATOM     13  O   UNL     1      30.742 -22.133 -17.316  0.00  0.00    -0.270 OA
ATOM     14  N   UNL     1      30.688 -23.628 -15.531  0.00  0.00    -0.276 N 
ATOM     15  C   UNL     1      32.838 -23.955 -14.319  0.00  0.00    +0.090 C 
ATOM     16  C   UNL     1      29.935 -24.437 -14.542  0.00  0.00    +0.076 C 
ATOM     17  C   UNL     1      32.143 -24.901 -13.343  0.00  0.00    +0.023 C 
ATOM     18  C   UNL     1      30.676 -24.515 -13.196  0.00  0.00    +0.022 C 
ATOM     19  C   UNL     1      32.119 -23.936 -15.665  0.00  0.00    +0.113 C 
ATOM     20  C   UNL     1      29.611 -25.824 -15.104  0.00  0.00    +0.022 C 
ATOM     21  C   UNL     1      30.125 -22.710 -16.420  0.00  0.00    +0.249 C 
BRANCH  21  22
ATOM     22  C   UNL     1      28.684 -22.406 -16.284  0.00  0.00    +0.058 C 
ATOM     23  C   UNL     1      27.841 -22.856 -17.214  0.00  0.00    +0.005 C 
ENDBRANCH  21  22
ENDBRANCH   1  15
TORSDOF 2
ENDMDL
MODEL 2
REMARK VINA RESULT:      -9.2     14.732     16.832
REMARK  Name = 118115473
REMARK  2 active torsions:
REMARK  status: ('A' for Active; 'I' for Inactive)
REMARK    1  A    between atoms: N_1  and  C_15
REMARK    2  A    between atoms: C_21  and  C_22
REMARK                            x       y       z     vdW  Elec       q    Type
REMARK                         _______ _______ _______ _____ _____    ______ ____
ROOT
ATOM      1  N   UNL     1      33.999 -12.224 -23.870  0.00  0.00    -0.321 N 
ATOM      2  N   UNL     1      33.382 -13.277 -25.899  0.00  0.00    -0.233 NA
ATOM      3  N   UNL     1      34.204 -16.852 -24.204  0.00  0.00    -0.300 N 
ATOM      4  N   UNL     1      33.452 -15.695 -26.181  0.00  0.00    -0.233 NA
ATOM      5  C   UNL     1      33.822 -13.372 -24.622  0.00  0.00    +0.113 C 
ATOM      6  C   UNL     1      34.093 -14.628 -24.080  0.00  0.00    +0.131 C 
ATOM      7  C   UNL     1      33.886 -15.722 -24.909  0.00  0.00    +0.117 C 
ATOM      8  C   UNL     1      34.551 -15.131 -22.835  0.00  0.00    +0.004 C 
ATOM      9  C   UNL     1      34.609 -16.505 -22.941  0.00  0.00    +0.059 C 
ATOM     10  C   UNL     1      33.227 -14.430 -26.590  0.00  0.00    +0.252 C 
ATOM     11  H   UNL     1      34.320 -12.318 -22.945  0.00  0.00    +0.148 HD
ATOM     12  H   UNL     1      34.150 -17.773 -24.550  0.00  0.00    +0.153 HD
ENDROOT
BRANCH   1  15
ATOM     13  O   UNL     1      30.455  -8.784 -23.152  0.00  0.00    -0.270 OA
ATOM     14  N   UNL     1      32.709  -8.714 -23.740  0.00  0.00    -0.276 N 
ATOM     15  C   UNL     1      33.737 -10.892 -24.370  0.00  0.00    +0.090 C 
ATOM     16  C   UNL     1      33.922  -7.956 -24.132  0.00  0.00    +0.076 C 
ATOM     17  C   UNL     1      35.055 -10.182 -24.667  0.00  0.00    +0.023 C 
ATOM     18  C   UNL     1      34.788  -8.752 -25.123  0.00  0.00    +0.022 C 
ATOM     19  C   UNL     1      32.919 -10.113 -23.343  0.00  0.00    +0.113 C 
ATOM     20  C   UNL     1      34.713  -7.515 -22.898  0.00  0.00    +0.022 C 
ATOM     21  C   UNL     1      31.430  -8.172 -23.593  0.00  0.00    +0.249 C 
BRANCH  21  22
ATOM     22  C   UNL     1      31.223  -6.763 -23.989  0.00  0.00    +0.058 C 
ATOM     23  C   UNL     1      31.096  -5.838 -23.036  0.00  0.00    +0.005 C 
ENDBRANCH  21  22
ENDBRANCH   1  15
TORSDOF 2
ENDMDL
MODEL 3
REMARK VINA RESULT:      -9.1     13.164     15.486
REMARK  Name = 118115473
REMARK  2 active torsions:
REMARK  status: ('A' for Active; 'I' for Inactive)
REMARK    1  A    between atoms: N_1  and  C_15
REMARK    2  A    between atoms: C_21  and  C_22
REMARK                            x       y       z     vdW  Elec       q    Type
REMARK                         _______ _______ _______ _____ _____    ______ ____
ROOT
ATOM      1  N   UNL     1      33.866 -12.302 -23.707  0.00  0.00    -0.321 N 
ATOM      2  N   UNL     1      31.947 -11.354 -22.695  0.00  0.00    -0.233 NA
ATOM      3  N   UNL     1      33.437  -7.682 -23.485  0.00  0.00    -0.300 N 
ATOM      4  N   UNL     1      31.621  -8.947 -22.526  0.00  0.00    -0.233 NA
ATOM      5  C   UNL     1      33.135 -11.191 -23.323  0.00  0.00    +0.113 C 
ATOM      6  C   UNL     1      33.609  -9.905 -23.574  0.00  0.00    +0.131 C 
ATOM      7  C   UNL     1      32.807  -8.852 -23.152  0.00  0.00    +0.117 C 
ATOM      8  C   UNL     1      34.757  -9.333 -24.181  0.00  0.00    +0.004 C 
ATOM      9  C   UNL     1      34.623  -7.963 -24.112  0.00  0.00    +0.059 C 
ATOM     10  C   UNL     1      31.273 -10.236 -22.340  0.00  0.00    +0.252 C 
ATOM     11  H   UNL     1      34.726 -12.158 -24.163  0.00  0.00    +0.148 HD
ATOM     12  H   UNL     1      33.090  -6.778 -23.303  0.00  0.00    +0.153 HD
ENDROOT
BRANCH   1  15
ATOM     13  O   UNL     1      34.851 -16.743 -25.758  0.00  0.00    -0.270 OA
ATOM     14  N   UNL     1      34.191 -16.029 -23.641  0.00  0.00    -0.276 N 
ATOM     15  C   UNL     1      33.433 -13.663 -23.479  0.00  0.00    +0.090 C 
ATOM     16  C   UNL     1      33.791 -16.319 -22.243  0.00  0.00    +0.076 C 
ATOM     17  C   UNL     1      33.122 -13.865 -21.998  0.00  0.00    +0.023 C 
ATOM     18  C   UNL     1      32.738 -15.318 -21.739  0.00  0.00    +0.022 C 
ATOM     19  C   UNL     1      34.519 -14.629 -23.944  0.00  0.00    +0.113 C 
ATOM     20  C   UNL     1      35.016 -16.380 -21.327  0.00  0.00    +0.022 C 
ATOM     21  C   UNL     1      34.404 -16.986 -24.636  0.00  0.00    +0.249 C 
BRANCH  21  22
ATOM     22  C   UNL     1      34.076 -18.394 -24.326  0.00  0.00    +0.058 C 
ATOM     23  C   UNL     1      35.057 -19.216 -23.950  0.00  0.00    +0.005 C 
ENDBRANCH  21  22
ENDBRANCH   1  15
TORSDOF 2
ENDMDL
MODEL 4
REMARK VINA RESULT:      -9.1      9.631     11.173
REMARK  Name = 118115473
REMARK  2 active torsions:
REMARK  status: ('A' for Active; 'I' for Inactive)
REMARK    1  A    between atoms: N_1  and  C_15
REMARK    2  A    between atoms: C_21  and  C_22
REMARK                            x       y       z     vdW  Elec       q    Type
REMARK                         _______ _______ _______ _____ _____    ______ ____
ROOT
ATOM      1  N   UNL     1      33.979 -17.960 -21.439  0.00  0.00    -0.321 N 
ATOM      2  N   UNL     1      36.229 -18.604 -21.082  0.00  0.00    -0.233 NA
ATOM      3  N   UNL     1      34.901 -22.029 -19.400  0.00  0.00    -0.300 N 
ATOM      4  N   UNL     1      36.824 -20.714 -20.023  0.00  0.00    -0.233 NA
ATOM      5  C   UNL     1      34.907 -18.873 -20.970  0.00  0.00    +0.113 C 
ATOM      6  C   UNL     1      34.496 -20.068 -20.382  0.00  0.00    +0.131 C 
ATOM      7  C   UNL     1      35.498 -20.922 -19.941  0.00  0.00    +0.117 C 
ATOM      8  C   UNL     1      33.258 -20.696 -20.090  0.00  0.00    +0.004 C 
ATOM      9  C   UNL     1      33.539 -21.903 -19.486  0.00  0.00    +0.059 C 
ATOM     10  C   UNL     1      37.094 -19.529 -20.607  0.00  0.00    +0.252 C 
ATOM     11  H   UNL     1      33.024 -18.177 -21.346  0.00  0.00    +0.148 HD
ATOM     12  H   UNL     1      35.377 -22.799 -19.010  0.00  0.00    +0.153 HD
ENDROOT
BRANCH   1  15
ATOM     13  O   UNL     1      33.332 -15.896 -25.937  0.00  0.00    -0.270 OA
ATOM     14  N   UNL     1      33.584 -15.063 -23.775  0.00  0.00    -0.276 N 
ATOM     15  C   UNL     1      34.336 -16.702 -22.059  0.00  0.00    +0.090 C 
ATOM     16  C   UNL     1      33.701 -13.926 -22.831  0.00  0.00    +0.076 C 
ATOM     17  C   UNL     1      34.352 -15.594 -21.009  0.00  0.00    +0.023 C 
ATOM     18  C   UNL     1      34.654 -14.253 -21.670  0.00  0.00    +0.022 C 
ATOM     19  C   UNL     1      33.343 -16.383 -23.173  0.00  0.00    +0.113 C 
ATOM     20  C   UNL     1      32.322 -13.480 -22.340  0.00  0.00    +0.022 C 
ATOM     21  C   UNL     1      33.550 -14.959 -25.168  0.00  0.00    +0.249 C 
BRANCH  21  22
ATOM     22  C   UNL     1      33.788 -13.629 -25.769  0.00  0.00    +0.058 C 
ATOM     23  C   UNL     1      33.254 -13.357 -26.961  0.00  0.00    +0.005 C 
ENDBRANCH  21  22
ENDBRANCH   1  15
TORSDOF 2
ENDMDL
MODEL 5
REMARK VINA RESULT:      -8.7      9.039     11.328
REMARK  Name = 118115473
REMARK  2 active torsions:
REMARK  status: ('A' for Active; 'I' for Inactive)
REMARK    1  A    between atoms: N_1  and  C_15
REMARK    2  A    between atoms: C_21  and  C_22
REMARK                            x       y       z     vdW  Elec       q    Type
REMARK                         _______ _______ _______ _____ _____    ______ ____
ROOT
ATOM      1  N   UNL     1      34.677 -18.009 -22.520  0.00  0.00    -0.321 N 
ATOM      2  N   UNL     1      34.518 -15.898 -21.461  0.00  0.00    -0.233 NA
ATOM      3  N   UNL     1      33.566 -14.263 -25.030  0.00  0.00    -0.300 N 
ATOM      4  N   UNL     1      33.943 -13.871 -22.681  0.00  0.00    -0.233 NA
ATOM      5  C   UNL     1      34.433 -16.649 -22.584  0.00  0.00    +0.113 C 
ATOM      6  C   UNL     1      34.101 -16.040 -23.793  0.00  0.00    +0.131 C 
ATOM      7  C   UNL     1      33.875 -14.670 -23.760  0.00  0.00    +0.117 C 
ATOM      8  C   UNL     1      33.918 -16.458 -25.137  0.00  0.00    +0.004 C 
ATOM      9  C   UNL     1      33.588 -15.342 -25.875  0.00  0.00    +0.059 C 
ATOM     10  C   UNL     1      34.272 -14.573 -21.578  0.00  0.00    +0.252 C 
ATOM     11  H   UNL     1      34.608 -18.534 -23.350  0.00  0.00    +0.148 HD
ATOM     12  H   UNL     1      33.358 -13.337 -25.296  0.00  0.00    +0.153 HD
ENDROOT
BRANCH   1  15
ATOM     13  O   UNL     1      32.584 -21.582 -19.735  0.00  0.00    -0.270 OA
ATOM     14  N   UNL     1      34.772 -20.886 -20.129  0.00  0.00    -0.276 N 
ATOM     15  C   UNL     1      35.025 -18.704 -21.300  0.00  0.00    +0.090 C 
ATOM     16  C   UNL     1      36.230 -20.992 -19.878  0.00  0.00    +0.076 C 
ATOM     17  C   UNL     1      36.543 -18.819 -21.185  0.00  0.00    +0.023 C 
ATOM     18  C   UNL     1      36.913 -19.615 -19.939  0.00  0.00    +0.022 C 
ATOM     19  C   UNL     1      34.372 -20.083 -21.293  0.00  0.00    +0.113 C 
ATOM     20  C   UNL     1      36.876 -22.001 -20.831  0.00  0.00    +0.022 C 
ATOM     21  C   UNL     1      33.780 -21.587 -19.439  0.00  0.00    +0.249 C 
BRANCH  21  22
ATOM     22  C   UNL     1      34.187 -22.397 -18.272  0.00  0.00    +0.058 C 
ATOM     23  C   UNL     1      33.254 -23.074 -17.601  0.00  0.00    +0.005 C 
ENDBRANCH  21  22
ENDBRANCH   1  15
TORSDOF 2
ENDMDL
MODEL 6
REMARK VINA RESULT:      -8.5     13.309     15.165
REMARK  Name = 118115473
REMARK  2 active torsions:
REMARK  status: ('A' for Active; 'I' for Inactive)
REMARK    1  A    between atoms: N_1  and  C_15
REMARK    2  A    between atoms: C_21  and  C_22
REMARK                            x       y       z     vdW  Elec       q    Type
REMARK                         _______ _______ _______ _____ _____    ______ ____
ROOT
ATOM      1  N   UNL     1      33.561 -13.477 -23.662  0.00  0.00    -0.321 N 
ATOM      2  N   UNL     1      34.366 -14.661 -21.776  0.00  0.00    -0.233 NA
ATOM      3  N   UNL     1      34.729 -17.952 -24.092  0.00  0.00    -0.300 N 
ATOM      4  N   UNL     1      35.007 -17.007 -21.891  0.00  0.00    -0.233 NA
ATOM      5  C   UNL     1      34.036 -14.644 -23.089  0.00  0.00    +0.113 C 
ATOM      6  C   UNL     1      34.178 -15.804 -23.848  0.00  0.00    +0.131 C 
ATOM      7  C   UNL     1      34.662 -16.925 -23.187  0.00  0.00    +0.117 C 
ATOM      8  C   UNL     1      33.951 -16.183 -25.196  0.00  0.00    +0.004 C 
ATOM      9  C   UNL     1      34.300 -17.511 -25.317  0.00  0.00    +0.059 C 
ATOM     10  C   UNL     1      34.825 -15.826 -21.266  0.00  0.00    +0.252 C 
ATOM     11  H   UNL     1      33.327 -13.489 -24.618  0.00  0.00    +0.148 HD
ATOM     12  H   UNL     1      35.039 -18.866 -23.893  0.00  0.00    +0.153 HD
ENDROOT
BRANCH   1  15
ATOM     13  O   UNL     1      35.091  -8.762 -24.241  0.00  0.00    -0.270 OA
ATOM     14  N   UNL     1      33.247  -9.772 -23.237  0.00  0.00    -0.276 N 
ATOM     15  C   UNL     1      33.390 -12.239 -22.933  0.00  0.00    +0.090 C 
ATOM     16  C   UNL     1      31.986  -9.687 -22.462  0.00  0.00    +0.076 C 
ATOM     17  C   UNL     1      32.030 -12.231 -22.239  0.00  0.00    +0.023 C 
ATOM     18  C   UNL     1      31.813 -10.899 -21.531  0.00  0.00    +0.022 C 
ATOM     19  C   UNL     1      33.518 -11.060 -23.893  0.00  0.00    +0.113 C 
ATOM     20  C   UNL     1      30.785  -9.496 -23.392  0.00  0.00    +0.022 C 
ATOM     21  C   UNL     1      34.111  -8.706 -23.497  0.00  0.00    +0.249 C 
BRANCH  21  22
ATOM     22  C   UNL     1      33.832  -7.412 -22.839  0.00  0.00    +0.058 C 
ATOM     23  C   UNL     1      33.137  -6.488 -23.504  0.00  0.00    +0.005 C 
ENDBRANCH  21  22
ENDBRANCH   1  15
TORSDOF 2
ENDMDL
MODEL 7
REMARK VINA RESULT:      -8.5      4.383      6.770
REMARK  Name = 118115473
REMARK  2 active torsions:
REMARK  status: ('A' for Active; 'I' for Inactive)
REMARK    1  A    between atoms: N_1  and  C_15
REMARK    2  A    between atoms: C_21  and  C_22
REMARK                            x       y       z     vdW  Elec       q    Type
REMARK                         _______ _______ _______ _____ _____    ______ ____
ROOT
ATOM      1  N   UNL     1      32.991 -22.411 -18.211  0.00  0.00    -0.321 N 
ATOM      2  N   UNL     1      35.350 -22.212 -18.248  0.00  0.00    -0.233 NA
ATOM      3  N   UNL     1      35.010 -19.661 -21.362  0.00  0.00    -0.300 N 
ATOM      4  N   UNL     1      36.510 -20.799 -19.856  0.00  0.00    -0.233 NA
ATOM      5  C   UNL     1      34.143 -21.874 -18.760  0.00  0.00    +0.113 C 
ATOM      6  C   UNL     1      34.075 -20.990 -19.835  0.00  0.00    +0.131 C 
ATOM      7  C   UNL     1      35.283 -20.504 -20.319  0.00  0.00    +0.117 C 
ATOM      8  C   UNL     1      33.049 -20.411 -20.625  0.00  0.00    +0.004 C 
ATOM      9  C   UNL     1      33.655 -19.596 -21.557  0.00  0.00    +0.059 C 
ATOM     10  C   UNL     1      36.444 -21.661 -18.822  0.00  0.00    +0.252 C 
ATOM     11  H   UNL     1      32.125 -22.150 -18.600  0.00  0.00    +0.148 HD
ATOM     12  H   UNL     1      35.684 -19.175 -21.892  0.00  0.00    +0.153 HD
ENDROOT
BRANCH   1  15
ATOM     13  O   UNL     1      36.146 -23.528 -14.509  0.00  0.00    -0.270 OA
ATOM     14  N   UNL     1      33.833 -23.621 -14.771  0.00  0.00    -0.276 N 
ATOM     15  C   UNL     1      32.990 -23.333 -17.096  0.00  0.00    +0.090 C 
ATOM     16  C   UNL     1      32.483 -23.958 -14.257  0.00  0.00    +0.076 C 
ATOM     17  C   UNL     1      31.561 -23.545 -16.603  0.00  0.00    +0.023 C 
ATOM     18  C   UNL     1      31.560 -24.457 -15.381  0.00  0.00    +0.022 C 
ATOM     19  C   UNL     1      33.875 -22.785 -15.980  0.00  0.00    +0.113 C 
ATOM     20  C   UNL     1      31.879 -22.777 -13.494  0.00  0.00    +0.022 C 
ATOM     21  C   UNL     1      35.039 -23.917 -14.133  0.00  0.00    +0.249 C 
BRANCH  21  22
ATOM     22  C   UNL     1      34.992 -24.755 -12.915  0.00  0.00    +0.058 C 
ATOM     23  C   UNL     1      35.687 -24.372 -11.843  0.00  0.00    +0.005 C 
ENDBRANCH  21  22
ENDBRANCH   1  15
TORSDOF 2
ENDMDL
MODEL 8
REMARK VINA RESULT:      -8.4     12.794     14.723
REMARK  Name = 118115473
REMARK  2 active torsions:
REMARK  status: ('A' for Active; 'I' for Inactive)
REMARK    1  A    between atoms: N_1  and  C_15
REMARK    2  A    between atoms: C_21  and  C_22
REMARK                            x       y       z     vdW  Elec       q    Type
REMARK                         _______ _______ _______ _____ _____    ______ ____
ROOT
ATOM      1  N   UNL     1      33.786 -14.247 -22.793  0.00  0.00    -0.321 N 
ATOM      2  N   UNL     1      33.842 -15.613 -24.726  0.00  0.00    -0.233 NA
ATOM      3  N   UNL     1      35.353 -18.607 -22.472  0.00  0.00    -0.300 N 
ATOM      4  N   UNL     1      34.644 -17.912 -24.670  0.00  0.00    -0.233 NA
ATOM      5  C   UNL     1      34.071 -15.457 -23.401  0.00  0.00    +0.113 C 
ATOM      6  C   UNL     1      34.594 -16.519 -22.664  0.00  0.00    +0.131 C 
ATOM      7  C   UNL     1      34.849 -17.693 -23.359  0.00  0.00    +0.117 C 
ATOM      8  C   UNL     1      34.962 -16.748 -21.313  0.00  0.00    +0.004 C 
ATOM      9  C   UNL     1      35.425 -18.043 -21.225  0.00  0.00    +0.059 C 
ATOM     10  C   UNL     1      34.140 -16.815 -25.271  0.00  0.00    +0.252 C 
ATOM     11  H   UNL     1      33.961 -14.158 -21.829  0.00  0.00    +0.148 HD
ATOM     12  H   UNL     1      35.622 -19.528 -22.696  0.00  0.00    +0.153 HD
ENDROOT
BRANCH   1  15
ATOM     13  O   UNL     1      31.174 -10.190 -21.520  0.00  0.00    -0.270 OA
ATOM     14  N   UNL     1      32.686 -10.696 -23.219  0.00  0.00    -0.276 N 
ATOM     15  C   UNL     1      33.242 -13.106 -23.498  0.00  0.00    +0.090 C 
ATOM     16  C   UNL     1      33.434 -10.317 -24.442  0.00  0.00    +0.076 C 
ATOM     17  C   UNL     1      34.132 -12.762 -24.689  0.00  0.00    +0.023 C 
ATOM     18  C   UNL     1      33.606 -11.515 -25.391  0.00  0.00    +0.022 C 
ATOM     19  C   UNL     1      33.131 -11.922 -22.541  0.00  0.00    +0.113 C 
ATOM     20  C   UNL     1      34.772  -9.666 -24.084  0.00  0.00    +0.022 C 
ATOM     21  C   UNL     1      31.702  -9.921 -22.600  0.00  0.00    +0.249 C 
BRANCH  21  22
ATOM     22  C   UNL     1      31.261  -8.686 -23.283  0.00  0.00    +0.058 C 
ATOM     23  C   UNL     1      31.564  -7.506 -22.739  0.00  0.00    +0.005 C 
ENDBRANCH  21  22
ENDBRANCH   1  15
TORSDOF 2
ENDMDL
MODEL 9
REMARK VINA RESULT:      -8.4      9.975     11.662
REMARK  Name = 118115473
REMARK  2 active torsions:
REMARK  status: ('A' for Active; 'I' for Inactive)
REMARK    1  A    between atoms: N_1  and  C_15
REMARK    2  A    between atoms: C_21  and  C_22
REMARK                            x       y       z     vdW  Elec       q    Type
REMARK                         _______ _______ _______ _____ _____    ______ ____
ROOT
ATOM      1  N   UNL     1      34.640 -16.824 -22.036  0.00  0.00    -0.321 N 
ATOM      2  N   UNL     1      33.015 -18.375 -21.291  0.00  0.00    -0.233 NA
ATOM      3  N   UNL     1      36.004 -20.811 -20.084  0.00  0.00    -0.300 N 
ATOM      4  N   UNL     1      33.620 -20.494 -20.254  0.00  0.00    -0.233 NA
ATOM      5  C   UNL     1      34.315 -18.033 -21.448  0.00  0.00    +0.113 C 
ATOM      6  C   UNL     1      35.313 -18.907 -21.017  0.00  0.00    +0.131 C 
ATOM      7  C   UNL     1      34.891 -20.097 -20.439  0.00  0.00    +0.117 C 
ATOM      8  C   UNL     1      36.731 -18.919 -21.002  0.00  0.00    +0.004 C 
ATOM      9  C   UNL     1      37.128 -20.104 -20.421  0.00  0.00    +0.059 C 
ATOM     10  C   UNL     1      32.752 -19.569 -20.712  0.00  0.00    +0.252 C 
ATOM     11  H   UNL     1      35.593 -16.597 -22.140  0.00  0.00    +0.148 HD
ATOM     12  H   UNL     1      35.998 -21.697 -19.653  0.00  0.00    +0.153 HD
ENDROOT
BRANCH   1  15
ATOM     13  O   UNL     1      32.164 -12.981 -20.036  0.00  0.00    -0.270 OA
ATOM     14  N   UNL     1      32.863 -13.534 -22.188  0.00  0.00    -0.276 N 
ATOM     15  C   UNL     1      33.657 -15.872 -22.506  0.00  0.00    +0.090 C 
ATOM     16  C   UNL     1      32.934 -13.246 -23.641  0.00  0.00    +0.076 C 
ATOM     17  C   UNL     1      33.874 -15.595 -23.992  0.00  0.00    +0.023 C 
ATOM     18  C   UNL     1      32.888 -14.537 -24.475  0.00  0.00    +0.022 C 
ATOM     19  C   UNL     1      33.762 -14.586 -21.692  0.00  0.00    +0.113 C 
ATOM     20  C   UNL     1      34.160 -12.390 -23.968  0.00  0.00    +0.022 C 
ATOM     21  C   UNL     1      32.121 -12.806 -21.254  0.00  0.00    +0.249 C 
BRANCH  21  22
ATOM     22  C   UNL     1      31.222 -11.747 -21.758  0.00  0.00    +0.058 C 
ATOM     23  C   UNL     1      31.547 -10.471 -21.544  0.00  0.00    +0.005 C 
ENDBRANCH  21  22
ENDBRANCH   1  15
TORSDOF 2
ENDMDL
