MODEL 1
REMARK VINA RESULT:     -10.3      0.000      0.000
REMARK  Name = 9884366
REMARK  4 active torsions:
REMARK  status: ('A' for Active; 'I' for Inactive)
REMARK    1  A    between atoms: N_2  and  C_23
REMARK    2  A    between atoms: C_6  and  C_15
REMARK    3  A    between atoms: C_20  and  O_21
REMARK    4  A    between atoms: C_23  and  C_25
REMARK                            x       y       z     vdW  Elec       q    Type
REMARK                         _______ _______ _______ _____ _____    ______ ____
ROOT
ATOM      1  N   UNL     1      33.938 -16.528 -23.444  0.00  0.00    -0.124 N 
ATOM      2  N   UNL     1      33.574 -14.702 -24.902  0.00  0.00    -0.296 N 
ATOM      3  N   UNL     1      34.379 -17.317 -24.440  0.00  0.00    -0.177 NA
ATOM      4  N   UNL     1      33.506 -16.442 -21.129  0.00  0.00    -0.331 NA
ATOM      5  N   UNL     1      33.124 -14.568 -22.577  0.00  0.00    -0.311 NA
ATOM      6  C   UNL     1      34.396 -18.408 -22.430  0.00  0.00    +0.118 C 
ATOM      7  C   UNL     1      33.927 -17.131 -22.216  0.00  0.00    +0.204 C 
ATOM      8  C   UNL     1      33.527 -15.215 -23.634  0.00  0.00    +0.274 C 
ATOM      9  C   UNL     1      34.658 -18.464 -23.814  0.00  0.00    +0.064 C 
ATOM     10  C   UNL     1      33.130 -15.216 -21.353  0.00  0.00    +0.119 C 
ATOM     11  C   UNL     1      35.178 -19.604 -24.590  0.00  0.00    +0.049 C 
ATOM     12  C   UNL     1      32.645 -14.374 -20.205  0.00  0.00    +0.143 C 
ATOM     13  H   UNL     1      33.882 -15.282 -25.636  0.00  0.00    +0.150 HD
ENDROOT
BRANCH   6  15
ATOM     14  N   UNL     1      35.968 -20.620 -19.872  0.00  0.00    -0.376 NA
ATOM     15  C   UNL     1      34.549 -19.390 -21.400  0.00  0.00    +0.084 C 
ATOM     16  C   UNL     1      35.782 -19.700 -20.845  0.00  0.00    +0.095 C 
ATOM     17  C   UNL     1      33.435 -20.075 -20.920  0.00  0.00    -0.013 C 
ATOM     18  C   UNL     1      37.022 -19.006 -21.310  0.00  0.00    +0.062 C 
ATOM     19  C   UNL     1      33.586 -21.028 -19.919  0.00  0.00    +0.067 C 
ATOM     20  C   UNL     1      34.862 -21.262 -19.433  0.00  0.00    +0.277 C 
BRANCH  20  21
ATOM     21  O   UNL     1      35.037 -22.198 -18.448  0.00  0.00    -0.448 OA
ATOM     22  C   UNL     1      33.864 -22.834 -17.954  0.00  0.00    +0.255 C 
ENDBRANCH  20  21
ENDBRANCH   6  15
BRANCH   2  23
ATOM     23  C   UNL     1      33.194 -13.355 -25.198  0.00  0.00    +0.073 C 
ATOM     24  C   UNL     1      33.310 -13.136 -26.703  0.00  0.00    +0.021 C 
BRANCH  23  25
ATOM     25  C   UNL     1      34.085 -12.371 -24.430  0.00  0.00    +0.020 C 
ATOM     26  C   UNL     1      34.397 -11.114 -25.231  0.00  0.00    +0.002 C 
ENDBRANCH  23  25
ENDBRANCH   2  23
TORSDOF 4
ENDMDL
MODEL 2
REMARK VINA RESULT:      -9.9      5.644     10.304
REMARK  Name = 9884366
REMARK  4 active torsions:
REMARK  status: ('A' for Active; 'I' for Inactive)
REMARK    1  A    between atoms: N_2  and  C_23
REMARK    2  A    between atoms: C_6  and  C_15
REMARK    3  A    between atoms: C_20  and  O_21
REMARK    4  A    between atoms: C_23  and  C_25
REMARK                            x       y       z     vdW  Elec       q    Type
REMARK                         _______ _______ _______ _____ _____    ______ ____
ROOT
ATOM      1  N   UNL     1      32.828 -11.807 -23.061  0.00  0.00    -0.124 N 
ATOM      2  N   UNL     1      33.577 -14.035 -23.324  0.00  0.00    -0.296 N 
ATOM      3  N   UNL     1      31.968 -12.145 -22.083  0.00  0.00    -0.177 NA
ATOM      4  N   UNL     1      33.651 -10.006 -24.338  0.00  0.00    -0.331 NA
ATOM      5  N   UNL     1      34.435 -12.254 -24.635  0.00  0.00    -0.311 NA
ATOM      6  C   UNL     1      31.898  -9.903 -22.532  0.00  0.00    +0.118 C 
ATOM      7  C   UNL     1      32.828 -10.475 -23.371  0.00  0.00    +0.204 C 
ATOM      8  C   UNL     1      33.650 -12.723 -23.706  0.00  0.00    +0.274 C 
ATOM      9  C   UNL     1      31.403 -10.977 -21.765  0.00  0.00    +0.064 C 
ATOM     10  C   UNL     1      34.403 -10.898 -24.916  0.00  0.00    +0.119 C 
ATOM     11  C   UNL     1      30.379 -10.934 -20.705  0.00  0.00    +0.049 C 
ATOM     12  C   UNL     1      35.349 -10.470 -26.004  0.00  0.00    +0.143 C 
ATOM     13  H   UNL     1      32.937 -14.288 -22.620  0.00  0.00    +0.150 HD
ENDROOT
BRANCH   6  15
ATOM     14  N   UNL     1      31.641  -6.353 -21.420  0.00  0.00    -0.376 NA
ATOM     15  C   UNL     1      31.576  -8.508 -22.521  0.00  0.00    +0.084 C 
ATOM     16  C   UNL     1      31.926  -7.673 -21.469  0.00  0.00    +0.095 C 
ATOM     17  C   UNL     1      30.888  -7.943 -23.592  0.00  0.00    -0.013 C 
ATOM     18  C   UNL     1      32.665  -8.209 -20.285  0.00  0.00    +0.062 C 
ATOM     19  C   UNL     1      30.577  -6.589 -23.578  0.00  0.00    +0.067 C 
ATOM     20  C   UNL     1      30.972  -5.843 -22.479  0.00  0.00    +0.277 C 
BRANCH  20  21
ATOM     21  O   UNL     1      30.677  -4.506 -22.442  0.00  0.00    -0.448 OA
ATOM     22  C   UNL     1      31.276  -3.689 -23.442  0.00  0.00    +0.255 C 
ENDBRANCH  20  21
ENDBRANCH   6  15
BRANCH   2  23
ATOM     23  C   UNL     1      34.396 -15.050 -23.911  0.00  0.00    +0.073 C 
ATOM     24  C   UNL     1      33.625 -15.694 -25.059  0.00  0.00    +0.021 C 
BRANCH  23  25
ATOM     25  C   UNL     1      34.784 -16.095 -22.858  0.00  0.00    +0.020 C 
ATOM     26  C   UNL     1      34.496 -15.629 -21.436  0.00  0.00    +0.002 C 
ENDBRANCH  23  25
ENDBRANCH   2  23
TORSDOF 4
ENDMDL
MODEL 3
REMARK VINA RESULT:      -9.5      4.397      7.283
REMARK  Name = 9884366
REMARK  4 active torsions:
REMARK  status: ('A' for Active; 'I' for Inactive)
REMARK    1  A    between atoms: N_2  and  C_23
REMARK    2  A    between atoms: C_6  and  C_15
REMARK    3  A    between atoms: C_20  and  O_21
REMARK    4  A    between atoms: C_23  and  C_25
REMARK                            x       y       z     vdW  Elec       q    Type
REMARK                         _______ _______ _______ _____ _____    ______ ____
ROOT
ATOM      1  N   UNL     1      33.286  -9.970 -23.458  0.00  0.00    -0.124 N 
ATOM      2  N   UNL     1      33.055  -7.750 -22.676  0.00  0.00    -0.296 N 
ATOM      3  N   UNL     1      34.207  -9.618 -24.374  0.00  0.00    -0.177 NA
ATOM      4  N   UNL     1      32.074 -11.787 -22.575  0.00  0.00    -0.331 NA
ATOM      5  N   UNL     1      31.812  -9.547 -21.754  0.00  0.00    -0.311 NA
ATOM      6  C   UNL     1      33.769 -11.862 -24.437  0.00  0.00    +0.118 C 
ATOM      7  C   UNL     1      32.986 -11.304 -23.452  0.00  0.00    +0.204 C 
ATOM      8  C   UNL     1      32.687  -9.066 -22.591  0.00  0.00    +0.274 C 
ATOM      9  C   UNL     1      34.498 -10.779 -24.968  0.00  0.00    +0.064 C 
ATOM     10  C   UNL     1      31.537 -10.904 -21.781  0.00  0.00    +0.119 C 
ATOM     11  C   UNL     1      35.493 -10.806 -26.056  0.00  0.00    +0.049 C 
ATOM     12  C   UNL     1      30.512 -11.348 -20.774  0.00  0.00    +0.143 C 
ATOM     13  H   UNL     1      33.717  -7.487 -23.355  0.00  0.00    +0.150 HD
ENDROOT
BRANCH   6  15
ATOM     14  N   UNL     1      33.369 -15.023 -26.375  0.00  0.00    -0.376 NA
ATOM     15  C   UNL     1      33.768 -13.254 -24.771  0.00  0.00    +0.084 C 
ATOM     16  C   UNL     1      33.383 -13.718 -26.021  0.00  0.00    +0.095 C 
ATOM     17  C   UNL     1      34.164 -14.198 -23.826  0.00  0.00    -0.013 C 
ATOM     18  C   UNL     1      32.946 -12.765 -27.085  0.00  0.00    +0.062 C 
ATOM     19  C   UNL     1      34.163 -15.548 -24.153  0.00  0.00    +0.067 C 
ATOM     20  C   UNL     1      33.760 -15.906 -25.430  0.00  0.00    +0.277 C 
BRANCH  20  21
ATOM     21  O   UNL     1      33.749 -17.232 -25.776  0.00  0.00    -0.448 OA
ATOM     22  C   UNL     1      34.491 -18.117 -24.944  0.00  0.00    +0.255 C 
ENDBRANCH  20  21
ENDBRANCH   6  15
BRANCH   2  23
ATOM     23  C   UNL     1      32.514  -6.746 -21.813  0.00  0.00    +0.073 C 
ATOM     24  C   UNL     1      32.474  -7.294 -20.391  0.00  0.00    +0.021 C 
BRANCH  23  25
ATOM     25  C   UNL     1      31.112  -6.341 -22.284  0.00  0.00    +0.020 C 
ATOM     26  C   UNL     1      31.099  -5.832 -23.720  0.00  0.00    +0.002 C 
ENDBRANCH  23  25
ENDBRANCH   2  23
TORSDOF 4
ENDMDL
MODEL 4
REMARK VINA RESULT:      -9.2      3.973      6.819
REMARK  Name = 9884366
REMARK  4 active torsions:
REMARK  status: ('A' for Active; 'I' for Inactive)
REMARK    1  A    between atoms: N_2  and  C_23
REMARK    2  A    between atoms: C_6  and  C_15
REMARK    3  A    between atoms: C_20  and  O_21
REMARK    4  A    between atoms: C_23  and  C_25
REMARK                            x       y       z     vdW  Elec       q    Type
REMARK                         _______ _______ _______ _____ _____    ______ ____
ROOT
ATOM      1  N   UNL     1      32.906 -10.289 -23.676  0.00  0.00    -0.124 N 
ATOM      2  N   UNL     1      32.367  -8.024 -23.261  0.00  0.00    -0.296 N 
ATOM      3  N   UNL     1      33.743  -9.971 -24.680  0.00  0.00    -0.177 NA
ATOM      4  N   UNL     1      31.995 -12.082 -22.448  0.00  0.00    -0.331 NA
ATOM      5  N   UNL     1      31.424  -9.795 -21.997  0.00  0.00    -0.311 NA
ATOM      6  C   UNL     1      33.639 -12.232 -24.351  0.00  0.00    +0.118 C 
ATOM      7  C   UNL     1      32.805 -11.631 -23.435  0.00  0.00    +0.204 C 
ATOM      8  C   UNL     1      32.199  -9.344 -22.942  0.00  0.00    +0.274 C 
ATOM      9  C   UNL     1      34.188 -11.163 -25.088  0.00  0.00    +0.064 C 
ATOM     10  C   UNL     1      31.353 -11.162 -21.786  0.00  0.00    +0.119 C 
ATOM     11  C   UNL     1      35.150 -11.233 -26.202  0.00  0.00    +0.049 C 
ATOM     12  C   UNL     1      30.428 -11.569 -20.672  0.00  0.00    +0.143 C 
ATOM     13  H   UNL     1      32.967  -7.788 -24.005  0.00  0.00    +0.150 HD
ENDROOT
BRANCH   6  15
ATOM     14  N   UNL     1      33.591 -15.714 -25.685  0.00  0.00    -0.376 NA
ATOM     15  C   UNL     1      33.837 -13.646 -24.450  0.00  0.00    +0.084 C 
ATOM     16  C   UNL     1      33.423 -14.379 -25.553  0.00  0.00    +0.095 C 
ATOM     17  C   UNL     1      34.465 -14.336 -23.416  0.00  0.00    -0.013 C 
ATOM     18  C   UNL     1      32.742 -13.707 -26.702  0.00  0.00    +0.062 C 
ATOM     19  C   UNL     1      34.656 -15.710 -23.516  0.00  0.00    +0.067 C 
ATOM     20  C   UNL     1      34.205 -16.346 -24.660  0.00  0.00    +0.277 C 
BRANCH  20  21
ATOM     21  O   UNL     1      34.380 -17.699 -24.782  0.00  0.00    -0.448 OA
ATOM     22  C   UNL     1      34.981 -18.369 -23.678  0.00  0.00    +0.255 C 
ENDBRANCH  20  21
ENDBRANCH   6  15
BRANCH   2  23
ATOM     23  C   UNL     1      31.702  -6.974 -22.551  0.00  0.00    +0.073 C 
ATOM     24  C   UNL     1      31.300  -5.892 -23.547  0.00  0.00    +0.021 C 
BRANCH  23  25
ATOM     25  C   UNL     1      32.621  -6.404 -21.463  0.00  0.00    +0.020 C 
ATOM     26  C   UNL     1      32.361  -7.020 -20.094  0.00  0.00    +0.002 C 
ENDBRANCH  23  25
ENDBRANCH   2  23
TORSDOF 4
ENDMDL
MODEL 5
REMARK VINA RESULT:      -9.1      3.823      6.585
REMARK  Name = 9884366
REMARK  4 active torsions:
REMARK  status: ('A' for Active; 'I' for Inactive)
REMARK    1  A    between atoms: N_2  and  C_23
REMARK    2  A    between atoms: C_6  and  C_15
REMARK    3  A    between atoms: C_20  and  O_21
REMARK    4  A    between atoms: C_23  and  C_25
REMARK                            x       y       z     vdW  Elec       q    Type
REMARK                         _______ _______ _______ _____ _____    ______ ____
ROOT
ATOM      1  N   UNL     1      33.214 -11.103 -23.255  0.00  0.00    -0.124 N 
ATOM      2  N   UNL     1      32.761  -8.860 -22.661  0.00  0.00    -0.296 N 
ATOM      3  N   UNL     1      32.429 -11.587 -22.276  0.00  0.00    -0.177 NA
ATOM      4  N   UNL     1      34.629 -11.709 -25.039  0.00  0.00    -0.331 NA
ATOM      5  N   UNL     1      34.194  -9.420 -24.465  0.00  0.00    -0.311 NA
ATOM      6  C   UNL     1      33.388 -13.267 -23.498  0.00  0.00    +0.118 C 
ATOM      7  C   UNL     1      33.814 -12.066 -24.019  0.00  0.00    +0.204 C 
ATOM      8  C   UNL     1      33.406  -9.746 -23.480  0.00  0.00    +0.274 C 
ATOM      9  C   UNL     1      32.539 -12.910 -22.430  0.00  0.00    +0.064 C 
ATOM     10  C   UNL     1      34.781 -10.427 -25.213  0.00  0.00    +0.119 C 
ATOM     11  C   UNL     1      31.805 -13.808 -21.520  0.00  0.00    +0.049 C 
ATOM     12  C   UNL     1      35.670  -9.936 -26.322  0.00  0.00    +0.143 C 
ATOM     13  H   UNL     1      32.198  -9.211 -21.933  0.00  0.00    +0.150 HD
ENDROOT
BRANCH   6  15
ATOM     14  N   UNL     1      33.705 -16.220 -25.753  0.00  0.00    -0.376 NA
ATOM     15  C   UNL     1      33.780 -14.547 -24.005  0.00  0.00    +0.084 C 
ATOM     16  C   UNL     1      33.358 -15.018 -25.240  0.00  0.00    +0.095 C 
ATOM     17  C   UNL     1      34.613 -15.369 -23.251  0.00  0.00    -0.013 C 
ATOM     18  C   UNL     1      32.461 -14.192 -26.104  0.00  0.00    +0.062 C 
ATOM     19  C   UNL     1      34.993 -16.611 -23.745  0.00  0.00    +0.067 C 
ATOM     20  C   UNL     1      34.516 -16.987 -24.991  0.00  0.00    +0.277 C 
BRANCH  20  21
ATOM     21  O   UNL     1      34.874 -18.208 -25.499  0.00  0.00    -0.448 OA
ATOM     22  C   UNL     1      34.625 -19.342 -24.677  0.00  0.00    +0.255 C 
ENDBRANCH  20  21
ENDBRANCH   6  15
BRANCH   2  23
ATOM     23  C   UNL     1      32.876  -7.443 -22.823  0.00  0.00    +0.073 C 
ATOM     24  C   UNL     1      32.608  -6.775 -21.478  0.00  0.00    +0.021 C 
BRANCH  23  25
ATOM     25  C   UNL     1      31.889  -6.949 -23.887  0.00  0.00    +0.020 C 
ATOM     26  C   UNL     1      32.480  -5.864 -24.778  0.00  0.00    +0.002 C 
ENDBRANCH  23  25
ENDBRANCH   2  23
TORSDOF 4
ENDMDL
MODEL 6
REMARK VINA RESULT:      -8.8      3.589      6.456
REMARK  Name = 9884366
REMARK  4 active torsions:
REMARK  status: ('A' for Active; 'I' for Inactive)
REMARK    1  A    between atoms: N_2  and  C_23
REMARK    2  A    between atoms: C_6  and  C_15
REMARK    3  A    between atoms: C_20  and  O_21
REMARK    4  A    between atoms: C_23  and  C_25
REMARK                            x       y       z     vdW  Elec       q    Type
REMARK                         _______ _______ _______ _____ _____    ______ ____
ROOT
ATOM      1  N   UNL     1      33.120 -10.873 -23.206  0.00  0.00    -0.124 N 
ATOM      2  N   UNL     1      32.660  -8.598 -22.753  0.00  0.00    -0.296 N 
ATOM      3  N   UNL     1      32.294 -11.299 -22.233  0.00  0.00    -0.177 NA
ATOM      4  N   UNL     1      34.598 -11.583 -24.897  0.00  0.00    -0.331 NA
ATOM      5  N   UNL     1      34.157  -9.264 -24.467  0.00  0.00    -0.311 NA
ATOM      6  C   UNL     1      33.287 -13.048 -23.322  0.00  0.00    +0.118 C 
ATOM      7  C   UNL     1      33.742 -11.880 -23.891  0.00  0.00    +0.204 C 
ATOM      8  C   UNL     1      33.330  -9.531 -23.497  0.00  0.00    +0.274 C 
ATOM      9  C   UNL     1      32.401 -12.629 -22.310  0.00  0.00    +0.064 C 
ATOM     10  C   UNL     1      34.766 -10.314 -25.135  0.00  0.00    +0.119 C 
ATOM     11  C   UNL     1      31.626 -13.471 -21.380  0.00  0.00    +0.049 C 
ATOM     12  C   UNL     1      35.700  -9.889 -26.234  0.00  0.00    +0.143 C 
ATOM     13  H   UNL     1      32.066  -8.906 -22.030  0.00  0.00    +0.150 HD
ENDROOT
BRANCH   6  15
ATOM     14  N   UNL     1      34.819 -16.448 -23.282  0.00  0.00    -0.376 NA
ATOM     15  C   UNL     1      33.690 -14.356 -23.742  0.00  0.00    +0.084 C 
ATOM     16  C   UNL     1      34.419 -15.207 -22.924  0.00  0.00    +0.095 C 
ATOM     17  C   UNL     1      33.351 -14.815 -25.012  0.00  0.00    -0.013 C 
ATOM     18  C   UNL     1      34.820 -14.783 -21.547  0.00  0.00    +0.062 C 
ATOM     19  C   UNL     1      33.743 -16.086 -25.417  0.00  0.00    +0.067 C 
ATOM     20  C   UNL     1      34.469 -16.856 -24.523  0.00  0.00    +0.277 C 
BRANCH  20  21
ATOM     21  O   UNL     1      34.868 -18.112 -24.898  0.00  0.00    -0.448 OA
ATOM     22  C   UNL     1      34.906 -19.104 -23.879  0.00  0.00    +0.255 C 
ENDBRANCH  20  21
ENDBRANCH   6  15
BRANCH   2  23
ATOM     23  C   UNL     1      32.791  -7.193 -22.989  0.00  0.00    +0.073 C 
ATOM     24  C   UNL     1      32.433  -6.449 -21.706  0.00  0.00    +0.021 C 
BRANCH  23  25
ATOM     25  C   UNL     1      31.881  -6.761 -24.145  0.00  0.00    +0.020 C 
ATOM     26  C   UNL     1      32.511  -5.685 -25.018  0.00  0.00    +0.002 C 
ENDBRANCH  23  25
ENDBRANCH   2  23
TORSDOF 4
ENDMDL
MODEL 7
REMARK VINA RESULT:      -8.8      8.207     11.814
REMARK  Name = 9884366
REMARK  4 active torsions:
REMARK  status: ('A' for Active; 'I' for Inactive)
REMARK    1  A    between atoms: N_2  and  C_23
REMARK    2  A    between atoms: C_6  and  C_15
REMARK    3  A    between atoms: C_20  and  O_21
REMARK    4  A    between atoms: C_23  and  C_25
REMARK                            x       y       z     vdW  Elec       q    Type
REMARK                         _______ _______ _______ _____ _____    ______ ____
ROOT
ATOM      1  N   UNL     1      33.116 -24.268 -14.903  0.00  0.00    -0.124 N 
ATOM      2  N   UNL     1      35.343 -24.921 -14.452  0.00  0.00    -0.296 N 
ATOM      3  N   UNL     1      32.665 -24.773 -13.740  0.00  0.00    -0.177 NA
ATOM      4  N   UNL     1      32.470 -23.146 -16.871  0.00  0.00    -0.331 NA
ATOM      5  N   UNL     1      34.741 -23.792 -16.448  0.00  0.00    -0.311 NA
ATOM      6  C   UNL     1      30.976 -23.833 -14.963  0.00  0.00    +0.118 C 
ATOM      7  C   UNL     1      32.145 -23.692 -15.676  0.00  0.00    +0.204 C 
ATOM      8  C   UNL     1      34.447 -24.322 -15.295  0.00  0.00    +0.274 C 
ATOM      9  C   UNL     1      31.358 -24.503 -13.783  0.00  0.00    +0.064 C 
ATOM     10  C   UNL     1      33.728 -23.219 -17.199  0.00  0.00    +0.119 C 
ATOM     11  C   UNL     1      30.498 -24.912 -12.657  0.00  0.00    +0.049 C 
ATOM     12  C   UNL     1      34.182 -22.639 -18.510  0.00  0.00    +0.143 C 
ATOM     13  H   UNL     1      35.015 -25.305 -13.607  0.00  0.00    +0.150 HD
ENDROOT
BRANCH   6  15
ATOM     14  N   UNL     1      27.677 -23.704 -16.697  0.00  0.00    -0.376 NA
ATOM     15  C   UNL     1      29.700 -23.363 -15.411  0.00  0.00    +0.084 C 
ATOM     16  C   UNL     1      28.886 -24.111 -16.251  0.00  0.00    +0.095 C 
ATOM     17  C   UNL     1      29.235 -22.115 -15.006  0.00  0.00    -0.013 C 
ATOM     18  C   UNL     1      29.319 -25.461 -16.727  0.00  0.00    +0.062 C 
ATOM     19  C   UNL     1      27.996 -21.662 -15.443  0.00  0.00    +0.067 C 
ATOM     20  C   UNL     1      27.262 -22.487 -16.280  0.00  0.00    +0.277 C 
BRANCH  20  21
ATOM     21  O   UNL     1      26.038 -22.063 -16.725  0.00  0.00    -0.448 OA
ATOM     22  C   UNL     1      26.028 -21.254 -17.897  0.00  0.00    +0.255 C 
ENDBRANCH  20  21
ENDBRANCH   6  15
BRANCH   2  23
ATOM     23  C   UNL     1      36.739 -25.008 -14.753  0.00  0.00    +0.073 C 
ATOM     24  C   UNL     1      37.077 -26.458 -15.081  0.00  0.00    +0.021 C 
BRANCH  23  25
ATOM     25  C   UNL     1      37.571 -24.505 -13.567  0.00  0.00    +0.020 C 
ATOM     26  C   UNL     1      38.167 -25.640 -12.744  0.00  0.00    +0.002 C 
ENDBRANCH  23  25
ENDBRANCH   2  23
TORSDOF 4
ENDMDL
MODEL 8
REMARK VINA RESULT:      -8.7      3.728      8.053
REMARK  Name = 9884366
REMARK  4 active torsions:
REMARK  status: ('A' for Active; 'I' for Inactive)
REMARK    1  A    between atoms: N_2  and  C_23
REMARK    2  A    between atoms: C_6  and  C_15
REMARK    3  A    between atoms: C_20  and  O_21
REMARK    4  A    between atoms: C_23  and  C_25
REMARK                            x       y       z     vdW  Elec       q    Type
REMARK                         _______ _______ _______ _____ _____    ______ ____
ROOT
ATOM      1  N   UNL     1      34.013 -15.209 -23.993  0.00  0.00    -0.124 N 
ATOM      2  N   UNL     1      34.614 -17.475 -24.307  0.00  0.00    -0.296 N 
ATOM      3  N   UNL     1      33.725 -15.040 -25.296  0.00  0.00    -0.177 NA
ATOM      4  N   UNL     1      34.083 -14.130 -21.900  0.00  0.00    -0.331 NA
ATOM      5  N   UNL     1      34.701 -16.431 -22.179  0.00  0.00    -0.311 NA
ATOM      6  C   UNL     1      33.388 -13.119 -24.100  0.00  0.00    +0.118 C 
ATOM      7  C   UNL     1      33.829 -14.090 -23.229  0.00  0.00    +0.204 C 
ATOM      8  C   UNL     1      34.461 -16.411 -23.459  0.00  0.00    +0.274 C 
ATOM      9  C   UNL     1      33.343 -13.761 -25.354  0.00  0.00    +0.064 C 
ATOM     10  C   UNL     1      34.500 -15.276 -21.442  0.00  0.00    +0.119 C 
ATOM     11  C   UNL     1      32.939 -13.185 -26.650  0.00  0.00    +0.049 C 
ATOM     12  C   UNL     1      34.809 -15.414 -19.977  0.00  0.00    +0.143 C 
ATOM     13  H   UNL     1      34.419 -17.350 -25.264  0.00  0.00    +0.150 HD
ENDROOT
BRANCH   6  15
ATOM     14  N   UNL     1      33.497  -9.399 -23.860  0.00  0.00    -0.376 NA
ATOM     15  C   UNL     1      33.069 -11.778 -23.714  0.00  0.00    +0.084 C 
ATOM     16  C   UNL     1      33.765 -10.680 -24.200  0.00  0.00    +0.095 C 
ATOM     17  C   UNL     1      32.030 -11.539 -22.819  0.00  0.00    -0.013 C 
ATOM     18  C   UNL     1      34.894 -10.859 -25.163  0.00  0.00    +0.062 C 
ATOM     19  C   UNL     1      31.723 -10.235 -22.446  0.00  0.00    +0.067 C 
ATOM     20  C   UNL     1      32.479  -9.210 -22.990  0.00  0.00    +0.277 C 
BRANCH  20  21
ATOM     21  O   UNL     1      32.197  -7.916 -22.637  0.00  0.00    -0.448 OA
ATOM     22  C   UNL     1      32.347  -7.581 -21.262  0.00  0.00    +0.255 C 
ENDBRANCH  20  21
ENDBRANCH   6  15
BRANCH   2  23
ATOM     23  C   UNL     1      35.047 -18.760 -23.852  0.00  0.00    +0.073 C 
ATOM     24  C   UNL     1      34.834 -19.771 -24.974  0.00  0.00    +0.021 C 
BRANCH  23  25
ATOM     25  C   UNL     1      34.273 -19.167 -22.593  0.00  0.00    +0.020 C 
ATOM     26  C   UNL     1      35.170 -19.780 -21.524  0.00  0.00    +0.002 C 
ENDBRANCH  23  25
ENDBRANCH   2  23
TORSDOF 4
ENDMDL
MODEL 9
REMARK VINA RESULT:      -8.5      5.609     10.744
REMARK  Name = 9884366
REMARK  4 active torsions:
REMARK  status: ('A' for Active; 'I' for Inactive)
REMARK    1  A    between atoms: N_2  and  C_23
REMARK    2  A    between atoms: C_6  and  C_15
REMARK    3  A    between atoms: C_20  and  O_21
REMARK    4  A    between atoms: C_23  and  C_25
REMARK                            x       y       z     vdW  Elec       q    Type
REMARK                         _______ _______ _______ _____ _____    ______ ____
ROOT
ATOM      1  N   UNL     1      32.619 -11.443 -22.466  0.00  0.00    -0.124 N 
ATOM      2  N   UNL     1      32.775 -13.657 -21.648  0.00  0.00    -0.296 N 
ATOM      3  N   UNL     1      32.250 -10.959 -21.266  0.00  0.00    -0.177 NA
ATOM      4  N   UNL     1      33.069 -10.855 -24.703  0.00  0.00    -0.331 NA
ATOM      5  N   UNL     1      33.237 -13.114 -23.910  0.00  0.00    -0.311 NA
ATOM      6  C   UNL     1      32.368  -9.307 -22.843  0.00  0.00    +0.118 C 
ATOM      7  C   UNL     1      32.705 -10.496 -23.449  0.00  0.00    +0.204 C 
ATOM      8  C   UNL     1      32.890 -12.786 -22.698  0.00  0.00    +0.274 C 
ATOM      9  C   UNL     1      32.099  -9.653 -21.504  0.00  0.00    +0.064 C 
ATOM     10  C   UNL     1      33.313 -12.123 -24.875  0.00  0.00    +0.119 C 
ATOM     11  C   UNL     1      31.688  -8.761 -20.404  0.00  0.00    +0.049 C 
ATOM     12  C   UNL     1      33.722 -12.615 -26.236  0.00  0.00    +0.143 C 
ATOM     13  H   UNL     1      32.490 -13.308 -20.772  0.00  0.00    +0.150 HD
ENDROOT
BRANCH   6  15
ATOM     14  N   UNL     1      33.485  -6.148 -24.480  0.00  0.00    -0.376 NA
ATOM     15  C   UNL     1      32.329  -8.045 -23.518  0.00  0.00    +0.084 C 
ATOM     16  C   UNL     1      33.479  -7.341 -23.845  0.00  0.00    +0.095 C 
ATOM     17  C   UNL     1      31.106  -7.480 -23.870  0.00  0.00    -0.013 C 
ATOM     18  C   UNL     1      34.828  -7.884 -23.498  0.00  0.00    +0.062 C 
ATOM     19  C   UNL     1      31.071  -6.255 -24.525  0.00  0.00    +0.067 C 
ATOM     20  C   UNL     1      32.278  -5.635 -24.805  0.00  0.00    +0.277 C 
BRANCH  20  21
ATOM     21  O   UNL     1      32.270  -4.425 -25.449  0.00  0.00    -0.448 OA
ATOM     22  C   UNL     1      31.210  -3.534 -25.124  0.00  0.00    +0.255 C 
ENDBRANCH  20  21
ENDBRANCH   6  15
BRANCH   2  23
ATOM     23  C   UNL     1      33.054 -15.054 -21.778  0.00  0.00    +0.073 C 
ATOM     24  C   UNL     1      32.236 -15.812 -20.738  0.00  0.00    +0.021 C 
BRANCH  23  25
ATOM     25  C   UNL     1      34.553 -15.316 -21.594  0.00  0.00    +0.020 C 
ATOM     26  C   UNL     1      34.845 -16.716 -21.070  0.00  0.00    +0.002 C 
ENDBRANCH  23  25
ENDBRANCH   2  23
TORSDOF 4
ENDMDL
