MODEL 1
REMARK VINA RESULT:      -8.1      0.000      0.000
REMARK  Name = 464205
REMARK  7 active torsions:
REMARK  status: ('A' for Active; 'I' for Inactive)
REMARK    1  A    between atoms: N_1  and  C_13
REMARK    2  A    between atoms: C_13  and  C_14
REMARK    3  A    between atoms: C_14  and  O_16
REMARK    4  A    between atoms: O_16  and  C_17
REMARK    5  A    between atoms: C_17  and  P_18
REMARK    6  A    between atoms: P_18  and  O_20
REMARK    7  A    between atoms: P_18  and  O_22
REMARK                            x       y       z     vdW  Elec       q    Type
REMARK                         _______ _______ _______ _____ _____    ______ ____
ROOT
ATOM      1  N   UNL     1      34.631 -22.121 -18.577  0.00  0.00    -0.269 N 
ATOM      2  N   UNL     1      36.384 -20.986 -19.300  0.00  0.00    -0.242 NA
ATOM      3  N   UNL     1      32.875 -21.131 -19.925  0.00  0.00    -0.228 NA
ATOM      4  N   UNL     1      33.780 -19.413 -21.403  0.00  0.00    -0.229 NA
ATOM      5  C   UNL     1      34.143 -21.271 -19.511  0.00  0.00    +0.151 C 
ATOM      6  C   UNL     1      35.252 -20.569 -19.955  0.00  0.00    +0.140 C 
ATOM      7  C   UNL     1      35.971 -21.924 -18.475  0.00  0.00    +0.221 C 
ATOM      8  C   UNL     1      35.037 -19.609 -20.939  0.00  0.00    +0.143 C 
ATOM      9  C   UNL     1      32.791 -20.175 -20.876  0.00  0.00    +0.253 C 
ATOM     10  N   UNL     1      36.105 -18.851 -21.447  0.00  0.00    -0.342 N 
ATOM     11  H   UNL     1      35.941 -18.173 -22.143  0.00  0.00    +0.144 HD
ATOM     12  H   UNL     1      37.017 -18.996 -21.108  0.00  0.00    +0.144 HD
ENDROOT
BRANCH   1  13
ATOM     13  C   UNL     1      33.856 -23.090 -17.801  0.00  0.00    +0.123 C 
BRANCH  13  14
ATOM     14  C   UNL     1      34.349 -23.219 -16.357  0.00  0.00    +0.136 C 
ATOM     15  C   UNL     1      33.176 -23.333 -15.393  0.00  0.00    +0.034 C 
BRANCH  14  16
ATOM     16  O   UNL     1      35.129 -24.399 -16.215  0.00  0.00    -0.343 OA
BRANCH  16  17
ATOM     17  C   UNL     1      35.597 -24.559 -14.883  0.00  0.00    +0.258 C 
BRANCH  17  18
ATOM     18  P   UNL     1      36.687 -25.964 -14.948  0.00  0.00    +0.367 P 
ATOM     19  O   UNL     1      36.304 -27.013 -15.950  0.00  0.00    -0.256 OA
BRANCH  18  20
ATOM     20  O   UNL     1      36.752 -26.469 -13.414  0.00  0.00    -0.322 OA
ATOM     21  H   UNL     1      37.585 -26.942 -13.264  0.00  0.00    +0.220 HD
ENDBRANCH  18  20
BRANCH  18  22
ATOM     22  O   UNL     1      38.140 -25.295 -15.182  0.00  0.00    -0.322 OA
ATOM     23  H   UNL     1      38.758 -25.622 -14.511  0.00  0.00    +0.220 HD
ENDBRANCH  18  22
ENDBRANCH  17  18
ENDBRANCH  16  17
ENDBRANCH  14  16
ENDBRANCH  13  14
ENDBRANCH   1  13
TORSDOF 7
ENDMDL
MODEL 2
REMARK VINA RESULT:      -8.1      3.071      4.781
REMARK  Name = 464205
REMARK  7 active torsions:
REMARK  status: ('A' for Active; 'I' for Inactive)
REMARK    1  A    between atoms: N_1  and  C_13
REMARK    2  A    between atoms: C_13  and  C_14
REMARK    3  A    between atoms: C_14  and  O_16
REMARK    4  A    between atoms: O_16  and  C_17
REMARK    5  A    between atoms: C_17  and  P_18
REMARK    6  A    between atoms: P_18  and  O_20
REMARK    7  A    between atoms: P_18  and  O_22
REMARK                            x       y       z     vdW  Elec       q    Type
REMARK                         _______ _______ _______ _____ _____    ______ ____
ROOT
ATOM      1  N   UNL     1      34.318 -24.151 -14.806  0.00  0.00    -0.269 N 
ATOM      2  N   UNL     1      32.141 -23.855 -14.561  0.00  0.00    -0.242 NA
ATOM      3  N   UNL     1      34.626 -23.324 -17.065  0.00  0.00    -0.228 NA
ATOM      4  N   UNL     1      32.505 -22.572 -18.010  0.00  0.00    -0.229 NA
ATOM      5  C   UNL     1      33.898 -23.618 -15.977  0.00  0.00    +0.151 C 
ATOM      6  C   UNL     1      32.534 -23.438 -15.807  0.00  0.00    +0.140 C 
ATOM      7  C   UNL     1      33.245 -24.279 -13.983  0.00  0.00    +0.221 C 
ATOM      8  C   UNL     1      31.833 -22.892 -16.879  0.00  0.00    +0.143 C 
ATOM      9  C   UNL     1      33.840 -22.804 -18.033  0.00  0.00    +0.253 C 
ATOM     10  N   UNL     1      30.447 -22.674 -16.793  0.00  0.00    -0.342 N 
ATOM     11  H   UNL     1      29.961 -22.288 -17.557  0.00  0.00    +0.144 HD
ATOM     12  H   UNL     1      29.962 -22.908 -15.969  0.00  0.00    +0.144 HD
ENDROOT
BRANCH   1  13
ATOM     13  C   UNL     1      35.691 -24.529 -14.472  0.00  0.00    +0.123 C 
BRANCH  13  14
ATOM     14  C   UNL     1      36.473 -23.390 -13.810  0.00  0.00    +0.136 C 
ATOM     15  C   UNL     1      36.428 -23.513 -12.293  0.00  0.00    +0.034 C 
BRANCH  14  16
ATOM     16  O   UNL     1      37.839 -23.450 -14.200  0.00  0.00    -0.343 OA
BRANCH  16  17
ATOM     17  C   UNL     1      38.041 -24.383 -15.253  0.00  0.00    +0.258 C 
BRANCH  17  18
ATOM     18  P   UNL     1      39.380 -25.415 -14.696  0.00  0.00    +0.367 P 
ATOM     19  O   UNL     1      40.155 -24.870 -13.533  0.00  0.00    -0.256 OA
BRANCH  18  20
ATOM     20  O   UNL     1      40.244 -25.676 -16.037  0.00  0.00    -0.322 OA
ATOM     21  H   UNL     1      39.928 -26.481 -16.474  0.00  0.00    +0.220 HD
ENDBRANCH  18  20
BRANCH  18  22
ATOM     22  O   UNL     1      38.663 -26.839 -14.432  0.00  0.00    -0.322 OA
ATOM     23  H   UNL     1      38.494 -27.278 -15.280  0.00  0.00    +0.220 HD
ENDBRANCH  18  22
ENDBRANCH  17  18
ENDBRANCH  16  17
ENDBRANCH  14  16
ENDBRANCH  13  14
ENDBRANCH   1  13
TORSDOF 7
ENDMDL
MODEL 3
REMARK VINA RESULT:      -8.1      6.013      7.900
REMARK  Name = 464205
REMARK  7 active torsions:
REMARK  status: ('A' for Active; 'I' for Inactive)
REMARK    1  A    between atoms: N_1  and  C_13
REMARK    2  A    between atoms: C_13  and  C_14
REMARK    3  A    between atoms: C_14  and  O_16
REMARK    4  A    between atoms: O_16  and  C_17
REMARK    5  A    between atoms: C_17  and  P_18
REMARK    6  A    between atoms: P_18  and  O_20
REMARK    7  A    between atoms: P_18  and  O_22
REMARK                            x       y       z     vdW  Elec       q    Type
REMARK                         _______ _______ _______ _____ _____    ______ ____
ROOT
ATOM      1  N   UNL     1      34.173 -23.966 -14.475  0.00  0.00    -0.269 N 
ATOM      2  N   UNL     1      35.903 -25.047 -15.327  0.00  0.00    -0.242 NA
ATOM      3  N   UNL     1      34.649 -24.164 -12.106  0.00  0.00    -0.228 NA
ATOM      4  N   UNL     1      36.719 -25.404 -11.738  0.00  0.00    -0.229 NA
ATOM      5  C   UNL     1      34.902 -24.367 -13.408  0.00  0.00    +0.151 C 
ATOM      6  C   UNL     1      35.981 -25.041 -13.957  0.00  0.00    +0.140 C 
ATOM      7  C   UNL     1      34.798 -24.388 -15.605  0.00  0.00    +0.221 C 
ATOM      8  C   UNL     1      36.911 -25.571 -13.068  0.00  0.00    +0.143 C 
ATOM      9  C   UNL     1      35.617 -24.721 -11.344  0.00  0.00    +0.253 C 
ATOM     10  N   UNL     1      38.037 -26.268 -13.538  0.00  0.00    -0.342 N 
ATOM     11  H   UNL     1      38.688 -26.639 -12.899  0.00  0.00    +0.144 HD
ATOM     12  H   UNL     1      38.173 -26.387 -14.506  0.00  0.00    +0.144 HD
ENDROOT
BRANCH   1  13
ATOM     13  C   UNL     1      32.923 -23.207 -14.433  0.00  0.00    +0.123 C 
BRANCH  13  14
ATOM     14  C   UNL     1      31.709 -24.045 -14.841  0.00  0.00    +0.136 C 
ATOM     15  C   UNL     1      31.377 -25.076 -13.771  0.00  0.00    +0.034 C 
BRANCH  14  16
ATOM     16  O   UNL     1      30.570 -23.207 -14.990  0.00  0.00    -0.343 OA
BRANCH  16  17
ATOM     17  C   UNL     1      29.381 -23.967 -15.162  0.00  0.00    +0.258 C 
BRANCH  17  18
ATOM     18  P   UNL     1      28.501 -23.146 -16.473  0.00  0.00    +0.367 P 
ATOM     19  O   UNL     1      27.763 -24.059 -17.406  0.00  0.00    -0.256 OA
BRANCH  18  20
ATOM     20  O   UNL     1      29.628 -22.218 -17.166  0.00  0.00    -0.322 OA
ATOM     21  H   UNL     1      29.428 -22.115 -18.110  0.00  0.00    +0.220 HD
ENDBRANCH  18  20
BRANCH  18  22
ATOM     22  O   UNL     1      27.575 -22.081 -15.685  0.00  0.00    -0.322 OA
ATOM     23  H   UNL     1      26.646 -22.224 -15.920  0.00  0.00    +0.220 HD
ENDBRANCH  18  22
ENDBRANCH  17  18
ENDBRANCH  16  17
ENDBRANCH  14  16
ENDBRANCH  13  14
ENDBRANCH   1  13
TORSDOF 7
ENDMDL
MODEL 4
REMARK VINA RESULT:      -8.1      3.773      5.526
REMARK  Name = 464205
REMARK  7 active torsions:
REMARK  status: ('A' for Active; 'I' for Inactive)
REMARK    1  A    between atoms: N_1  and  C_13
REMARK    2  A    between atoms: C_13  and  C_14
REMARK    3  A    between atoms: C_14  and  O_16
REMARK    4  A    between atoms: O_16  and  C_17
REMARK    5  A    between atoms: C_17  and  P_18
REMARK    6  A    between atoms: P_18  and  O_20
REMARK    7  A    between atoms: P_18  and  O_22
REMARK                            x       y       z     vdW  Elec       q    Type
REMARK                         _______ _______ _______ _____ _____    ______ ____
ROOT
ATOM      1  N   UNL     1      35.116 -24.278 -14.246  0.00  0.00    -0.269 N 
ATOM      2  N   UNL     1      33.154 -23.962 -13.278  0.00  0.00    -0.242 NA
ATOM      3  N   UNL     1      34.572 -23.724 -16.543  0.00  0.00    -0.228 NA
ATOM      4  N   UNL     1      32.223 -23.096 -16.751  0.00  0.00    -0.229 NA
ATOM      5  C   UNL     1      34.287 -23.889 -15.243  0.00  0.00    +0.151 C 
ATOM      6  C   UNL     1      33.064 -23.694 -14.621  0.00  0.00    +0.140 C 
ATOM      7  C   UNL     1      34.408 -24.312 -13.087  0.00  0.00    +0.221 C 
ATOM      8  C   UNL     1      32.007 -23.282 -15.427  0.00  0.00    +0.143 C 
ATOM      9  C   UNL     1      33.473 -23.325 -17.220  0.00  0.00    +0.253 C 
ATOM     10  N   UNL     1      30.732 -23.060 -14.880  0.00  0.00    -0.342 N 
ATOM     11  H   UNL     1      29.991 -22.769 -15.460  0.00  0.00    +0.144 HD
ATOM     12  H   UNL     1      30.579 -23.196 -13.917  0.00  0.00    +0.144 HD
ENDROOT
BRANCH   1  13
ATOM     13  C   UNL     1      36.535 -24.609 -14.381  0.00  0.00    +0.123 C 
BRANCH  13  14
ATOM     14  C   UNL     1      36.819 -26.096 -14.152  0.00  0.00    +0.136 C 
ATOM     15  C   UNL     1      36.630 -26.888 -15.438  0.00  0.00    +0.034 C 
BRANCH  14  16
ATOM     16  O   UNL     1      38.168 -26.274 -13.739  0.00  0.00    -0.343 OA
BRANCH  16  17
ATOM     17  C   UNL     1      38.932 -25.090 -13.929  0.00  0.00    +0.258 C 
BRANCH  17  18
ATOM     18  P   UNL     1      40.483 -25.652 -14.598  0.00  0.00    +0.367 P 
ATOM     19  O   UNL     1      41.063 -26.857 -13.919  0.00  0.00    -0.256 OA
BRANCH  18  20
ATOM     20  O   UNL     1      41.413 -24.330 -14.566  0.00  0.00    -0.322 OA
ATOM     21  H   UNL     1      42.170 -24.452 -15.160  0.00  0.00    +0.220 HD
ENDBRANCH  18  20
BRANCH  18  22
ATOM     22  O   UNL     1      40.159 -25.842 -16.170  0.00  0.00    -0.322 OA
ATOM     23  H   UNL     1      39.731 -25.041 -16.511  0.00  0.00    +0.220 HD
ENDBRANCH  18  22
ENDBRANCH  17  18
ENDBRANCH  16  17
ENDBRANCH  14  16
ENDBRANCH  13  14
ENDBRANCH   1  13
TORSDOF 7
ENDMDL
MODEL 5
REMARK VINA RESULT:      -8.0      7.132      9.310
REMARK  Name = 464205
REMARK  7 active torsions:
REMARK  status: ('A' for Active; 'I' for Inactive)
REMARK    1  A    between atoms: N_1  and  C_13
REMARK    2  A    between atoms: C_13  and  C_14
REMARK    3  A    between atoms: C_14  and  O_16
REMARK    4  A    between atoms: O_16  and  C_17
REMARK    5  A    between atoms: C_17  and  P_18
REMARK    6  A    between atoms: P_18  and  O_20
REMARK    7  A    between atoms: P_18  and  O_22
REMARK                            x       y       z     vdW  Elec       q    Type
REMARK                         _______ _______ _______ _____ _____    ______ ____
ROOT
ATOM      1  N   UNL     1      34.298 -19.183 -20.980  0.00  0.00    -0.269 N 
ATOM      2  N   UNL     1      32.711 -20.559 -20.293  0.00  0.00    -0.242 NA
ATOM      3  N   UNL     1      36.253 -20.242 -20.011  0.00  0.00    -0.228 NA
ATOM      4  N   UNL     1      35.628 -22.251 -18.775  0.00  0.00    -0.229 NA
ATOM      5  C   UNL     1      34.940 -20.135 -20.263  0.00  0.00    +0.151 C 
ATOM      6  C   UNL     1      33.933 -20.989 -19.841  0.00  0.00    +0.140 C 
ATOM      7  C   UNL     1      32.970 -19.465 -20.978  0.00  0.00    +0.221 C 
ATOM      8  C   UNL     1      34.317 -22.082 -19.069  0.00  0.00    +0.143 C 
ATOM      9  C   UNL     1      36.502 -21.335 -19.257  0.00  0.00    +0.253 C 
ATOM     10  N   UNL     1      33.362 -23.000 -18.600  0.00  0.00    -0.342 N 
ATOM     11  H   UNL     1      33.646 -23.769 -18.054  0.00  0.00    +0.144 HD
ATOM     12  H   UNL     1      32.410 -22.873 -18.816  0.00  0.00    +0.144 HD
ENDROOT
BRANCH   1  13
ATOM     13  C   UNL     1      34.919 -18.038 -21.647  0.00  0.00    +0.123 C 
BRANCH  13  14
ATOM     14  C   UNL     1      34.054 -16.776 -21.583  0.00  0.00    +0.136 C 
ATOM     15  C   UNL     1      34.614 -15.787 -20.570  0.00  0.00    +0.034 C 
BRANCH  14  16
ATOM     16  O   UNL     1      34.048 -16.129 -22.849  0.00  0.00    -0.343 OA
BRANCH  16  17
ATOM     17  C   UNL     1      34.490 -14.782 -22.748  0.00  0.00    +0.258 C 
BRANCH  17  18
ATOM     18  P   UNL     1      33.371 -13.857 -23.777  0.00  0.00    +0.367 P 
ATOM     19  O   UNL     1      33.022 -14.513 -25.079  0.00  0.00    -0.256 OA
BRANCH  18  20
ATOM     20  O   UNL     1      34.077 -12.408 -23.903  0.00  0.00    -0.322 OA
ATOM     21  H   UNL     1      33.458 -11.781 -24.308  0.00  0.00    +0.220 HD
ENDBRANCH  18  20
BRANCH  18  22
ATOM     22  O   UNL     1      32.116 -13.575 -22.796  0.00  0.00    -0.322 OA
ATOM     23  H   UNL     1      31.436 -13.079 -23.277  0.00  0.00    +0.220 HD
ENDBRANCH  18  22
ENDBRANCH  17  18
ENDBRANCH  16  17
ENDBRANCH  14  16
ENDBRANCH  13  14
ENDBRANCH   1  13
TORSDOF 7
ENDMDL
MODEL 6
REMARK VINA RESULT:      -8.0      2.974      4.419
REMARK  Name = 464205
REMARK  7 active torsions:
REMARK  status: ('A' for Active; 'I' for Inactive)
REMARK    1  A    between atoms: N_1  and  C_13
REMARK    2  A    between atoms: C_13  and  C_14
REMARK    3  A    between atoms: C_14  and  O_16
REMARK    4  A    between atoms: O_16  and  C_17
REMARK    5  A    between atoms: C_17  and  P_18
REMARK    6  A    between atoms: P_18  and  O_20
REMARK    7  A    between atoms: P_18  and  O_22
REMARK                            x       y       z     vdW  Elec       q    Type
REMARK                         _______ _______ _______ _____ _____    ______ ____
ROOT
ATOM      1  N   UNL     1      34.739 -23.752 -14.834  0.00  0.00    -0.269 N 
ATOM      2  N   UNL     1      35.206 -23.124 -16.901  0.00  0.00    -0.242 NA
ATOM      3  N   UNL     1      32.318 -23.621 -14.868  0.00  0.00    -0.228 NA
ATOM      4  N   UNL     1      31.519 -22.893 -17.055  0.00  0.00    -0.229 NA
ATOM      5  C   UNL     1      33.539 -23.510 -15.411  0.00  0.00    +0.151 C 
ATOM      6  C   UNL     1      33.849 -23.119 -16.705  0.00  0.00    +0.140 C 
ATOM      7  C   UNL     1      35.713 -23.512 -15.750  0.00  0.00    +0.221 C 
ATOM      8  C   UNL     1      32.780 -22.804 -17.539  0.00  0.00    +0.143 C 
ATOM      9  C   UNL     1      31.367 -23.290 -15.769  0.00  0.00    +0.253 C 
ATOM     10  N   UNL     1      33.003 -22.399 -18.867  0.00  0.00    -0.342 N 
ATOM     11  H   UNL     1      32.239 -22.178 -19.448  0.00  0.00    +0.144 HD
ATOM     12  H   UNL     1      33.921 -22.336 -19.215  0.00  0.00    +0.144 HD
ENDROOT
BRANCH   1  13
ATOM     13  C   UNL     1      34.962 -24.197 -13.458  0.00  0.00    +0.123 C 
BRANCH  13  14
ATOM     14  C   UNL     1      36.436 -24.132 -13.048  0.00  0.00    +0.136 C 
ATOM     15  C   UNL     1      36.576 -23.692 -11.597  0.00  0.00    +0.034 C 
BRANCH  14  16
ATOM     16  O   UNL     1      37.026 -25.421 -13.158  0.00  0.00    -0.343 OA
BRANCH  16  17
ATOM     17  C   UNL     1      38.438 -25.363 -13.007  0.00  0.00    +0.258 C 
BRANCH  17  18
ATOM     18  P   UNL     1      39.084 -25.730 -14.624  0.00  0.00    +0.367 P 
ATOM     19  O   UNL     1      40.328 -26.569 -14.631  0.00  0.00    -0.256 OA
BRANCH  18  20
ATOM     20  O   UNL     1      39.231 -24.277 -15.316  0.00  0.00    -0.322 OA
ATOM     21  H   UNL     1      40.119 -24.185 -15.692  0.00  0.00    +0.220 HD
ENDBRANCH  18  20
BRANCH  18  22
ATOM     22  O   UNL     1      37.817 -26.381 -15.389  0.00  0.00    -0.322 OA
ATOM     23  H   UNL     1      37.589 -25.835 -16.157  0.00  0.00    +0.220 HD
ENDBRANCH  18  22
ENDBRANCH  17  18
ENDBRANCH  16  17
ENDBRANCH  14  16
ENDBRANCH  13  14
ENDBRANCH   1  13
TORSDOF 7
ENDMDL
MODEL 7
REMARK VINA RESULT:      -7.9      9.121     10.997
REMARK  Name = 464205
REMARK  7 active torsions:
REMARK  status: ('A' for Active; 'I' for Inactive)
REMARK    1  A    between atoms: N_1  and  C_13
REMARK    2  A    between atoms: C_13  and  C_14
REMARK    3  A    between atoms: C_14  and  O_16
REMARK    4  A    between atoms: O_16  and  C_17
REMARK    5  A    between atoms: C_17  and  P_18
REMARK    6  A    between atoms: P_18  and  O_20
REMARK    7  A    between atoms: P_18  and  O_22
REMARK                            x       y       z     vdW  Elec       q    Type
REMARK                         _______ _______ _______ _____ _____    ______ ____
ROOT
ATOM      1  N   UNL     1      34.523 -15.100 -21.989  0.00  0.00    -0.269 N 
ATOM      2  N   UNL     1      34.993 -16.378 -20.248  0.00  0.00    -0.242 NA
ATOM      3  N   UNL     1      34.793 -16.696 -23.795  0.00  0.00    -0.228 NA
ATOM      4  N   UNL     1      35.429 -18.887 -22.929  0.00  0.00    -0.229 NA
ATOM      5  C   UNL     1      34.799 -16.320 -22.507  0.00  0.00    +0.151 C 
ATOM      6  C   UNL     1      35.089 -17.108 -21.405  0.00  0.00    +0.140 C 
ATOM      7  C   UNL     1      34.649 -15.169 -20.638  0.00  0.00    +0.221 C 
ATOM      8  C   UNL     1      35.414 -18.439 -21.651  0.00  0.00    +0.143 C 
ATOM      9  C   UNL     1      35.122 -18.002 -23.907  0.00  0.00    +0.253 C 
ATOM     10  N   UNL     1      35.721 -19.310 -20.591  0.00  0.00    -0.342 N 
ATOM     11  H   UNL     1      35.950 -20.250 -20.777  0.00  0.00    +0.144 HD
ATOM     12  H   UNL     1      35.709 -18.981 -19.664  0.00  0.00    +0.144 HD
ENDROOT
BRANCH   1  13
ATOM     13  C   UNL     1      34.154 -13.904 -22.745  0.00  0.00    +0.123 C 
BRANCH  13  14
ATOM     14  C   UNL     1      32.642 -13.781 -22.955  0.00  0.00    +0.136 C 
ATOM     15  C   UNL     1      32.105 -12.514 -22.304  0.00  0.00    +0.034 C 
BRANCH  14  16
ATOM     16  O   UNL     1      32.350 -13.701 -24.344  0.00  0.00    -0.343 OA
BRANCH  16  17
ATOM     17  C   UNL     1      33.481 -13.272 -25.091  0.00  0.00    +0.258 C 
BRANCH  17  18
ATOM     18  P   UNL     1      33.327 -14.094 -26.662  0.00  0.00    +0.367 P 
ATOM     19  O   UNL     1      34.050 -13.429 -27.795  0.00  0.00    -0.256 OA
BRANCH  18  20
ATOM     20  O   UNL     1      31.730 -14.244 -26.859  0.00  0.00    -0.322 OA
ATOM     21  H   UNL     1      31.449 -15.125 -26.569  0.00  0.00    +0.220 HD
ENDBRANCH  18  20
BRANCH  18  22
ATOM     22  O   UNL     1      33.805 -15.604 -26.337  0.00  0.00    -0.322 OA
ATOM     23  H   UNL     1      34.663 -15.581 -25.886  0.00  0.00    +0.220 HD
ENDBRANCH  18  22
ENDBRANCH  17  18
ENDBRANCH  16  17
ENDBRANCH  14  16
ENDBRANCH  13  14
ENDBRANCH   1  13
TORSDOF 7
ENDMDL
MODEL 8
REMARK VINA RESULT:      -7.9      3.915      5.532
REMARK  Name = 464205
REMARK  7 active torsions:
REMARK  status: ('A' for Active; 'I' for Inactive)
REMARK    1  A    between atoms: N_1  and  C_13
REMARK    2  A    between atoms: C_13  and  C_14
REMARK    3  A    between atoms: C_14  and  O_16
REMARK    4  A    between atoms: O_16  and  C_17
REMARK    5  A    between atoms: C_17  and  P_18
REMARK    6  A    between atoms: P_18  and  O_20
REMARK    7  A    between atoms: P_18  and  O_22
REMARK                            x       y       z     vdW  Elec       q    Type
REMARK                         _______ _______ _______ _____ _____    ______ ____
ROOT
ATOM      1  N   UNL     1      32.580 -23.881 -15.249  0.00  0.00    -0.269 N 
ATOM      2  N   UNL     1      31.582 -22.787 -16.890  0.00  0.00    -0.242 NA
ATOM      3  N   UNL     1      30.677 -24.988 -14.233  0.00  0.00    -0.228 NA
ATOM      4  N   UNL     1      28.616 -24.430 -15.415  0.00  0.00    -0.229 NA
ATOM      5  C   UNL     1      31.268 -24.191 -15.137  0.00  0.00    +0.151 C 
ATOM      6  C   UNL     1      30.657 -23.500 -16.171  0.00  0.00    +0.140 C 
ATOM      7  C   UNL     1      32.734 -23.041 -16.306  0.00  0.00    +0.221 C 
ATOM      8  C   UNL     1      29.278 -23.641 -16.294  0.00  0.00    +0.143 C 
ATOM      9  C   UNL     1      29.345 -25.046 -14.454  0.00  0.00    +0.253 C 
ATOM     10  N   UNL     1      28.578 -22.977 -17.316  0.00  0.00    -0.342 N 
ATOM     11  H   UNL     1      27.602 -23.084 -17.393  0.00  0.00    +0.144 HD
ATOM     12  H   UNL     1      29.062 -22.404 -17.953  0.00  0.00    +0.144 HD
ENDROOT
BRANCH   1  13
ATOM     13  C   UNL     1      33.659 -24.361 -14.386  0.00  0.00    +0.123 C 
BRANCH  13  14
ATOM     14  C   UNL     1      35.026 -23.791 -14.776  0.00  0.00    +0.136 C 
ATOM     15  C   UNL     1      35.811 -23.374 -13.540  0.00  0.00    +0.034 C 
BRANCH  14  16
ATOM     16  O   UNL     1      35.791 -24.783 -15.449  0.00  0.00    -0.343 OA
BRANCH  16  17
ATOM     17  C   UNL     1      37.134 -24.811 -14.984  0.00  0.00    +0.258 C 
BRANCH  17  18
ATOM     18  P   UNL     1      37.527 -26.540 -14.832  0.00  0.00    +0.367 P 
ATOM     19  O   UNL     1      38.988 -26.844 -14.686  0.00  0.00    -0.256 OA
BRANCH  18  20
ATOM     20  O   UNL     1      36.810 -27.209 -16.118  0.00  0.00    -0.322 OA
ATOM     21  H   UNL     1      36.061 -27.750 -15.826  0.00  0.00    +0.220 HD
ENDBRANCH  18  20
BRANCH  18  22
ATOM     22  O   UNL     1      36.601 -27.022 -13.598  0.00  0.00    -0.322 OA
ATOM     23  H   UNL     1      36.689 -27.981 -13.483  0.00  0.00    +0.220 HD
ENDBRANCH  18  22
ENDBRANCH  17  18
ENDBRANCH  16  17
ENDBRANCH  14  16
ENDBRANCH  13  14
ENDBRANCH   1  13
TORSDOF 7
ENDMDL
MODEL 9
REMARK VINA RESULT:      -7.9      3.537      5.323
REMARK  Name = 464205
REMARK  7 active torsions:
REMARK  status: ('A' for Active; 'I' for Inactive)
REMARK    1  A    between atoms: N_1  and  C_13
REMARK    2  A    between atoms: C_13  and  C_14
REMARK    3  A    between atoms: C_14  and  O_16
REMARK    4  A    between atoms: O_16  and  C_17
REMARK    5  A    between atoms: C_17  and  P_18
REMARK    6  A    between atoms: P_18  and  O_20
REMARK    7  A    between atoms: P_18  and  O_22
REMARK                            x       y       z     vdW  Elec       q    Type
REMARK                         _______ _______ _______ _____ _____    ______ ____
ROOT
ATOM      1  N   UNL     1      33.897 -23.139 -16.050  0.00  0.00    -0.269 N 
ATOM      2  N   UNL     1      32.385 -22.988 -17.655  0.00  0.00    -0.242 NA
ATOM      3  N   UNL     1      32.461 -23.267 -14.100  0.00  0.00    -0.228 NA
ATOM      4  N   UNL     1      30.110 -23.179 -14.746  0.00  0.00    -0.229 NA
ATOM      5  C   UNL     1      32.702 -23.168 -15.416  0.00  0.00    +0.151 C 
ATOM      6  C   UNL     1      31.766 -23.075 -16.434  0.00  0.00    +0.140 C 
ATOM      7  C   UNL     1      33.673 -23.031 -17.385  0.00  0.00    +0.221 C 
ATOM      8  C   UNL     1      30.426 -23.082 -16.060  0.00  0.00    +0.143 C 
ATOM      9  C   UNL     1      31.132 -23.265 -13.861  0.00  0.00    +0.253 C 
ATOM     10  N   UNL     1      29.410 -22.992 -17.027  0.00  0.00    -0.342 N 
ATOM     11  H   UNL     1      28.465 -22.998 -16.750  0.00  0.00    +0.144 HD
ATOM     12  H   UNL     1      29.643 -22.922 -17.981  0.00  0.00    +0.144 HD
ENDROOT
BRANCH   1  13
ATOM     13  C   UNL     1      35.214 -23.210 -15.416  0.00  0.00    +0.123 C 
BRANCH  13  14
ATOM     14  C   UNL     1      35.651 -24.648 -15.121  0.00  0.00    +0.136 C 
ATOM     15  C   UNL     1      37.168 -24.771 -15.156  0.00  0.00    +0.034 C 
BRANCH  14  16
ATOM     16  O   UNL     1      35.225 -25.026 -13.818  0.00  0.00    -0.343 OA
BRANCH  16  17
ATOM     17  C   UNL     1      36.322 -25.135 -12.922  0.00  0.00    +0.258 C 
BRANCH  17  18
ATOM     18  P   UNL     1      35.852 -24.162 -11.507  0.00  0.00    +0.367 P 
ATOM     19  O   UNL     1      36.909 -23.221 -11.010  0.00  0.00    -0.256 OA
BRANCH  18  20
ATOM     20  O   UNL     1      35.352 -25.264 -10.435  0.00  0.00    -0.322 OA
ATOM     21  H   UNL     1      34.407 -25.438 -10.567  0.00  0.00    +0.220 HD
ENDBRANCH  18  20
BRANCH  18  22
ATOM     22  O   UNL     1      34.478 -23.457 -11.984  0.00  0.00    -0.322 OA
ATOM     23  H   UNL     1      34.213 -23.815 -12.846  0.00  0.00    +0.220 HD
ENDBRANCH  18  22
ENDBRANCH  17  18
ENDBRANCH  16  17
ENDBRANCH  14  16
ENDBRANCH  13  14
ENDBRANCH   1  13
TORSDOF 7
ENDMDL
