MODEL 1
REMARK VINA RESULT:      -8.6      0.000      0.000
REMARK  Name = 107782
REMARK  8 active torsions:
REMARK  status: ('A' for Active; 'I' for Inactive)
REMARK    1  A    between atoms: C_7  and  O_23
REMARK    2  A    between atoms: C_7  and  C_28
REMARK    3  A    between atoms: C_11  and  O_25
REMARK    4  A    between atoms: C_28  and  C_29
REMARK    5  A    between atoms: C_29  and  O_30
REMARK    6  A    between atoms: O_30  and  P_31
REMARK    7  A    between atoms: P_31  and  O_33
REMARK    8  A    between atoms: P_31  and  O_35
REMARK                            x       y       z     vdW  Elec       q    Type
REMARK                         _______ _______ _______ _____ _____    ______ ____
ROOT
ATOM      1  F   UNL     1      31.618  -9.410 -24.002  0.00  0.00    -0.237 F 
ATOM      2  O   UNL     1      30.664  -4.628 -23.863  0.00  0.00    -0.287 OA
ATOM      3  C   UNL     1      33.347 -12.400 -23.363  0.00  0.00    +0.032 C 
ATOM      4  C   UNL     1      32.310 -11.688 -22.468  0.00  0.00    +0.005 C 
ATOM      5  C   UNL     1      32.711 -10.253 -22.093  0.00  0.00    +0.033 C 
ATOM      6  C   UNL     1      32.868  -9.405 -23.402  0.00  0.00    +0.164 C 
ATOM      7  C   UNL     1      32.682 -13.806 -23.485  0.00  0.00    +0.141 C 
ATOM      8  C   UNL     1      32.065 -12.699 -21.354  0.00  0.00    +0.003 C 
ATOM      9  C   UNL     1      33.460 -11.588 -24.672  0.00  0.00    +0.035 C 
ATOM     10  C   UNL     1      32.000 -14.055 -22.102  0.00  0.00    +0.032 C 
ATOM     11  C   UNL     1      33.800 -10.099 -24.441  0.00  0.00    +0.141 C 
ATOM     12  C   UNL     1      33.183  -7.889 -23.092  0.00  0.00    +0.064 C 
ATOM     13  C   UNL     1      31.662  -9.633 -21.151  0.00  0.00    +0.007 C 
ATOM     14  C   UNL     1      34.743 -12.537 -22.694  0.00  0.00    +0.003 C 
ATOM     15  C   UNL     1      31.953  -8.169 -20.844  0.00  0.00    +0.023 C 
ATOM     16  C   UNL     1      32.108  -7.385 -22.121  0.00  0.00    -0.035 C 
ATOM     17  C   UNL     1      32.581 -15.174 -21.244  0.00  0.00    +0.003 C 
ATOM     18  C   UNL     1      34.564  -7.652 -22.439  0.00  0.00    +0.011 C 
ATOM     19  C   UNL     1      33.182  -7.078 -24.381  0.00  0.00    -0.017 C 
ATOM     20  C   UNL     1      31.303  -6.341 -22.375  0.00  0.00    +0.034 C 
ATOM     21  C   UNL     1      32.382  -6.039 -24.640  0.00  0.00    +0.038 C 
ATOM     22  C   UNL     1      31.393  -5.590 -23.645  0.00  0.00    +0.195 C 
ENDROOT
BRANCH   7  23
ATOM     23  O   UNL     1      31.655 -13.774 -24.486  0.00  0.00    -0.380 OA
ATOM     24  H   UNL     1      32.016 -14.093 -25.329  0.00  0.00    +0.211 HD
ENDBRANCH   7  23
BRANCH  11  25
ATOM     25  O   UNL     1      35.168  -9.968 -24.085  0.00  0.00    -0.382 OA
ATOM     26  H   UNL     1      35.237  -9.538 -23.218  0.00  0.00    +0.210 HD
ENDBRANCH  11  25
BRANCH   7  28
ATOM     27  O   UNL     1      33.539 -15.249 -25.179  0.00  0.00    -0.291 OA
ATOM     28  C   UNL     1      33.587 -14.884 -24.005  0.00  0.00    +0.205 C 
BRANCH  28  29
ATOM     29  C   UNL     1      34.553 -15.487 -23.006  0.00  0.00    +0.220 C 
BRANCH  29  30
ATOM     30  O   UNL     1      34.839 -16.829 -23.337  0.00  0.00    -0.265 OA
BRANCH  30  31
ATOM     31  P   UNL     1      35.339 -17.830 -22.163  0.00  0.00    +0.473 P 
ATOM     32  O   UNL     1      35.287 -17.254 -20.779  0.00  0.00    -0.227 OA
BRANCH  31  33
ATOM     33  O   UNL     1      36.804 -18.301 -22.660  0.00  0.00    -0.303 OA
ATOM     34  H   UNL     1      37.446 -18.170 -21.945  0.00  0.00    +0.222 HD
ENDBRANCH  31  33
BRANCH  31  35
ATOM     35  O   UNL     1      34.427 -19.146 -22.391  0.00  0.00    -0.303 OA
ATOM     36  H   UNL     1      33.703 -19.152 -21.746  0.00  0.00    +0.222 HD
ENDBRANCH  31  35
ENDBRANCH  30  31
ENDBRANCH  29  30
ENDBRANCH  28  29
ENDBRANCH   7  28
TORSDOF 8
ENDMDL
MODEL 2
REMARK VINA RESULT:      -8.5     13.693     15.668
REMARK  Name = 107782
REMARK  8 active torsions:
REMARK  status: ('A' for Active; 'I' for Inactive)
REMARK    1  A    between atoms: C_7  and  O_23
REMARK    2  A    between atoms: C_7  and  C_28
REMARK    3  A    between atoms: C_11  and  O_25
REMARK    4  A    between atoms: C_28  and  C_29
REMARK    5  A    between atoms: C_29  and  O_30
REMARK    6  A    between atoms: O_30  and  P_31
REMARK    7  A    between atoms: P_31  and  O_33
REMARK    8  A    between atoms: P_31  and  O_35
REMARK                            x       y       z     vdW  Elec       q    Type
REMARK                         _______ _______ _______ _____ _____    ______ ____
ROOT
ATOM      1  F   UNL     1      32.138 -22.483 -14.326  0.00  0.00    -0.237 F 
ATOM      2  O   UNL     1      27.407 -21.725 -15.240  0.00  0.00    -0.287 OA
ATOM      3  C   UNL     1      35.267 -24.070 -14.489  0.00  0.00    +0.032 C 
ATOM      4  C   UNL     1      34.667 -23.042 -15.473  0.00  0.00    +0.005 C 
ATOM      5  C   UNL     1      33.332 -23.494 -16.087  0.00  0.00    +0.033 C 
ATOM      6  C   UNL     1      32.289 -23.717 -14.939  0.00  0.00    +0.164 C 
ATOM      7  C   UNL     1      36.603 -23.351 -14.125  0.00  0.00    +0.141 C 
ATOM      8  C   UNL     1      35.836 -22.729 -16.399  0.00  0.00    +0.003 C 
ATOM      9  C   UNL     1      34.257 -24.248 -13.336  0.00  0.00    +0.035 C 
ATOM     10  C   UNL     1      37.046 -22.626 -15.436  0.00  0.00    +0.032 C 
ATOM     11  C   UNL     1      32.842 -24.644 -13.817  0.00  0.00    +0.141 C 
ATOM     12  C   UNL     1      30.860 -24.087 -15.502  0.00  0.00    +0.064 C 
ATOM     13  C   UNL     1      32.830 -22.448 -17.101  0.00  0.00    +0.007 C 
ATOM     14  C   UNL     1      35.575 -25.443 -15.151  0.00  0.00    +0.003 C 
ATOM     15  C   UNL     1      31.451 -22.792 -17.652  0.00  0.00    +0.023 C 
ATOM     16  C   UNL     1      30.475 -23.011 -16.525  0.00  0.00    -0.035 C 
ATOM     17  C   UNL     1      38.316 -23.139 -16.107  0.00  0.00    +0.003 C 
ATOM     18  C   UNL     1      30.796 -25.460 -16.209  0.00  0.00    +0.011 C 
ATOM     19  C   UNL     1      29.848 -24.151 -14.366  0.00  0.00    -0.017 C 
ATOM     20  C   UNL     1      29.369 -22.256 -16.433  0.00  0.00    +0.034 C 
ATOM     21  C   UNL     1      28.746 -23.400 -14.269  0.00  0.00    +0.038 C 
ATOM     22  C   UNL     1      28.423 -22.407 -15.308  0.00  0.00    +0.195 C 
ENDROOT
BRANCH   7  23
ATOM     23  O   UNL     1      36.361 -22.351 -13.126  0.00  0.00    -0.380 OA
ATOM     24  H   UNL     1      35.556 -21.858 -13.351  0.00  0.00    +0.211 HD
ENDBRANCH   7  23
BRANCH  11  25
ATOM     25  O   UNL     1      32.834 -26.008 -14.212  0.00  0.00    -0.382 OA
ATOM     26  H   UNL     1      33.576 -26.471 -13.792  0.00  0.00    +0.210 HD
ENDBRANCH  11  25
BRANCH   7  28
ATOM     27  O   UNL     1      38.175 -23.870 -12.409  0.00  0.00    -0.291 OA
ATOM     28  C   UNL     1      37.620 -24.223 -13.449  0.00  0.00    +0.205 C 
BRANCH  28  29
ATOM     29  C   UNL     1      37.916 -25.548 -14.119  0.00  0.00    +0.220 C 
BRANCH  29  30
ATOM     30  O   UNL     1      39.117 -26.101 -13.621  0.00  0.00    -0.265 OA
BRANCH  30  31
ATOM     31  P   UNL     1      40.505 -25.763 -14.388  0.00  0.00    +0.473 P 
ATOM     32  O   UNL     1      41.093 -24.421 -14.065  0.00  0.00    -0.227 OA
BRANCH  31  33
ATOM     33  O   UNL     1      40.150 -26.005 -15.946  0.00  0.00    -0.303 OA
ATOM     34  H   UNL     1      39.263 -25.658 -16.134  0.00  0.00    +0.222 HD
ENDBRANCH  31  33
BRANCH  31  35
ATOM     35  O   UNL     1      41.443 -27.028 -14.019  0.00  0.00    -0.303 OA
ATOM     36  H   UNL     1      41.765 -27.439 -14.836  0.00  0.00    +0.222 HD
ENDBRANCH  31  35
ENDBRANCH  30  31
ENDBRANCH  29  30
ENDBRANCH  28  29
ENDBRANCH   7  28
TORSDOF 8
ENDMDL
MODEL 3
REMARK VINA RESULT:      -7.2      1.644      2.730
REMARK  Name = 107782
REMARK  8 active torsions:
REMARK  status: ('A' for Active; 'I' for Inactive)
REMARK    1  A    between atoms: C_7  and  O_23
REMARK    2  A    between atoms: C_7  and  C_28
REMARK    3  A    between atoms: C_11  and  O_25
REMARK    4  A    between atoms: C_28  and  C_29
REMARK    5  A    between atoms: C_29  and  O_30
REMARK    6  A    between atoms: O_30  and  P_31
REMARK    7  A    between atoms: P_31  and  O_33
REMARK    8  A    between atoms: P_31  and  O_35
REMARK                            x       y       z     vdW  Elec       q    Type
REMARK                         _______ _______ _______ _____ _____    ______ ____
ROOT
ATOM      1  F   UNL     1      31.526  -9.506 -23.707  0.00  0.00    -0.237 F 
ATOM      2  O   UNL     1      30.531  -4.747 -24.106  0.00  0.00    -0.287 OA
ATOM      3  C   UNL     1      33.303 -12.389 -22.774  0.00  0.00    +0.032 C 
ATOM      4  C   UNL     1      32.287 -11.581 -21.937  0.00  0.00    +0.005 C 
ATOM      5  C   UNL     1      32.687 -10.109 -21.748  0.00  0.00    +0.033 C 
ATOM      6  C   UNL     1      32.794  -9.423 -23.153  0.00  0.00    +0.164 C 
ATOM      7  C   UNL     1      32.647 -13.803 -22.706  0.00  0.00    +0.141 C 
ATOM      8  C   UNL     1      32.088 -12.454 -20.703  0.00  0.00    +0.003 C 
ATOM      9  C   UNL     1      33.366 -11.738 -24.173  0.00  0.00    +0.035 C 
ATOM     10  C   UNL     1      32.012 -13.890 -21.282  0.00  0.00    +0.032 C 
ATOM     11  C   UNL     1      33.699 -10.229 -24.131  0.00  0.00    +0.141 C 
ATOM     12  C   UNL     1      33.104  -7.878 -23.035  0.00  0.00    +0.064 C 
ATOM     13  C   UNL     1      31.661  -9.388 -20.852  0.00  0.00    +0.007 C 
ATOM     14  C   UNL     1      34.720 -12.437 -22.139  0.00  0.00    +0.003 C 
ATOM     15  C   UNL     1      31.948  -7.896 -20.731  0.00  0.00    +0.023 C 
ATOM     16  C   UNL     1      32.055  -7.269 -22.097  0.00  0.00    -0.035 C 
ATOM     17  C   UNL     1      32.630 -14.895 -20.316  0.00  0.00    +0.003 C 
ATOM     18  C   UNL     1      34.503  -7.558 -22.460  0.00  0.00    +0.011 C 
ATOM     19  C   UNL     1      33.055  -7.226 -24.411  0.00  0.00    -0.017 C 
ATOM     20  C   UNL     1      31.233  -6.267 -22.447  0.00  0.00    +0.034 C 
ATOM     21  C   UNL     1      32.236  -6.231 -24.766  0.00  0.00    +0.038 C 
ATOM     22  C   UNL     1      31.275  -5.672 -23.799  0.00  0.00    +0.195 C 
ENDROOT
BRANCH   7  23
ATOM     23  O   UNL     1      31.589 -13.897 -23.670  0.00  0.00    -0.380 OA
ATOM     24  H   UNL     1      31.156 -13.033 -23.759  0.00  0.00    +0.211 HD
ENDBRANCH   7  23
BRANCH  11  25
ATOM     25  O   UNL     1      35.077 -10.049 -23.838  0.00  0.00    -0.382 OA
ATOM     26  H   UNL     1      35.277  -9.101 -23.795  0.00  0.00    +0.210 HD
ENDBRANCH  11  25
BRANCH   7  28
ATOM     27  O   UNL     1      34.340 -15.441 -22.334  0.00  0.00    -0.291 OA
ATOM     28  C   UNL     1      33.546 -14.930 -23.123  0.00  0.00    +0.205 C 
BRANCH  28  29
ATOM     29  C   UNL     1      33.416 -15.395 -24.559  0.00  0.00    +0.220 C 
BRANCH  29  30
ATOM     30  O   UNL     1      33.722 -14.345 -25.453  0.00  0.00    -0.265 OA
BRANCH  30  31
ATOM     31  P   UNL     1      33.050 -14.360 -26.928  0.00  0.00    +0.473 P 
ATOM     32  O   UNL     1      33.941 -13.873 -28.032  0.00  0.00    -0.227 OA
BRANCH  31  33
ATOM     33  O   UNL     1      31.676 -13.531 -26.731  0.00  0.00    -0.303 OA
ATOM     34  H   UNL     1      31.535 -12.952 -27.498  0.00  0.00    +0.222 HD
ENDBRANCH  31  33
BRANCH  31  35
ATOM     35  O   UNL     1      32.543 -15.888 -27.084  0.00  0.00    -0.303 OA
ATOM     36  H   UNL     1      31.687 -15.991 -26.639  0.00  0.00    +0.222 HD
ENDBRANCH  31  35
ENDBRANCH  30  31
ENDBRANCH  29  30
ENDBRANCH  28  29
ENDBRANCH   7  28
TORSDOF 8
ENDMDL
MODEL 4
REMARK VINA RESULT:      -6.6      3.439      6.129
REMARK  Name = 107782
REMARK  8 active torsions:
REMARK  status: ('A' for Active; 'I' for Inactive)
REMARK    1  A    between atoms: C_7  and  O_23
REMARK    2  A    between atoms: C_7  and  C_28
REMARK    3  A    between atoms: C_11  and  O_25
REMARK    4  A    between atoms: C_28  and  C_29
REMARK    5  A    between atoms: C_29  and  O_30
REMARK    6  A    between atoms: O_30  and  P_31
REMARK    7  A    between atoms: P_31  and  O_33
REMARK    8  A    between atoms: P_31  and  O_35
REMARK                            x       y       z     vdW  Elec       q    Type
REMARK                         _______ _______ _______ _____ _____    ______ ____
ROOT
ATOM      1  F   UNL     1      35.402 -14.175 -23.711  0.00  0.00    -0.237 F 
ATOM      2  O   UNL     1      34.473  -9.819 -25.703  0.00  0.00    -0.287 OA
ATOM      3  C   UNL     1      34.719 -17.269 -22.197  0.00  0.00    +0.032 C 
ATOM      4  C   UNL     1      34.712 -16.921 -23.701  0.00  0.00    +0.005 C 
ATOM      5  C   UNL     1      33.729 -15.796 -24.062  0.00  0.00    +0.033 C 
ATOM      6  C   UNL     1      34.126 -14.498 -23.277  0.00  0.00    +0.164 C 
ATOM      7  C   UNL     1      35.733 -18.455 -22.197  0.00  0.00    +0.141 C 
ATOM      8  C   UNL     1      34.549 -18.282 -24.368  0.00  0.00    +0.003 C 
ATOM      9  C   UNL     1      35.159 -16.002 -21.434  0.00  0.00    +0.035 C 
ATOM     10  C   UNL     1      35.483 -19.205 -23.545  0.00  0.00    +0.032 C 
ATOM     11  C   UNL     1      34.290 -14.764 -21.751  0.00  0.00    +0.141 C 
ATOM     12  C   UNL     1      33.219 -13.266 -23.673  0.00  0.00    +0.064 C 
ATOM     13  C   UNL     1      33.732 -15.550 -25.583  0.00  0.00    +0.007 C 
ATOM     14  C   UNL     1      33.339 -17.760 -21.674  0.00  0.00    +0.003 C 
ATOM     15  C   UNL     1      32.862 -14.363 -25.978  0.00  0.00    +0.023 C 
ATOM     16  C   UNL     1      33.262 -13.136 -25.200  0.00  0.00    -0.035 C 
ATOM     17  C   UNL     1      34.905 -20.613 -23.448  0.00  0.00    +0.003 C 
ATOM     18  C   UNL     1      31.740 -13.409 -23.247  0.00  0.00    +0.011 C 
ATOM     19  C   UNL     1      33.731 -12.000 -23.000  0.00  0.00    -0.017 C 
ATOM     20  C   UNL     1      33.666 -12.030 -25.844  0.00  0.00    +0.034 C 
ATOM     21  C   UNL     1      34.137 -10.896 -23.636  0.00  0.00    +0.038 C 
ATOM     22  C   UNL     1      34.119 -10.832 -25.108  0.00  0.00    +0.195 C 
ENDROOT
BRANCH   7  23
ATOM     23  O   UNL     1      37.075 -17.949 -22.214  0.00  0.00    -0.380 OA
ATOM     24  H   UNL     1      37.087 -17.081 -22.648  0.00  0.00    +0.211 HD
ENDBRANCH   7  23
BRANCH  11  25
ATOM     25  O   UNL     1      33.033 -14.880 -21.101  0.00  0.00    -0.382 OA
ATOM     26  H   UNL     1      32.862 -15.812 -20.892  0.00  0.00    +0.210 HD
ENDBRANCH  11  25
BRANCH   7  28
ATOM     27  O   UNL     1      36.601 -19.145 -20.086  0.00  0.00    -0.291 OA
ATOM     28  C   UNL     1      35.730 -19.282 -20.945  0.00  0.00    +0.205 C 
BRANCH  28  29
ATOM     29  C   UNL     1      34.601 -20.281 -20.804  0.00  0.00    +0.220 C 
BRANCH  29  30
ATOM     30  O   UNL     1      35.060 -21.469 -20.194  0.00  0.00    -0.265 OA
BRANCH  30  31
ATOM     31  P   UNL     1      34.078 -22.242 -19.161  0.00  0.00    +0.473 P 
ATOM     32  O   UNL     1      32.757 -21.570 -18.923  0.00  0.00    -0.227 OA
BRANCH  31  33
ATOM     33  O   UNL     1      34.994 -22.450 -17.845  0.00  0.00    -0.303 OA
ATOM     34  H   UNL     1      35.715 -21.800 -17.847  0.00  0.00    +0.222 HD
ENDBRANCH  31  33
BRANCH  31  35
ATOM     35  O   UNL     1      33.984 -23.730 -19.788  0.00  0.00    -0.303 OA
ATOM     36  H   UNL     1      34.439 -23.748 -20.645  0.00  0.00    +0.222 HD
ENDBRANCH  31  35
ENDBRANCH  30  31
ENDBRANCH  29  30
ENDBRANCH  28  29
ENDBRANCH   7  28
TORSDOF 8
ENDMDL
MODEL 5
REMARK VINA RESULT:      -6.6     13.662     15.748
REMARK  Name = 107782
REMARK  8 active torsions:
REMARK  status: ('A' for Active; 'I' for Inactive)
REMARK    1  A    between atoms: C_7  and  O_23
REMARK    2  A    between atoms: C_7  and  C_28
REMARK    3  A    between atoms: C_11  and  O_25
REMARK    4  A    between atoms: C_28  and  C_29
REMARK    5  A    between atoms: C_29  and  O_30
REMARK    6  A    between atoms: O_30  and  P_31
REMARK    7  A    between atoms: P_31  and  O_33
REMARK    8  A    between atoms: P_31  and  O_35
REMARK                            x       y       z     vdW  Elec       q    Type
REMARK                         _______ _______ _______ _____ _____    ______ ____
ROOT
ATOM      1  F   UNL     1      32.084 -22.492 -14.446  0.00  0.00    -0.237 F 
ATOM      2  O   UNL     1      27.347 -21.724 -15.319  0.00  0.00    -0.287 OA
ATOM      3  C   UNL     1      35.211 -24.079 -14.647  0.00  0.00    +0.032 C 
ATOM      4  C   UNL     1      34.604 -23.042 -15.617  0.00  0.00    +0.005 C 
ATOM      5  C   UNL     1      33.265 -23.488 -16.225  0.00  0.00    +0.033 C 
ATOM      6  C   UNL     1      32.230 -23.721 -15.072  0.00  0.00    +0.164 C 
ATOM      7  C   UNL     1      36.550 -23.363 -14.286  0.00  0.00    +0.141 C 
ATOM      8  C   UNL     1      35.767 -22.722 -16.549  0.00  0.00    +0.003 C 
ATOM      9  C   UNL     1      34.209 -24.267 -13.488  0.00  0.00    +0.035 C 
ATOM     10  C   UNL     1      36.984 -22.627 -15.594  0.00  0.00    +0.032 C 
ATOM     11  C   UNL     1      32.791 -24.658 -13.961  0.00  0.00    +0.141 C 
ATOM     12  C   UNL     1      30.797 -24.085 -15.627  0.00  0.00    +0.064 C 
ATOM     13  C   UNL     1      32.756 -22.433 -17.226  0.00  0.00    +0.007 C 
ATOM     14  C   UNL     1      35.514 -25.446 -15.322  0.00  0.00    +0.003 C 
ATOM     15  C   UNL     1      31.373 -22.772 -17.770  0.00  0.00    +0.023 C 
ATOM     16  C   UNL     1      30.405 -23.000 -16.637  0.00  0.00    -0.035 C 
ATOM     17  C   UNL     1      38.249 -23.135 -16.278  0.00  0.00    +0.003 C 
ATOM     18  C   UNL     1      30.727 -25.452 -16.345  0.00  0.00    +0.011 C 
ATOM     19  C   UNL     1      29.793 -24.159 -14.484  0.00  0.00    -0.017 C 
ATOM     20  C   UNL     1      29.300 -22.246 -16.532  0.00  0.00    +0.034 C 
ATOM     21  C   UNL     1      28.692 -23.409 -14.372  0.00  0.00    +0.038 C 
ATOM     22  C   UNL     1      28.363 -22.406 -15.401  0.00  0.00    +0.195 C 
ENDROOT
BRANCH   7  23
ATOM     23  O   UNL     1      36.316 -22.372 -13.277  0.00  0.00    -0.380 OA
ATOM     24  H   UNL     1      37.157 -21.957 -13.030  0.00  0.00    +0.211 HD
ENDBRANCH   7  23
BRANCH  11  25
ATOM     25  O   UNL     1      32.779 -26.018 -14.369  0.00  0.00    -0.382 OA
ATOM     26  H   UNL     1      31.905 -26.241 -14.726  0.00  0.00    +0.210 HD
ENDBRANCH  11  25
BRANCH   7  28
ATOM     27  O   UNL     1      38.242 -25.043 -14.275  0.00  0.00    -0.291 OA
ATOM     28  C   UNL     1      37.571 -24.242 -13.625  0.00  0.00    +0.205 C 
BRANCH  28  29
ATOM     29  C   UNL     1      37.725 -24.081 -12.128  0.00  0.00    +0.220 C 
BRANCH  29  30
ATOM     30  O   UNL     1      36.779 -24.875 -11.441  0.00  0.00    -0.265 OA
BRANCH  30  31
ATOM     31  P   UNL     1      35.800 -24.160 -10.364  0.00  0.00    +0.473 P 
ATOM     32  O   UNL     1      35.212 -25.082  -9.337  0.00  0.00    -0.227 OA
BRANCH  31  33
ATOM     33  O   UNL     1      34.727 -23.376 -11.285  0.00  0.00    -0.303 OA
ATOM     34  H   UNL     1      34.647 -23.824 -12.142  0.00  0.00    +0.222 HD
ENDBRANCH  31  33
BRANCH  31  35
ATOM     35  O   UNL     1      36.719 -22.970  -9.768  0.00  0.00    -0.303 OA
ATOM     36  H   UNL     1      36.254 -22.540  -9.034  0.00  0.00    +0.222 HD
ENDBRANCH  31  35
ENDBRANCH  30  31
ENDBRANCH  29  30
ENDBRANCH  28  29
ENDBRANCH   7  28
TORSDOF 8
ENDMDL
MODEL 6
REMARK VINA RESULT:      -6.6      3.109      8.680
REMARK  Name = 107782
REMARK  8 active torsions:
REMARK  status: ('A' for Active; 'I' for Inactive)
REMARK    1  A    between atoms: C_7  and  O_23
REMARK    2  A    between atoms: C_7  and  C_28
REMARK    3  A    between atoms: C_11  and  O_25
REMARK    4  A    between atoms: C_28  and  C_29
REMARK    5  A    between atoms: C_29  and  O_30
REMARK    6  A    between atoms: O_30  and  P_31
REMARK    7  A    between atoms: P_31  and  O_33
REMARK    8  A    between atoms: P_31  and  O_35
REMARK                            x       y       z     vdW  Elec       q    Type
REMARK                         _______ _______ _______ _____ _____    ______ ____
ROOT
ATOM      1  F   UNL     1      34.644 -12.179 -22.407  0.00  0.00    -0.237 F 
ATOM      2  O   UNL     1      35.155 -16.954 -21.550  0.00  0.00    -0.287 OA
ATOM      3  C   UNL     1      33.176  -9.236 -23.640  0.00  0.00    +0.032 C 
ATOM      4  C   UNL     1      32.862  -9.980 -22.323  0.00  0.00    +0.005 C 
ATOM      5  C   UNL     1      32.413 -11.434 -22.537  0.00  0.00    +0.033 C 
ATOM      6  C   UNL     1      33.556 -12.221 -23.265  0.00  0.00    +0.164 C 
ATOM      7  C   UNL     1      33.515  -7.820 -23.078  0.00  0.00    +0.141 C 
ATOM      8  C   UNL     1      31.925  -9.019 -21.601  0.00  0.00    +0.003 C 
ATOM      9  C   UNL     1      34.336  -9.987 -24.327  0.00  0.00    +0.035 C 
ATOM     10  C   UNL     1      32.563  -7.629 -21.854  0.00  0.00    +0.032 C 
ATOM     11  C   UNL     1      34.046 -11.489 -24.550  0.00  0.00    +0.141 C 
ATOM     12  C   UNL     1      33.208 -13.753 -23.431  0.00  0.00    +0.064 C 
ATOM     13  C   UNL     1      32.058 -12.088 -21.188  0.00  0.00    +0.007 C 
ATOM     14  C   UNL     1      31.955  -9.142 -24.597  0.00  0.00    +0.003 C 
ATOM     15  C   UNL     1      31.720 -13.567 -21.333  0.00  0.00    +0.023 C 
ATOM     16  C   UNL     1      32.833 -14.292 -22.045  0.00  0.00    -0.035 C 
ATOM     17  C   UNL     1      31.487  -6.556 -21.983  0.00  0.00    +0.003 C 
ATOM     18  C   UNL     1      32.025 -14.031 -24.386  0.00  0.00    +0.011 C 
ATOM     19  C   UNL     1      34.401 -14.504 -24.007  0.00  0.00    -0.017 C 
ATOM     20  C   UNL     1      33.462 -15.316 -21.447  0.00  0.00    +0.034 C 
ATOM     21  C   UNL     1      35.032 -15.523 -23.416  0.00  0.00    +0.038 C 
ATOM     22  C   UNL     1      34.595 -16.009 -22.096  0.00  0.00    +0.195 C 
ENDROOT
BRANCH   7  23
ATOM     23  O   UNL     1      34.865  -7.797 -22.597  0.00  0.00    -0.380 OA
ATOM     24  H   UNL     1      35.369  -7.123 -23.080  0.00  0.00    +0.211 HD
ENDBRANCH   7  23
BRANCH  11  25
ATOM     25  O   UNL     1      33.131 -11.647 -25.624  0.00  0.00    -0.382 OA
ATOM     26  H   UNL     1      33.043 -12.589 -25.837  0.00  0.00    +0.210 HD
ENDBRANCH  11  25
BRANCH   7  28
ATOM     27  O   UNL     1      34.533  -6.510 -24.790  0.00  0.00    -0.291 OA
ATOM     28  C   UNL     1      33.534  -6.727 -24.105  0.00  0.00    +0.205 C 
BRANCH  28  29
ATOM     29  C   UNL     1      32.261  -5.918 -24.247  0.00  0.00    +0.220 C 
BRANCH  29  30
ATOM     30  O   UNL     1      32.528  -4.670 -24.851  0.00  0.00    -0.265 OA
BRANCH  30  31
ATOM     31  P   UNL     1      31.567  -3.413 -24.495  0.00  0.00    +0.473 P 
ATOM     32  O   UNL     1      30.148  -3.552 -24.961  0.00  0.00    -0.227 OA
BRANCH  31  33
ATOM     33  O   UNL     1      32.368  -2.140 -25.089  0.00  0.00    -0.303 OA
ATOM     34  H   UNL     1      33.318  -2.337 -25.112  0.00  0.00    +0.222 HD
ENDBRANCH  31  33
BRANCH  31  35
ATOM     35  O   UNL     1      31.750  -3.255 -22.896  0.00  0.00    -0.303 OA
ATOM     36  H   UNL     1      31.960  -4.119 -22.508  0.00  0.00    +0.222 HD
ENDBRANCH  31  35
ENDBRANCH  30  31
ENDBRANCH  29  30
ENDBRANCH  28  29
ENDBRANCH   7  28
TORSDOF 8
ENDMDL
MODEL 7
REMARK VINA RESULT:      -5.9      9.674     13.933
REMARK  Name = 107782
REMARK  8 active torsions:
REMARK  status: ('A' for Active; 'I' for Inactive)
REMARK    1  A    between atoms: C_7  and  O_23
REMARK    2  A    between atoms: C_7  and  C_28
REMARK    3  A    between atoms: C_11  and  O_25
REMARK    4  A    between atoms: C_28  and  C_29
REMARK    5  A    between atoms: C_29  and  O_30
REMARK    6  A    between atoms: O_30  and  P_31
REMARK    7  A    between atoms: P_31  and  O_33
REMARK    8  A    between atoms: P_31  and  O_35
REMARK                            x       y       z     vdW  Elec       q    Type
REMARK                         _______ _______ _______ _____ _____    ______ ____
ROOT
ATOM      1  F   UNL     1      34.539 -20.921 -17.497  0.00  0.00    -0.237 F 
ATOM      2  O   UNL     1      33.779 -18.325 -21.556  0.00  0.00    -0.287 OA
ATOM      3  C   UNL     1      35.334 -23.720 -15.529  0.00  0.00    +0.032 C 
ATOM      4  C   UNL     1      36.299 -22.699 -16.170  0.00  0.00    +0.005 C 
ATOM      5  C   UNL     1      36.167 -22.612 -17.699  0.00  0.00    +0.033 C 
ATOM      6  C   UNL     1      34.706 -22.176 -18.063  0.00  0.00    +0.164 C 
ATOM      7  C   UNL     1      35.773 -23.609 -14.036  0.00  0.00    +0.141 C 
ATOM      8  C   UNL     1      37.648 -23.076 -15.568  0.00  0.00    +0.003 C 
ATOM      9  C   UNL     1      33.897 -23.257 -15.849  0.00  0.00    +0.035 C 
ATOM     10  C   UNL     1      37.315 -23.364 -14.082  0.00  0.00    +0.032 C 
ATOM     11  C   UNL     1      33.637 -23.065 -17.360  0.00  0.00    +0.141 C 
ATOM     12  C   UNL     1      34.521 -21.967 -19.618  0.00  0.00    +0.064 C 
ATOM     13  C   UNL     1      37.202 -21.623 -18.269  0.00  0.00    +0.007 C 
ATOM     14  C   UNL     1      35.555 -25.173 -16.034  0.00  0.00    +0.003 C 
ATOM     15  C   UNL     1      37.034 -21.412 -19.769  0.00  0.00    +0.023 C 
ATOM     16  C   UNL     1      35.618 -21.004 -20.086  0.00  0.00    -0.035 C 
ATOM     17  C   UNL     1      38.202 -24.477 -13.535  0.00  0.00    +0.003 C 
ATOM     18  C   UNL     1      34.640 -23.266 -20.447  0.00  0.00    +0.011 C 
ATOM     19  C   UNL     1      33.136 -21.405 -19.911  0.00  0.00    -0.017 C 
ATOM     20  C   UNL     1      35.374 -19.838 -20.705  0.00  0.00    +0.034 C 
ATOM     21  C   UNL     1      32.887 -20.244 -20.524  0.00  0.00    +0.038 C 
ATOM     22  C   UNL     1      33.994 -19.384 -20.977  0.00  0.00    +0.195 C 
ENDROOT
BRANCH   7  23
ATOM     23  O   UNL     1      35.160 -22.462 -13.432  0.00  0.00    -0.380 OA
ATOM     24  H   UNL     1      35.733 -21.688 -13.553  0.00  0.00    +0.211 HD
ENDBRANCH   7  23
BRANCH  11  25
ATOM     25  O   UNL     1      33.512 -24.331 -17.991  0.00  0.00    -0.382 OA
ATOM     26  H   UNL     1      33.081 -24.221 -18.853  0.00  0.00    +0.210 HD
ENDBRANCH  11  25
BRANCH   7  28
ATOM     27  O   UNL     1      35.950 -25.741 -12.984  0.00  0.00    -0.291 OA
ATOM     28  C   UNL     1      35.284 -24.721 -13.155  0.00  0.00    +0.205 C 
BRANCH  28  29
ATOM     29  C   UNL     1      33.936 -24.511 -12.497  0.00  0.00    +0.220 C 
BRANCH  29  30
ATOM     30  O   UNL     1      32.912 -25.129 -13.249  0.00  0.00    -0.265 OA
BRANCH  30  31
ATOM     31  P   UNL     1      31.567 -24.283 -13.572  0.00  0.00    +0.473 P 
ATOM     32  O   UNL     1      31.100 -24.361 -14.996  0.00  0.00    -0.227 OA
BRANCH  31  33
ATOM     33  O   UNL     1      31.912 -22.797 -13.037  0.00  0.00    -0.303 OA
ATOM     34  H   UNL     1      32.446 -22.331 -13.700  0.00  0.00    +0.222 HD
ENDBRANCH  31  33
BRANCH  31  35
ATOM     35  O   UNL     1      30.515 -24.838 -12.476  0.00  0.00    -0.303 OA
ATOM     36  H   UNL     1      30.596 -25.802 -12.410  0.00  0.00    +0.222 HD
ENDBRANCH  31  35
ENDBRANCH  30  31
ENDBRANCH  29  30
ENDBRANCH  28  29
ENDBRANCH   7  28
TORSDOF 8
ENDMDL
