MODEL 1
REMARK VINA RESULT:     -10.2      0.000      0.000
REMARK  Name = 3393
REMARK  6 active torsions:
REMARK  status: ('A' for Active; 'I' for Inactive)
REMARK    1  A    between atoms: N_3  and  C_21
REMARK    2  A    between atoms: C_8  and  C_15
REMARK    3  A    between atoms: C_21  and  C_22
REMARK    4  A    between atoms: C_22  and  N_23
REMARK    5  A    between atoms: N_23  and  C_25
REMARK    6  A    between atoms: N_23  and  C_27
REMARK                            x       y       z     vdW  Elec       q    Type
REMARK                         _______ _______ _______ _____ _____    ______ ____
ROOT
ATOM      1 CL   UNL     1      31.360 -12.018 -20.179  0.00  0.00    -0.082 Cl
ATOM      2  O   UNL     1      34.612 -16.667 -25.952  0.00  0.00    -0.272 OA
ATOM      3  N   UNL     1      34.217 -15.817 -23.820  0.00  0.00    -0.259 N 
ATOM      4  N   UNL     1      33.383 -13.717 -25.849  0.00  0.00    -0.260 NA
ATOM      5  C   UNL     1      33.568 -14.860 -22.965  0.00  0.00    +0.055 C 
ATOM      6  C   UNL     1      33.177 -13.577 -23.401  0.00  0.00    +0.032 C 
ATOM      7  C   UNL     1      33.992 -15.913 -25.198  0.00  0.00    +0.254 C 
ATOM      8  C   UNL     1      33.523 -13.048 -24.755  0.00  0.00    +0.080 C 
ATOM      9  C   UNL     1      32.873 -15.069 -25.751  0.00  0.00    +0.210 C 
ATOM     10  C   UNL     1      33.313 -15.195 -21.620  0.00  0.00    +0.016 C 
ATOM     11  C   UNL     1      32.487 -12.708 -22.537  0.00  0.00    +0.014 C 
ATOM     12  C   UNL     1      32.646 -14.319 -20.761  0.00  0.00    +0.013 C 
ATOM     13  C   UNL     1      32.223 -13.080 -21.223  0.00  0.00    +0.058 C 
ENDROOT
BRANCH   8  15
ATOM     14  F   UNL     1      34.969 -12.173 -27.016  0.00  0.00    -0.204 F 
ATOM     15  C   UNL     1      34.084 -11.671 -24.868  0.00  0.00    +0.045 C 
ATOM     16  C   UNL     1      34.787 -11.304 -26.011  0.00  0.00    +0.142 C 
ATOM     17  C   UNL     1      33.898 -10.768 -23.829  0.00  0.00    +0.004 C 
ATOM     18  C   UNL     1      35.310 -10.016 -26.114  0.00  0.00    +0.030 C 
ATOM     19  C   UNL     1      34.421  -9.479 -23.934  0.00  0.00    +0.000 C 
ATOM     20  C   UNL     1      35.127  -9.103 -25.076  0.00  0.00    +0.002 C 
ENDBRANCH   8  15
BRANCH   3  21
ATOM     21  C   UNL     1      35.120 -16.789 -23.202  0.00  0.00    +0.076 C 
BRANCH  21  22
ATOM     22  C   UNL     1      34.540 -18.194 -23.261  0.00  0.00    -0.055 C 
BRANCH  22  23
ATOM     23  N   UNL     1      34.818 -18.908 -22.021  0.00  0.00    +0.388 N 
ATOM     24  H   UNL     1      34.901 -19.901 -22.240  0.00  0.00    -0.080 HD
BRANCH  23  25
ATOM     25  C   UNL     1      33.723 -18.730 -21.066  0.00  0.00    -0.077 C 
ATOM     26  C   UNL     1      33.090 -20.062 -20.702  0.00  0.00    -0.025 C 
ENDBRANCH  23  25
BRANCH  23  27
ATOM     27  C   UNL     1      36.081 -18.454 -21.436  0.00  0.00    -0.077 C 
ATOM     28  C   UNL     1      36.748 -19.563 -20.639  0.00  0.00    -0.025 C 
ENDBRANCH  23  27
ENDBRANCH  22  23
ENDBRANCH  21  22
ENDBRANCH   3  21
TORSDOF 6
ENDMDL
MODEL 2
REMARK VINA RESULT:      -9.7      1.151      1.852
REMARK  Name = 3393
REMARK  6 active torsions:
REMARK  status: ('A' for Active; 'I' for Inactive)
REMARK    1  A    between atoms: N_3  and  C_21
REMARK    2  A    between atoms: C_8  and  C_15
REMARK    3  A    between atoms: C_21  and  C_22
REMARK    4  A    between atoms: C_22  and  N_23
REMARK    5  A    between atoms: N_23  and  C_25
REMARK    6  A    between atoms: N_23  and  C_27
REMARK                            x       y       z     vdW  Elec       q    Type
REMARK                         _______ _______ _______ _____ _____    ______ ____
ROOT
ATOM      1 CL   UNL     1      31.590 -12.211 -19.563  0.00  0.00    -0.082 Cl
ATOM      2  O   UNL     1      34.456 -16.189 -26.004  0.00  0.00    -0.272 OA
ATOM      3  N   UNL     1      34.235 -15.543 -23.777  0.00  0.00    -0.259 N 
ATOM      4  N   UNL     1      33.124 -13.322 -25.525  0.00  0.00    -0.260 NA
ATOM      5  C   UNL     1      33.633 -14.695 -22.784  0.00  0.00    +0.055 C 
ATOM      6  C   UNL     1      33.149 -13.401 -23.066  0.00  0.00    +0.032 C 
ATOM      7  C   UNL     1      33.882 -15.533 -25.131  0.00  0.00    +0.254 C 
ATOM      8  C   UNL     1      33.342 -12.743 -24.394  0.00  0.00    +0.080 C 
ATOM      9  C   UNL     1      32.681 -14.701 -25.501  0.00  0.00    +0.210 C 
ATOM     10  C   UNL     1      33.523 -15.155 -21.456  0.00  0.00    +0.016 C 
ATOM     11  C   UNL     1      32.512 -12.643 -22.068  0.00  0.00    +0.014 C 
ATOM     12  C   UNL     1      32.907 -14.389 -20.465  0.00  0.00    +0.013 C 
ATOM     13  C   UNL     1      32.390 -13.137 -20.773  0.00  0.00    +0.058 C 
ENDROOT
BRANCH   8  15
ATOM     14  F   UNL     1      31.968 -10.613 -23.150  0.00  0.00    -0.204 F 
ATOM     15  C   UNL     1      33.833 -11.335 -24.435  0.00  0.00    +0.045 C 
ATOM     16  C   UNL     1      33.107 -10.333 -23.801  0.00  0.00    +0.142 C 
ATOM     17  C   UNL     1      35.011 -11.040 -25.108  0.00  0.00    +0.004 C 
ATOM     18  C   UNL     1      33.569  -9.017 -23.841  0.00  0.00    +0.030 C 
ATOM     19  C   UNL     1      35.473  -9.724 -25.147  0.00  0.00    +0.000 C 
ATOM     20  C   UNL     1      34.751  -8.713 -24.514  0.00  0.00    +0.002 C 
ENDBRANCH   8  15
BRANCH   3  21
ATOM     21  C   UNL     1      35.232 -16.518 -23.335  0.00  0.00    +0.076 C 
BRANCH  21  22
ATOM     22  C   UNL     1      34.615 -17.899 -23.165  0.00  0.00    -0.055 C 
BRANCH  22  23
ATOM     23  N   UNL     1      34.858 -18.399 -21.817  0.00  0.00    +0.388 N 
ATOM     24  H   UNL     1      34.444 -17.742 -21.156  0.00  0.00    -0.080 HD
BRANCH  23  25
ATOM     25  C   UNL     1      36.294 -18.489 -21.550  0.00  0.00    -0.077 C 
ATOM     26  C   UNL     1      36.604 -19.623 -20.589  0.00  0.00    -0.025 C 
ENDBRANCH  23  25
BRANCH  23  27
ATOM     27  C   UNL     1      34.225 -19.707 -21.631  0.00  0.00    -0.077 C 
ATOM     28  C   UNL     1      32.992 -19.601 -20.749  0.00  0.00    -0.025 C 
ENDBRANCH  23  27
ENDBRANCH  22  23
ENDBRANCH  21  22
ENDBRANCH   3  21
TORSDOF 6
ENDMDL
MODEL 3
REMARK VINA RESULT:      -9.3      1.022      1.511
REMARK  Name = 3393
REMARK  6 active torsions:
REMARK  status: ('A' for Active; 'I' for Inactive)
REMARK    1  A    between atoms: N_3  and  C_21
REMARK    2  A    between atoms: C_8  and  C_15
REMARK    3  A    between atoms: C_21  and  C_22
REMARK    4  A    between atoms: C_22  and  N_23
REMARK    5  A    between atoms: N_23  and  C_25
REMARK    6  A    between atoms: N_23  and  C_27
REMARK                            x       y       z     vdW  Elec       q    Type
REMARK                         _______ _______ _______ _____ _____    ______ ____
ROOT
ATOM      1 CL   UNL     1      30.795 -11.153 -19.970  0.00  0.00    -0.082 Cl
ATOM      2  O   UNL     1      34.657 -16.112 -25.069  0.00  0.00    -0.272 OA
ATOM      3  N   UNL     1      34.053 -15.121 -23.049  0.00  0.00    -0.259 N 
ATOM      4  N   UNL     1      33.356 -13.200 -25.297  0.00  0.00    -0.260 NA
ATOM      5  C   UNL     1      33.308 -14.124 -22.330  0.00  0.00    +0.055 C 
ATOM      6  C   UNL     1      32.928 -12.889 -22.894  0.00  0.00    +0.032 C 
ATOM      7  C   UNL     1      33.955 -15.324 -24.431  0.00  0.00    +0.254 C 
ATOM      8  C   UNL     1      33.382 -12.450 -24.248  0.00  0.00    +0.080 C 
ATOM      9  C   UNL     1      32.871 -14.556 -25.142  0.00  0.00    +0.210 C 
ATOM     10  C   UNL     1      32.942 -14.367 -20.991  0.00  0.00    +0.016 C 
ATOM     11  C   UNL     1      32.144 -11.980 -22.162  0.00  0.00    +0.014 C 
ATOM     12  C   UNL     1      32.181 -13.450 -20.262  0.00  0.00    +0.013 C 
ATOM     13  C   UNL     1      31.771 -12.262 -20.851  0.00  0.00    +0.058 C 
ENDROOT
BRANCH   8  15
ATOM     14  F   UNL     1      35.076 -11.722 -26.386  0.00  0.00    -0.204 F 
ATOM     15  C   UNL     1      33.919 -11.069 -24.415  0.00  0.00    +0.045 C 
ATOM     16  C   UNL     1      34.749 -10.777 -25.492  0.00  0.00    +0.142 C 
ATOM     17  C   UNL     1      33.583 -10.087 -23.492  0.00  0.00    +0.004 C 
ATOM     18  C   UNL     1      35.249  -9.484 -25.646  0.00  0.00    +0.030 C 
ATOM     19  C   UNL     1      34.083  -8.794 -23.647  0.00  0.00    +0.000 C 
ATOM     20  C   UNL     1      34.916  -8.492 -24.724  0.00  0.00    +0.002 C 
ENDBRANCH   8  15
BRANCH   3  21
ATOM     21  C   UNL     1      34.920 -16.018 -22.284  0.00  0.00    +0.076 C 
BRANCH  21  22
ATOM     22  C   UNL     1      34.211 -17.325 -21.961  0.00  0.00    -0.055 C 
BRANCH  22  23
ATOM     23  N   UNL     1      35.171 -18.420 -21.903  0.00  0.00    +0.388 N 
ATOM     24  H   UNL     1      35.906 -18.162 -21.244  0.00  0.00    -0.080 HD
BRANCH  23  25
ATOM     25  C   UNL     1      35.779 -18.644 -23.216  0.00  0.00    -0.077 C 
ATOM     26  C   UNL     1      34.834 -19.398 -24.135  0.00  0.00    -0.025 C 
ENDBRANCH  23  25
BRANCH  23  27
ATOM     27  C   UNL     1      34.528 -19.645 -21.426  0.00  0.00    -0.077 C 
ATOM     28  C   UNL     1      33.155 -19.355 -20.843  0.00  0.00    -0.025 C 
ENDBRANCH  23  27
ENDBRANCH  22  23
ENDBRANCH  21  22
ENDBRANCH   3  21
TORSDOF 6
ENDMDL
MODEL 4
REMARK VINA RESULT:      -9.3      7.782     12.673
REMARK  Name = 3393
REMARK  6 active torsions:
REMARK  status: ('A' for Active; 'I' for Inactive)
REMARK    1  A    between atoms: N_3  and  C_21
REMARK    2  A    between atoms: C_8  and  C_15
REMARK    3  A    between atoms: C_21  and  C_22
REMARK    4  A    between atoms: C_22  and  N_23
REMARK    5  A    between atoms: N_23  and  C_25
REMARK    6  A    between atoms: N_23  and  C_27
REMARK                            x       y       z     vdW  Elec       q    Type
REMARK                         _______ _______ _______ _____ _____    ______ ____
ROOT
ATOM      1 CL   UNL     1      31.115 -23.830 -13.937  0.00  0.00    -0.082 Cl
ATOM      2  O   UNL     1      37.212 -21.585 -18.764  0.00  0.00    -0.272 OA
ATOM      3  N   UNL     1      35.150 -22.476 -18.148  0.00  0.00    -0.259 N 
ATOM      4  N   UNL     1      36.966 -22.512 -15.714  0.00  0.00    -0.260 NA
ATOM      5  C   UNL     1      34.216 -22.849 -17.121  0.00  0.00    +0.055 C 
ATOM      6  C   UNL     1      34.608 -23.207 -15.814  0.00  0.00    +0.032 C 
ATOM      7  C   UNL     1      36.364 -21.825 -17.901  0.00  0.00    +0.254 C 
ATOM      8  C   UNL     1      36.041 -23.361 -15.420  0.00  0.00    +0.080 C 
ATOM      9  C   UNL     1      36.590 -21.348 -16.489  0.00  0.00    +0.210 C 
ATOM     10  C   UNL     1      32.838 -22.878 -17.417  0.00  0.00    +0.016 C 
ATOM     11  C   UNL     1      33.644 -23.501 -14.834  0.00  0.00    +0.014 C 
ATOM     12  C   UNL     1      31.887 -23.190 -16.443  0.00  0.00    +0.013 C 
ATOM     13  C   UNL     1      32.288 -23.490 -15.148  0.00  0.00    +0.058 C 
ENDROOT
BRANCH   8  15
ATOM     14  F   UNL     1      36.517 -23.315 -12.637  0.00  0.00    -0.204 F 
ATOM     15  C   UNL     1      36.451 -24.573 -14.653  0.00  0.00    +0.045 C 
ATOM     16  C   UNL     1      36.669 -24.481 -13.283  0.00  0.00    +0.142 C 
ATOM     17  C   UNL     1      36.609 -25.782 -15.317  0.00  0.00    +0.004 C 
ATOM     18  C   UNL     1      37.051 -25.616 -12.568  0.00  0.00    +0.030 C 
ATOM     19  C   UNL     1      36.992 -26.918 -14.601  0.00  0.00    +0.000 C 
ATOM     20  C   UNL     1      37.212 -26.834 -13.227  0.00  0.00    +0.002 C 
ENDBRANCH   8  15
BRANCH   3  21
ATOM     21  C   UNL     1      34.782 -22.737 -19.540  0.00  0.00    +0.076 C 
BRANCH  21  22
ATOM     22  C   UNL     1      35.270 -21.625 -20.456  0.00  0.00    -0.055 C 
BRANCH  22  23
ATOM     23  N   UNL     1      34.521 -20.400 -20.208  0.00  0.00    +0.388 N 
ATOM     24  H   UNL     1      34.713 -20.099 -19.253  0.00  0.00    -0.080 HD
BRANCH  23  25
ATOM     25  C   UNL     1      33.082 -20.637 -20.342  0.00  0.00    -0.077 C 
ATOM     26  C   UNL     1      32.345 -19.357 -20.692  0.00  0.00    -0.025 C 
ENDBRANCH  23  25
BRANCH  23  27
ATOM     27  C   UNL     1      34.947 -19.340 -21.124  0.00  0.00    -0.077 C 
ATOM     28  C   UNL     1      36.441 -19.087 -21.015  0.00  0.00    -0.025 C 
ENDBRANCH  23  27
ENDBRANCH  22  23
ENDBRANCH  21  22
ENDBRANCH   3  21
TORSDOF 6
ENDMDL
MODEL 5
REMARK VINA RESULT:      -8.6      3.299      7.968
REMARK  Name = 3393
REMARK  6 active torsions:
REMARK  status: ('A' for Active; 'I' for Inactive)
REMARK    1  A    between atoms: N_3  and  C_21
REMARK    2  A    between atoms: C_8  and  C_15
REMARK    3  A    between atoms: C_21  and  C_22
REMARK    4  A    between atoms: C_22  and  N_23
REMARK    5  A    between atoms: N_23  and  C_25
REMARK    6  A    between atoms: N_23  and  C_27
REMARK                            x       y       z     vdW  Elec       q    Type
REMARK                         _______ _______ _______ _____ _____    ______ ____
ROOT
ATOM      1 CL   UNL     1      34.946 -20.345 -25.871  0.00  0.00    -0.082 Cl
ATOM      2  O   UNL     1      32.786 -14.938 -20.248  0.00  0.00    -0.272 OA
ATOM      3  N   UNL     1      33.915 -15.824 -22.083  0.00  0.00    -0.259 N 
ATOM      4  N   UNL     1      32.885 -18.130 -20.396  0.00  0.00    -0.260 NA
ATOM      5  C   UNL     1      34.195 -16.937 -22.949  0.00  0.00    +0.055 C 
ATOM      6  C   UNL     1      34.090 -18.281 -22.536  0.00  0.00    +0.032 C 
ATOM      7  C   UNL     1      32.967 -15.854 -21.054  0.00  0.00    +0.254 C 
ATOM      8  C   UNL     1      33.807 -18.667 -21.120  0.00  0.00    +0.080 C 
ATOM      9  C   UNL     1      32.088 -17.077 -20.992  0.00  0.00    +0.210 C 
ATOM     10  C   UNL     1      34.610 -16.695 -24.274  0.00  0.00    +0.016 C 
ATOM     11  C   UNL     1      34.315 -19.328 -23.447  0.00  0.00    +0.014 C 
ATOM     12  C   UNL     1      34.852 -17.740 -25.168  0.00  0.00    +0.013 C 
ATOM     13  C   UNL     1      34.693 -19.057 -24.758  0.00  0.00    +0.058 C 
ENDROOT
BRANCH   8  15
ATOM     14  F   UNL     1      36.627 -18.552 -21.061  0.00  0.00    -0.204 F 
ATOM     15  C   UNL     1      34.642 -19.724 -20.481  0.00  0.00    +0.045 C 
ATOM     16  C   UNL     1      36.028 -19.605 -20.487  0.00  0.00    +0.142 C 
ATOM     17  C   UNL     1      34.026 -20.817 -19.886  0.00  0.00    +0.004 C 
ATOM     18  C   UNL     1      36.807 -20.595 -19.888  0.00  0.00    +0.030 C 
ATOM     19  C   UNL     1      34.806 -21.807 -19.286  0.00  0.00    +0.000 C 
ATOM     20  C   UNL     1      36.196 -21.696 -19.287  0.00  0.00    +0.002 C 
ENDBRANCH   8  15
BRANCH   3  21
ATOM     21  C   UNL     1      34.618 -14.566 -22.332  0.00  0.00    +0.076 C 
BRANCH  21  22
ATOM     22  C   UNL     1      33.665 -13.493 -22.836  0.00  0.00    -0.055 C 
BRANCH  22  23
ATOM     23  N   UNL     1      33.865 -13.268 -24.262  0.00  0.00    +0.388 N 
ATOM     24  H   UNL     1      34.733 -13.728 -24.537  0.00  0.00    -0.080 HD
BRANCH  23  25
ATOM     25  C   UNL     1      33.984 -11.837 -24.548  0.00  0.00    -0.077 C 
ATOM     26  C   UNL     1      33.160 -11.013 -23.575  0.00  0.00    -0.025 C 
ENDBRANCH  23  25
BRANCH  23  27
ATOM     27  C   UNL     1      32.766 -13.850 -25.035  0.00  0.00    -0.077 C 
ATOM     28  C   UNL     1      33.156 -14.038 -26.492  0.00  0.00    -0.025 C 
ENDBRANCH  23  27
ENDBRANCH  22  23
ENDBRANCH  21  22
ENDBRANCH   3  21
TORSDOF 6
ENDMDL
MODEL 6
REMARK VINA RESULT:      -8.5      4.008      8.086
REMARK  Name = 3393
REMARK  6 active torsions:
REMARK  status: ('A' for Active; 'I' for Inactive)
REMARK    1  A    between atoms: N_3  and  C_21
REMARK    2  A    between atoms: C_8  and  C_15
REMARK    3  A    between atoms: C_21  and  C_22
REMARK    4  A    between atoms: C_22  and  N_23
REMARK    5  A    between atoms: N_23  and  C_25
REMARK    6  A    between atoms: N_23  and  C_27
REMARK                            x       y       z     vdW  Elec       q    Type
REMARK                         _______ _______ _______ _____ _____    ______ ____
ROOT
ATOM      1 CL   UNL     1      35.664 -10.812 -26.856  0.00  0.00    -0.082 Cl
ATOM      2  O   UNL     1      30.705 -10.261 -20.482  0.00  0.00    -0.272 OA
ATOM      3  N   UNL     1      32.528  -9.799 -21.857  0.00  0.00    -0.259 N 
ATOM      4  N   UNL     1      31.521 -12.588 -22.517  0.00  0.00    -0.260 NA
ATOM      5  C   UNL     1      33.303 -10.094 -23.031  0.00  0.00    +0.055 C 
ATOM      6  C   UNL     1      33.357 -11.375 -23.619  0.00  0.00    +0.032 C 
ATOM      7  C   UNL     1      31.327 -10.441 -21.532  0.00  0.00    +0.254 C 
ATOM      8  C   UNL     1      32.720 -12.573 -22.993  0.00  0.00    +0.080 C 
ATOM      9  C   UNL     1      30.756 -11.360 -22.582  0.00  0.00    +0.210 C 
ATOM     10  C   UNL     1      34.063  -9.070 -23.633  0.00  0.00    +0.016 C 
ATOM     11  C   UNL     1      34.082 -11.587 -24.805  0.00  0.00    +0.014 C 
ATOM     12  C   UNL     1      34.797  -9.293 -24.800  0.00  0.00    +0.013 C 
ATOM     13  C   UNL     1      34.797 -10.548 -25.393  0.00  0.00    +0.058 C 
ENDROOT
BRANCH   8  15
ATOM     14  F   UNL     1      32.905 -14.437 -25.105  0.00  0.00    -0.204 F 
ATOM     15  C   UNL     1      33.508 -13.835 -22.887  0.00  0.00    +0.045 C 
ATOM     16  C   UNL     1      33.558 -14.710 -23.966  0.00  0.00    +0.142 C 
ATOM     17  C   UNL     1      34.186 -14.121 -21.709  0.00  0.00    +0.004 C 
ATOM     18  C   UNL     1      34.296 -15.889 -23.864  0.00  0.00    +0.030 C 
ATOM     19  C   UNL     1      34.924 -15.301 -21.607  0.00  0.00    +0.000 C 
ATOM     20  C   UNL     1      34.980 -16.184 -22.685  0.00  0.00    +0.002 C 
ENDBRANCH   8  15
BRANCH   3  21
ATOM     21  C   UNL     1      32.989  -8.722 -20.981  0.00  0.00    +0.076 C 
BRANCH  21  22
ATOM     22  C   UNL     1      31.967  -7.599 -20.904  0.00  0.00    -0.055 C 
BRANCH  22  23
ATOM     23  N   UNL     1      31.954  -6.840 -22.148  0.00  0.00    +0.388 N 
ATOM     24  H   UNL     1      32.831  -7.018 -22.637  0.00  0.00    -0.080 HD
BRANCH  23  25
ATOM     25  C   UNL     1      31.853  -5.405 -21.877  0.00  0.00    -0.077 C 
ATOM     26  C   UNL     1      30.413  -4.993 -21.629  0.00  0.00    -0.025 C 
ENDBRANCH  23  25
BRANCH  23  27
ATOM     27  C   UNL     1      30.848  -7.273 -23.005  0.00  0.00    -0.077 C 
ATOM     28  C   UNL     1      31.178  -7.068 -24.474  0.00  0.00    -0.025 C 
ENDBRANCH  23  27
ENDBRANCH  22  23
ENDBRANCH  21  22
ENDBRANCH   3  21
TORSDOF 6
ENDMDL
MODEL 7
REMARK VINA RESULT:      -8.4      4.136      8.408
REMARK  Name = 3393
REMARK  6 active torsions:
REMARK  status: ('A' for Active; 'I' for Inactive)
REMARK    1  A    between atoms: N_3  and  C_21
REMARK    2  A    between atoms: C_8  and  C_15
REMARK    3  A    between atoms: C_21  and  C_22
REMARK    4  A    between atoms: C_22  and  N_23
REMARK    5  A    between atoms: N_23  and  C_25
REMARK    6  A    between atoms: N_23  and  C_27
REMARK                            x       y       z     vdW  Elec       q    Type
REMARK                         _______ _______ _______ _____ _____    ______ ____
ROOT
ATOM      1 CL   UNL     1      35.099 -12.204 -27.341  0.00  0.00    -0.082 Cl
ATOM      2  O   UNL     1      31.403  -9.285 -20.758  0.00  0.00    -0.272 OA
ATOM      3  N   UNL     1      32.996  -9.469 -22.447  0.00  0.00    -0.259 N 
ATOM      4  N   UNL     1      31.616 -12.158 -22.145  0.00  0.00    -0.260 NA
ATOM      5  C   UNL     1      33.522 -10.171 -23.586  0.00  0.00    +0.055 C 
ATOM      6  C   UNL     1      33.345 -11.555 -23.788  0.00  0.00    +0.032 C 
ATOM      7  C   UNL     1      31.812  -9.822 -21.790  0.00  0.00    +0.254 C 
ATOM      8  C   UNL     1      32.709 -12.442 -22.767  0.00  0.00    +0.080 C 
ATOM      9  C   UNL     1      30.979 -10.893 -22.447  0.00  0.00    +0.210 C 
ATOM     10  C   UNL     1      34.265  -9.462 -24.553  0.00  0.00    +0.016 C 
ATOM     11  C   UNL     1      33.828 -12.174 -24.955  0.00  0.00    +0.014 C 
ATOM     12  C   UNL     1      34.759 -10.088 -25.699  0.00  0.00    +0.013 C 
ATOM     13  C   UNL     1      34.530 -11.442 -25.907  0.00  0.00    +0.058 C 
ENDROOT
BRANCH   8  15
ATOM     14  F   UNL     1      32.524 -13.607 -20.203  0.00  0.00    -0.204 F 
ATOM     15  C   UNL     1      33.374 -13.731 -22.419  0.00  0.00    +0.045 C 
ATOM     16  C   UNL     1      33.241 -14.250 -21.136  0.00  0.00    +0.142 C 
ATOM     17  C   UNL     1      34.118 -14.400 -23.382  0.00  0.00    +0.004 C 
ATOM     18  C   UNL     1      33.863 -15.456 -20.813  0.00  0.00    +0.030 C 
ATOM     19  C   UNL     1      34.739 -15.606 -23.059  0.00  0.00    +0.000 C 
ATOM     20  C   UNL     1      34.612 -16.135 -21.774  0.00  0.00    +0.002 C 
ENDBRANCH   8  15
BRANCH   3  21
ATOM     21  C   UNL     1      33.709  -8.278 -21.985  0.00  0.00    +0.076 C 
BRANCH  21  22
ATOM     22  C   UNL     1      33.335  -7.057 -22.812  0.00  0.00    -0.055 C 
BRANCH  22  23
ATOM     23  N   UNL     1      31.899  -6.821 -22.746  0.00  0.00    +0.388 N 
ATOM     24  H   UNL     1      31.434  -7.721 -22.634  0.00  0.00    -0.080 HD
BRANCH  23  25
ATOM     25  C   UNL     1      31.420  -6.200 -23.983  0.00  0.00    -0.077 C 
ATOM     26  C   UNL     1      32.576  -5.847 -24.903  0.00  0.00    -0.025 C 
ENDBRANCH  23  25
BRANCH  23  27
ATOM     27  C   UNL     1      31.567  -5.979 -21.595  0.00  0.00    -0.077 C 
ATOM     28  C   UNL     1      30.257  -5.239 -21.814  0.00  0.00    -0.025 C 
ENDBRANCH  23  27
ENDBRANCH  22  23
ENDBRANCH  21  22
ENDBRANCH   3  21
TORSDOF 6
ENDMDL
MODEL 8
REMARK VINA RESULT:      -8.3      4.392      6.413
REMARK  Name = 3393
REMARK  6 active torsions:
REMARK  status: ('A' for Active; 'I' for Inactive)
REMARK    1  A    between atoms: N_3  and  C_21
REMARK    2  A    between atoms: C_8  and  C_15
REMARK    3  A    between atoms: C_21  and  C_22
REMARK    4  A    between atoms: C_22  and  N_23
REMARK    5  A    between atoms: N_23  and  C_25
REMARK    6  A    between atoms: N_23  and  C_27
REMARK                            x       y       z     vdW  Elec       q    Type
REMARK                         _______ _______ _______ _____ _____    ______ ____
ROOT
ATOM      1 CL   UNL     1      36.083  -9.733 -26.364  0.00  0.00    -0.082 Cl
ATOM      2  O   UNL     1      31.171  -9.546 -19.933  0.00  0.00    -0.272 OA
ATOM      3  N   UNL     1      32.099 -10.304 -21.931  0.00  0.00    -0.259 N 
ATOM      4  N   UNL     1      32.739  -7.348 -21.646  0.00  0.00    -0.260 NA
ATOM      5  C   UNL     1      33.021 -10.122 -23.019  0.00  0.00    +0.055 C 
ATOM      6  C   UNL     1      33.464  -8.854 -23.451  0.00  0.00    +0.032 C 
ATOM      7  C   UNL     1      32.020  -9.452 -20.824  0.00  0.00    +0.254 C 
ATOM      8  C   UNL     1      32.910  -7.580 -22.903  0.00  0.00    +0.080 C 
ATOM      9  C   UNL     1      33.093  -8.399 -20.714  0.00  0.00    +0.210 C 
ATOM     10  C   UNL     1      33.507 -11.251 -23.710  0.00  0.00    +0.016 C 
ATOM     11  C   UNL     1      34.417  -8.743 -24.479  0.00  0.00    +0.014 C 
ATOM     12  C   UNL     1      34.438 -11.131 -24.744  0.00  0.00    +0.013 C 
ATOM     13  C   UNL     1      34.902  -9.878 -25.121  0.00  0.00    +0.058 C 
ENDROOT
BRANCH   8  15
ATOM     14  F   UNL     1      30.402  -6.292 -22.771  0.00  0.00    -0.204 F 
ATOM     15  C   UNL     1      32.507  -6.502 -23.852  0.00  0.00    +0.045 C 
ATOM     16  C   UNL     1      31.256  -5.909 -23.731  0.00  0.00    +0.142 C 
ATOM     17  C   UNL     1      33.389  -6.103 -24.849  0.00  0.00    +0.004 C 
ATOM     18  C   UNL     1      30.882  -4.901 -24.620  0.00  0.00    +0.030 C 
ATOM     19  C   UNL     1      33.014  -5.094 -25.737  0.00  0.00    +0.000 C 
ATOM     20  C   UNL     1      31.761  -4.494 -25.623  0.00  0.00    +0.002 C 
ENDBRANCH   8  15
BRANCH   3  21
ATOM     21  C   UNL     1      31.234 -11.483 -21.953  0.00  0.00    +0.076 C 
BRANCH  21  22
ATOM     22  C   UNL     1      31.716 -12.538 -20.969  0.00  0.00    -0.055 C 
BRANCH  22  23
ATOM     23  N   UNL     1      32.783 -13.335 -21.564  0.00  0.00    +0.388 N 
ATOM     24  H   UNL     1      33.524 -12.700 -21.862  0.00  0.00    -0.080 HD
BRANCH  23  25
ATOM     25  C   UNL     1      32.292 -14.063 -22.736  0.00  0.00    -0.077 C 
ATOM     26  C   UNL     1      33.426 -14.771 -23.456  0.00  0.00    -0.025 C 
ENDBRANCH  23  25
BRANCH  23  27
ATOM     27  C   UNL     1      33.337 -14.269 -20.582  0.00  0.00    -0.077 C 
ATOM     28  C   UNL     1      32.320 -15.330 -20.196  0.00  0.00    -0.025 C 
ENDBRANCH  23  27
ENDBRANCH  22  23
ENDBRANCH  21  22
ENDBRANCH   3  21
TORSDOF 6
ENDMDL
MODEL 9
REMARK VINA RESULT:      -8.0      4.004      8.257
REMARK  Name = 3393
REMARK  6 active torsions:
REMARK  status: ('A' for Active; 'I' for Inactive)
REMARK    1  A    between atoms: N_3  and  C_21
REMARK    2  A    between atoms: C_8  and  C_15
REMARK    3  A    between atoms: C_21  and  C_22
REMARK    4  A    between atoms: C_22  and  N_23
REMARK    5  A    between atoms: N_23  and  C_25
REMARK    6  A    between atoms: N_23  and  C_27
REMARK                            x       y       z     vdW  Elec       q    Type
REMARK                         _______ _______ _______ _____ _____    ______ ____
ROOT
ATOM      1 CL   UNL     1      33.756 -14.010 -27.309  0.00  0.00    -0.082 Cl
ATOM      2  O   UNL     1      31.742  -9.567 -20.850  0.00  0.00    -0.272 OA
ATOM      3  N   UNL     1      32.857 -10.169 -22.805  0.00  0.00    -0.259 N 
ATOM      4  N   UNL     1      31.719 -12.688 -21.544  0.00  0.00    -0.260 NA
ATOM      5  C   UNL     1      33.104 -11.127 -23.848  0.00  0.00    +0.055 C 
ATOM      6  C   UNL     1      32.942 -12.518 -23.673  0.00  0.00    +0.032 C 
ATOM      7  C   UNL     1      31.897 -10.338 -21.801  0.00  0.00    +0.254 C 
ATOM      8  C   UNL     1      32.628 -13.129 -22.346  0.00  0.00    +0.080 C 
ATOM      9  C   UNL     1      30.971 -11.517 -21.954  0.00  0.00    +0.210 C 
ATOM     10  C   UNL     1      33.543 -10.678 -25.110  0.00  0.00    +0.016 C 
ATOM     11  C   UNL     1      33.137 -13.401 -24.749  0.00  0.00    +0.014 C 
ATOM     12  C   UNL     1      33.755 -11.564 -26.169  0.00  0.00    +0.013 C 
ATOM     13  C   UNL     1      33.540 -12.924 -25.993  0.00  0.00    +0.058 C 
ENDROOT
BRANCH   8  15
ATOM     14  F   UNL     1      32.454 -14.164 -19.725  0.00  0.00    -0.204 F 
ATOM     15  C   UNL     1      33.415 -14.313 -21.894  0.00  0.00    +0.045 C 
ATOM     16  C   UNL     1      33.282 -14.771 -20.589  0.00  0.00    +0.142 C 
ATOM     17  C   UNL     1      34.273 -14.945 -22.785  0.00  0.00    +0.004 C 
ATOM     18  C   UNL     1      34.018 -15.879 -20.169  0.00  0.00    +0.030 C 
ATOM     19  C   UNL     1      35.009 -16.053 -22.364  0.00  0.00    +0.000 C 
ATOM     20  C   UNL     1      34.882 -16.520 -21.056  0.00  0.00    +0.002 C 
ENDBRANCH   8  15
BRANCH   3  21
ATOM     21  C   UNL     1      33.611  -8.916 -22.830  0.00  0.00    +0.076 C 
BRANCH  21  22
ATOM     22  C   UNL     1      33.074  -7.972 -23.895  0.00  0.00    -0.055 C 
BRANCH  22  23
ATOM     23  N   UNL     1      32.762  -6.674 -23.309  0.00  0.00    +0.388 N 
ATOM     24  H   UNL     1      33.537  -6.405 -22.704  0.00  0.00    -0.080 HD
BRANCH  23  25
ATOM     25  C   UNL     1      31.543  -6.751 -22.501  0.00  0.00    -0.077 C 
ATOM     26  C   UNL     1      31.760  -6.152 -21.123  0.00  0.00    -0.025 C 
ENDBRANCH  23  25
BRANCH  23  27
ATOM     27  C   UNL     1      32.614  -5.658 -24.354  0.00  0.00    -0.077 C 
ATOM     28  C   UNL     1      31.150  -5.345 -24.613  0.00  0.00    -0.025 C 
ENDBRANCH  23  27
ENDBRANCH  22  23
ENDBRANCH  21  22
ENDBRANCH   3  21
TORSDOF 6
ENDMDL
