MODEL 1
REMARK VINA RESULT:      -9.4      0.000      0.000
REMARK  Name = 2782689
REMARK  3 active torsions:
REMARK  status: ('A' for Active; 'I' for Inactive)
REMARK    1  A    between atoms: C_1  and  C_8
REMARK    2  A    between atoms: C_4  and  C_15
REMARK    3  A    between atoms: C_15  and  O_16
REMARK                            x       y       z     vdW  Elec       q    Type
REMARK                         _______ _______ _______ _____ _____    ______ ____
ROOT
ATOM      1  C   UNL     1      34.491 -19.237 -21.003  0.00  0.00    +0.000 C 
ATOM      2  C   UNL     1      33.253 -19.761 -20.631  0.00  0.00    +0.000 C 
ATOM      3  C   UNL     1      35.665 -19.903 -20.652  0.00  0.00    +0.000 C 
ATOM      4  C   UNL     1      34.364 -21.620 -19.558  0.00  0.00    +0.075 C 
ATOM      5  C   UNL     1      33.190 -20.952 -19.909  0.00  0.00    +0.006 C 
ATOM      6  C   UNL     1      35.602 -21.095 -19.930  0.00  0.00    +0.006 C 
ENDROOT
BRANCH   1   8
ATOM      7  F   UNL     1      34.744 -14.474 -23.893  0.00  0.00    -0.204 F 
ATOM      8  C   UNL     1      34.558 -18.001 -21.753  0.00  0.00    +0.000 C 
ATOM      9  C   UNL     1      34.352 -16.782 -21.107  0.00  0.00    +0.002 C 
ATOM     10  C   UNL     1      34.826 -18.029 -23.122  0.00  0.00    +0.002 C 
ATOM     11  C   UNL     1      34.415 -15.591 -21.831  0.00  0.00    +0.030 C 
ATOM     12  C   UNL     1      34.888 -16.837 -23.845  0.00  0.00    +0.030 C 
ATOM     13  C   UNL     1      34.683 -15.618 -23.200  0.00  0.00    +0.140 C 
ENDBRANCH   1   8
BRANCH   4  15
ATOM     14  O   UNL     1      34.584 -22.966 -17.613  0.00  0.00    -0.245 OA
ATOM     15  C   UNL     1      34.298 -22.862 -18.805  0.00  0.00    +0.338 C 
BRANCH  15  16
ATOM     16  O   UNL     1      33.882 -23.938 -19.533  0.00  0.00    -0.477 OA
ATOM     17  H   UNL     1      33.638 -23.830 -20.431  0.00  0.00    +0.295 HD
ENDBRANCH  15  16
ENDBRANCH   4  15
TORSDOF 3
ENDMDL
MODEL 2
REMARK VINA RESULT:      -9.4      0.008      1.708
REMARK  Name = 2782689
REMARK  3 active torsions:
REMARK  status: ('A' for Active; 'I' for Inactive)
REMARK    1  A    between atoms: C_1  and  C_8
REMARK    2  A    between atoms: C_4  and  C_15
REMARK    3  A    between atoms: C_15  and  O_16
REMARK                            x       y       z     vdW  Elec       q    Type
REMARK                         _______ _______ _______ _____ _____    ______ ____
ROOT
ATOM      1  C   UNL     1      34.489 -19.241 -21.001  0.00  0.00    +0.000 C 
ATOM      2  C   UNL     1      35.663 -19.904 -20.645  0.00  0.00    +0.000 C 
ATOM      3  C   UNL     1      33.251 -19.769 -20.636  0.00  0.00    +0.000 C 
ATOM      4  C   UNL     1      34.360 -21.623 -19.554  0.00  0.00    +0.075 C 
ATOM      5  C   UNL     1      35.599 -21.094 -19.921  0.00  0.00    +0.006 C 
ATOM      6  C   UNL     1      33.186 -20.960 -19.912  0.00  0.00    +0.006 C 
ENDROOT
BRANCH   1   8
ATOM      7  F   UNL     1      34.747 -14.480 -23.893  0.00  0.00    -0.204 F 
ATOM      8  C   UNL     1      34.555 -18.006 -21.752  0.00  0.00    +0.000 C 
ATOM      9  C   UNL     1      34.820 -18.035 -23.121  0.00  0.00    +0.002 C 
ATOM     10  C   UNL     1      34.355 -16.785 -21.106  0.00  0.00    +0.002 C 
ATOM     11  C   UNL     1      34.885 -16.843 -23.843  0.00  0.00    +0.030 C 
ATOM     12  C   UNL     1      34.420 -15.594 -21.828  0.00  0.00    +0.030 C 
ATOM     13  C   UNL     1      34.685 -15.623 -23.198  0.00  0.00    +0.140 C 
ENDBRANCH   1   8
BRANCH   4  15
ATOM     14  O   UNL     1      34.574 -22.966 -17.606  0.00  0.00    -0.245 OA
ATOM     15  C   UNL     1      34.293 -22.864 -18.800  0.00  0.00    +0.338 C 
BRANCH  15  16
ATOM     16  O   UNL     1      33.885 -23.942 -19.528  0.00  0.00    -0.477 OA
ATOM     17  H   UNL     1      33.504 -24.682 -19.097  0.00  0.00    +0.295 HD
ENDBRANCH  15  16
ENDBRANCH   4  15
TORSDOF 3
ENDMDL
MODEL 3
REMARK VINA RESULT:      -9.4      0.101      1.212
REMARK  Name = 2782689
REMARK  3 active torsions:
REMARK  status: ('A' for Active; 'I' for Inactive)
REMARK    1  A    between atoms: C_1  and  C_8
REMARK    2  A    between atoms: C_4  and  C_15
REMARK    3  A    between atoms: C_15  and  O_16
REMARK                            x       y       z     vdW  Elec       q    Type
REMARK                         _______ _______ _______ _____ _____    ______ ____
ROOT
ATOM      1  C   UNL     1      34.500 -19.146 -21.022  0.00  0.00    +0.000 C 
ATOM      2  C   UNL     1      33.267 -19.672 -20.636  0.00  0.00    +0.000 C 
ATOM      3  C   UNL     1      35.679 -19.817 -20.695  0.00  0.00    +0.000 C 
ATOM      4  C   UNL     1      34.392 -21.542 -19.597  0.00  0.00    +0.075 C 
ATOM      5  C   UNL     1      33.213 -20.870 -19.924  0.00  0.00    +0.006 C 
ATOM      6  C   UNL     1      35.624 -21.016 -19.983  0.00  0.00    +0.006 C 
ENDROOT
BRANCH   1   8
ATOM      7  F   UNL     1      34.727 -14.357 -23.870  0.00  0.00    -0.204 F 
ATOM      8  C   UNL     1      34.557 -17.903 -21.761  0.00  0.00    +0.000 C 
ATOM      9  C   UNL     1      34.830 -17.918 -23.129  0.00  0.00    +0.002 C 
ATOM     10  C   UNL     1      34.342 -16.691 -21.106  0.00  0.00    +0.002 C 
ATOM     11  C   UNL     1      34.888 -16.719 -23.841  0.00  0.00    +0.030 C 
ATOM     12  C   UNL     1      34.399 -15.492 -21.817  0.00  0.00    +0.030 C 
ATOM     13  C   UNL     1      34.672 -15.507 -23.185  0.00  0.00    +0.140 C 
ENDBRANCH   1   8
BRANCH   4  15
ATOM     14  O   UNL     1      34.604 -22.900 -17.659  0.00  0.00    -0.245 OA
ATOM     15  C   UNL     1      34.335 -22.791 -18.855  0.00  0.00    +0.338 C 
BRANCH  15  16
ATOM     16  O   UNL     1      33.951 -23.869 -19.597  0.00  0.00    -0.477 OA
ATOM     17  H   UNL     1      34.376 -24.053 -20.411  0.00  0.00    +0.295 HD
ENDBRANCH  15  16
ENDBRANCH   4  15
TORSDOF 3
ENDMDL
MODEL 4
REMARK VINA RESULT:      -9.1      4.536      6.602
REMARK  Name = 2782689
REMARK  3 active torsions:
REMARK  status: ('A' for Active; 'I' for Inactive)
REMARK    1  A    between atoms: C_1  and  C_8
REMARK    2  A    between atoms: C_4  and  C_15
REMARK    3  A    between atoms: C_15  and  O_16
REMARK                            x       y       z     vdW  Elec       q    Type
REMARK                         _______ _______ _______ _____ _____    ______ ____
ROOT
ATOM      1  C   UNL     1      34.598 -19.104 -21.667  0.00  0.00    +0.000 C 
ATOM      2  C   UNL     1      34.705 -19.457 -23.012  0.00  0.00    +0.000 C 
ATOM      3  C   UNL     1      34.458 -17.764 -21.307  0.00  0.00    +0.000 C 
ATOM      4  C   UNL     1      34.530 -17.130 -23.637  0.00  0.00    +0.075 C 
ATOM      5  C   UNL     1      34.671 -18.471 -23.997  0.00  0.00    +0.006 C 
ATOM      6  C   UNL     1      34.423 -16.776 -22.292  0.00  0.00    +0.006 C 
ENDROOT
BRANCH   1   8
ATOM      7  F   UNL     1      34.735 -23.050 -17.730  0.00  0.00    -0.204 F 
ATOM      8  C   UNL     1      34.634 -20.127 -20.644  0.00  0.00    +0.000 C 
ATOM      9  C   UNL     1      35.857 -20.560 -20.134  0.00  0.00    +0.002 C 
ATOM     10  C   UNL     1      33.444 -20.682 -20.171  0.00  0.00    +0.002 C 
ATOM     11  C   UNL     1      35.890 -21.548 -19.149  0.00  0.00    +0.030 C 
ATOM     12  C   UNL     1      33.478 -21.670 -19.187  0.00  0.00    +0.030 C 
ATOM     13  C   UNL     1      34.701 -22.103 -18.675  0.00  0.00    +0.140 C 
ENDBRANCH   1   8
BRANCH   4  15
ATOM     14  O   UNL     1      34.116 -14.946 -24.476  0.00  0.00    -0.245 OA
ATOM     15  C   UNL     1      34.494 -16.101 -24.665  0.00  0.00    +0.338 C 
BRANCH  15  16
ATOM     16  O   UNL     1      34.922 -16.517 -25.891  0.00  0.00    -0.477 OA
ATOM     17  H   UNL     1      35.568 -16.022 -26.355  0.00  0.00    +0.295 HD
ENDBRANCH  15  16
ENDBRANCH   4  15
TORSDOF 3
ENDMDL
MODEL 5
REMARK VINA RESULT:      -9.1      4.535      6.583
REMARK  Name = 2782689
REMARK  3 active torsions:
REMARK  status: ('A' for Active; 'I' for Inactive)
REMARK    1  A    between atoms: C_1  and  C_8
REMARK    2  A    between atoms: C_4  and  C_15
REMARK    3  A    between atoms: C_15  and  O_16
REMARK                            x       y       z     vdW  Elec       q    Type
REMARK                         _______ _______ _______ _____ _____    ______ ____
ROOT
ATOM      1  C   UNL     1      34.610 -19.121 -21.656  0.00  0.00    +0.000 C 
ATOM      2  C   UNL     1      34.705 -19.477 -23.001  0.00  0.00    +0.000 C 
ATOM      3  C   UNL     1      34.482 -17.779 -21.296  0.00  0.00    +0.000 C 
ATOM      4  C   UNL     1      34.542 -17.149 -23.628  0.00  0.00    +0.075 C 
ATOM      5  C   UNL     1      34.671 -18.492 -23.986  0.00  0.00    +0.006 C 
ATOM      6  C   UNL     1      34.448 -16.793 -22.283  0.00  0.00    +0.006 C 
ENDROOT
BRANCH   1   8
ATOM      7  F   UNL     1      34.743 -23.056 -17.706  0.00  0.00    -0.204 F 
ATOM      8  C   UNL     1      34.645 -20.143 -20.632  0.00  0.00    +0.000 C 
ATOM      9  C   UNL     1      33.455 -20.695 -20.157  0.00  0.00    +0.002 C 
ATOM     10  C   UNL     1      35.868 -20.575 -20.118  0.00  0.00    +0.002 C 
ATOM     11  C   UNL     1      33.489 -21.679 -19.168  0.00  0.00    +0.030 C 
ATOM     12  C   UNL     1      35.902 -21.558 -19.129  0.00  0.00    +0.030 C 
ATOM     13  C   UNL     1      34.712 -22.111 -18.655  0.00  0.00    +0.140 C 
ENDBRANCH   1   8
BRANCH   4  15
ATOM     14  O   UNL     1      34.121 -14.968 -24.471  0.00  0.00    -0.245 OA
ATOM     15  C   UNL     1      34.507 -16.121 -24.656  0.00  0.00    +0.338 C 
BRANCH  15  16
ATOM     16  O   UNL     1      34.946 -16.536 -25.879  0.00  0.00    -0.477 OA
ATOM     17  H   UNL     1      35.461 -15.962 -26.411  0.00  0.00    +0.295 HD
ENDBRANCH  15  16
ENDBRANCH   4  15
TORSDOF 3
ENDMDL
MODEL 6
REMARK VINA RESULT:      -8.9      4.701      6.759
REMARK  Name = 2782689
REMARK  3 active torsions:
REMARK  status: ('A' for Active; 'I' for Inactive)
REMARK    1  A    between atoms: C_1  and  C_8
REMARK    2  A    between atoms: C_4  and  C_15
REMARK    3  A    between atoms: C_15  and  O_16
REMARK                            x       y       z     vdW  Elec       q    Type
REMARK                         _______ _______ _______ _____ _____    ______ ____
ROOT
ATOM      1  C   UNL     1      34.792 -18.222 -22.385  0.00  0.00    +0.000 C 
ATOM      2  C   UNL     1      34.771 -18.558 -23.738  0.00  0.00    +0.000 C 
ATOM      3  C   UNL     1      34.481 -16.922 -21.984  0.00  0.00    +0.000 C 
ATOM      4  C   UNL     1      34.126 -16.296 -24.290  0.00  0.00    +0.075 C 
ATOM      5  C   UNL     1      34.438 -17.596 -24.690  0.00  0.00    +0.006 C 
ATOM      6  C   UNL     1      34.148 -15.959 -22.937  0.00  0.00    +0.006 C 
ENDROOT
BRANCH   1   8
ATOM      7  F   UNL     1      36.121 -22.064 -18.568  0.00  0.00    -0.204 F 
ATOM      8  C   UNL     1      35.138 -19.220 -21.395  0.00  0.00    +0.000 C 
ATOM      9  C   UNL     1      34.149 -20.048 -20.866  0.00  0.00    +0.002 C 
ATOM     10  C   UNL     1      36.460 -19.351 -20.968  0.00  0.00    +0.002 C 
ATOM     11  C   UNL     1      34.481 -21.009 -19.911  0.00  0.00    +0.030 C 
ATOM     12  C   UNL     1      36.792 -20.312 -20.013  0.00  0.00    +0.030 C 
ATOM     13  C   UNL     1      35.803 -21.141 -19.485  0.00  0.00    +0.140 C 
ENDBRANCH   1   8
BRANCH   4  15
ATOM     14  O   UNL     1      33.765 -15.494 -26.497  0.00  0.00    -0.245 OA
ATOM     15  C   UNL     1      33.779 -15.292 -25.283  0.00  0.00    +0.338 C 
BRANCH  15  16
ATOM     16  O   UNL     1      33.458 -14.074 -24.762  0.00  0.00    -0.477 OA
ATOM     17  H   UNL     1      34.106 -13.398 -24.717  0.00  0.00    +0.295 HD
ENDBRANCH  15  16
ENDBRANCH   4  15
TORSDOF 3
ENDMDL
MODEL 7
REMARK VINA RESULT:      -8.8      4.778      6.853
REMARK  Name = 2782689
REMARK  3 active torsions:
REMARK  status: ('A' for Active; 'I' for Inactive)
REMARK    1  A    between atoms: C_1  and  C_8
REMARK    2  A    between atoms: C_4  and  C_15
REMARK    3  A    between atoms: C_15  and  O_16
REMARK                            x       y       z     vdW  Elec       q    Type
REMARK                         _______ _______ _______ _____ _____    ______ ____
ROOT
ATOM      1  C   UNL     1      34.623 -17.530 -21.947  0.00  0.00    +0.000 C 
ATOM      2  C   UNL     1      34.044 -16.452 -21.278  0.00  0.00    +0.000 C 
ATOM      3  C   UNL     1      34.895 -17.439 -23.312  0.00  0.00    +0.000 C 
ATOM      4  C   UNL     1      34.010 -15.192 -23.339  0.00  0.00    +0.075 C 
ATOM      5  C   UNL     1      33.737 -15.283 -21.973  0.00  0.00    +0.006 C 
ATOM      6  C   UNL     1      34.588 -16.270 -24.008  0.00  0.00    +0.006 C 
ENDROOT
BRANCH   1   8
ATOM      7  F   UNL     1      35.853 -22.208 -19.172  0.00  0.00    -0.204 F 
ATOM      8  C   UNL     1      34.942 -18.743 -21.225  0.00  0.00    +0.000 C 
ATOM      9  C   UNL     1      36.272 -19.066 -20.958  0.00  0.00    +0.002 C 
ATOM     10  C   UNL     1      33.919 -19.592 -20.800  0.00  0.00    +0.002 C 
ATOM     11  C   UNL     1      36.579 -20.237 -20.264  0.00  0.00    +0.030 C 
ATOM     12  C   UNL     1      34.226 -20.763 -20.107  0.00  0.00    +0.030 C 
ATOM     13  C   UNL     1      35.556 -21.085 -19.838  0.00  0.00    +0.140 C 
ENDBRANCH   1   8
BRANCH   4  15
ATOM     14  O   UNL     1      32.995 -13.932 -25.079  0.00  0.00    -0.245 OA
ATOM     15  C   UNL     1      33.690 -13.973 -24.064  0.00  0.00    +0.338 C 
BRANCH  15  16
ATOM     16  O   UNL     1      34.229 -12.841 -23.527  0.00  0.00    -0.477 OA
ATOM     17  H   UNL     1      33.672 -12.135 -23.264  0.00  0.00    +0.295 HD
ENDBRANCH  15  16
ENDBRANCH   4  15
TORSDOF 3
ENDMDL
MODEL 8
REMARK VINA RESULT:      -8.8      4.783      6.843
REMARK  Name = 2782689
REMARK  3 active torsions:
REMARK  status: ('A' for Active; 'I' for Inactive)
REMARK    1  A    between atoms: C_1  and  C_8
REMARK    2  A    between atoms: C_4  and  C_15
REMARK    3  A    between atoms: C_15  and  O_16
REMARK                            x       y       z     vdW  Elec       q    Type
REMARK                         _______ _______ _______ _____ _____    ______ ____
ROOT
ATOM      1  C   UNL     1      34.650 -17.515 -21.955  0.00  0.00    +0.000 C 
ATOM      2  C   UNL     1      34.078 -16.433 -21.286  0.00  0.00    +0.000 C 
ATOM      3  C   UNL     1      34.908 -17.432 -23.323  0.00  0.00    +0.000 C 
ATOM      4  C   UNL     1      34.022 -15.185 -23.354  0.00  0.00    +0.075 C 
ATOM      5  C   UNL     1      33.763 -15.269 -21.985  0.00  0.00    +0.006 C 
ATOM      6  C   UNL     1      34.594 -16.267 -24.023  0.00  0.00    +0.006 C 
ENDROOT
BRANCH   1   8
ATOM      7  F   UNL     1      35.909 -22.171 -19.157  0.00  0.00    -0.204 F 
ATOM      8  C   UNL     1      34.977 -18.724 -21.230  0.00  0.00    +0.000 C 
ATOM      9  C   UNL     1      33.961 -19.582 -20.811  0.00  0.00    +0.002 C 
ATOM     10  C   UNL     1      36.309 -19.030 -20.947  0.00  0.00    +0.002 C 
ATOM     11  C   UNL     1      34.276 -20.746 -20.110  0.00  0.00    +0.030 C 
ATOM     12  C   UNL     1      36.624 -20.194 -20.247  0.00  0.00    +0.030 C 
ATOM     13  C   UNL     1      35.608 -21.053 -19.829  0.00  0.00    +0.140 C 
ENDBRANCH   1   8
BRANCH   4  15
ATOM     14  O   UNL     1      32.996 -13.936 -25.096  0.00  0.00    -0.245 OA
ATOM     15  C   UNL     1      33.694 -13.970 -24.083  0.00  0.00    +0.338 C 
BRANCH  15  16
ATOM     16  O   UNL     1      34.229 -12.834 -23.551  0.00  0.00    -0.477 OA
ATOM     17  H   UNL     1      34.806 -12.303 -24.064  0.00  0.00    +0.295 HD
ENDBRANCH  15  16
ENDBRANCH   4  15
TORSDOF 3
ENDMDL
MODEL 9
REMARK VINA RESULT:      -8.3      7.397      8.786
REMARK  Name = 2782689
REMARK  3 active torsions:
REMARK  status: ('A' for Active; 'I' for Inactive)
REMARK    1  A    between atoms: C_1  and  C_8
REMARK    2  A    between atoms: C_4  and  C_15
REMARK    3  A    between atoms: C_15  and  O_16
REMARK                            x       y       z     vdW  Elec       q    Type
REMARK                         _______ _______ _______ _____ _____    ______ ____
ROOT
ATOM      1  C   UNL     1      35.771 -24.153 -15.322  0.00  0.00    +0.000 C 
ATOM      2  C   UNL     1      36.753 -23.210 -15.628  0.00  0.00    +0.000 C 
ATOM      3  C   UNL     1      36.138 -25.432 -14.902  0.00  0.00    +0.000 C 
ATOM      4  C   UNL     1      38.469 -24.825 -15.093  0.00  0.00    +0.075 C 
ATOM      5  C   UNL     1      38.101 -23.547 -15.514  0.00  0.00    +0.006 C 
ATOM      6  C   UNL     1      37.487 -25.768 -14.788  0.00  0.00    +0.006 C 
ENDROOT
BRANCH   1   8
ATOM      7  F   UNL     1      30.379 -22.807 -15.776  0.00  0.00    -0.204 F 
ATOM      8  C   UNL     1      34.371 -23.805 -15.440  0.00  0.00    +0.000 C 
ATOM      9  C   UNL     1      33.840 -23.465 -16.684  0.00  0.00    +0.002 C 
ATOM     10  C   UNL     1      33.554 -23.807 -14.309  0.00  0.00    +0.002 C 
ATOM     11  C   UNL     1      32.491 -23.128 -16.797  0.00  0.00    +0.030 C 
ATOM     12  C   UNL     1      32.205 -23.469 -14.422  0.00  0.00    +0.030 C 
ATOM     13  C   UNL     1      31.673 -23.130 -15.666  0.00  0.00    +0.140 C 
ENDBRANCH   1   8
BRANCH   4  15
ATOM     14  O   UNL     1      40.588 -24.868 -14.019  0.00  0.00    -0.245 OA
ATOM     15  C   UNL     1      39.875 -25.176 -14.974  0.00  0.00    +0.338 C 
BRANCH  15  16
ATOM     16  O   UNL     1      40.366 -25.891 -16.026  0.00  0.00    -0.477 OA
ATOM     17  H   UNL     1      41.291 -25.934 -16.172  0.00  0.00    +0.295 HD
ENDBRANCH  15  16
ENDBRANCH   4  15
TORSDOF 3
ENDMDL
