MODEL 1
REMARK VINA RESULT:      -6.4      0.000      0.000
REMARK  Name = 657272
REMARK  10 active torsions:
REMARK  status: ('A' for Active; 'I' for Inactive)
REMARK    1  A    between atoms: P_1  and  O_4
REMARK    2  A    between atoms: P_1  and  O_11
REMARK    3  A    between atoms: O_4  and  C_5
REMARK    4  A    between atoms: C_5  and  C_6
REMARK    5  A    between atoms: C_6  and  N_7
REMARK    6  A    between atoms: O_11  and  C_12
REMARK    7  A    between atoms: C_12  and  C_13
REMARK    8  A    between atoms: C_13  and  O_14
REMARK    9  A    between atoms: C_13  and  C_16
REMARK   10  A    between atoms: C_16  and  O_17
REMARK                            x       y       z     vdW  Elec       q    Type
REMARK                         _______ _______ _______ _____ _____    ______ ____
ROOT
ATOM      1  P   UNL     1      35.775 -24.413 -11.459  0.00  0.00    +0.506 P 
ATOM      2  O   UNL     1      36.443 -23.180 -12.030  0.00  0.00    -0.225 OA
ATOM      3  O   UNL     1      35.462 -24.497  -9.981  0.00  0.00    -0.116 OA
ENDROOT
BRANCH   1   4
ATOM      4  O   UNL     1      34.398 -24.711 -12.289  0.00  0.00    -0.274 OA
BRANCH   4   5
ATOM      5  C   UNL     1      34.013 -23.825 -13.332  0.00  0.00    +0.132 C 
BRANCH   5   6
ATOM      6  C   UNL     1      33.287 -24.601 -14.414  0.00  0.00    -0.040 C 
BRANCH   6   7
ATOM      7  N   UNL     1      31.876 -24.052 -14.566  0.00  0.00    +0.387 N 
ATOM      8  C   UNL     1      30.871 -25.181 -14.391  0.00  0.00    -0.096 C 
ATOM      9  C   UNL     1      31.631 -22.986 -13.508  0.00  0.00    -0.096 C 
ATOM     10  C   UNL     1      31.717 -23.440 -15.950  0.00  0.00    -0.096 C 
ENDBRANCH   6   7
ENDBRANCH   5   6
ENDBRANCH   4   5
ENDBRANCH   1   4
BRANCH   1  11
ATOM     11  O   UNL     1      36.659 -25.721 -11.894  0.00  0.00    -0.269 OA
BRANCH  11  12
ATOM     12  C   UNL     1      37.629 -25.591 -12.920  0.00  0.00    +0.185 C 
BRANCH  12  13
ATOM     13  C   UNL     1      37.434 -26.689 -13.958  0.00  0.00    +0.170 C 
BRANCH  13  14
ATOM     14  O   UNL     1      38.708 -27.038 -14.504  0.00  0.00    -0.379 OA
ATOM     15  H   UNL     1      38.886 -26.491 -15.286  0.00  0.00    +0.211 HD
ENDBRANCH  13  14
BRANCH  13  16
ATOM     16  C   UNL     1      36.544 -26.222 -15.103  0.00  0.00    +0.169 C 
BRANCH  16  17
ATOM     17  O   UNL     1      36.678 -27.128 -16.193  0.00  0.00    -0.379 OA
ATOM     18  H   UNL     1      37.268 -26.746 -16.860  0.00  0.00    +0.211 HD
ENDBRANCH  16  17
ENDBRANCH  13  16
ENDBRANCH  12  13
ENDBRANCH  11  12
ENDBRANCH   1  11
TORSDOF 10
ENDMDL
MODEL 2
REMARK VINA RESULT:      -6.2      1.314      1.615
REMARK  Name = 657272
REMARK  10 active torsions:
REMARK  status: ('A' for Active; 'I' for Inactive)
REMARK    1  A    between atoms: P_1  and  O_4
REMARK    2  A    between atoms: P_1  and  O_11
REMARK    3  A    between atoms: O_4  and  C_5
REMARK    4  A    between atoms: C_5  and  C_6
REMARK    5  A    between atoms: C_6  and  N_7
REMARK    6  A    between atoms: O_11  and  C_12
REMARK    7  A    between atoms: C_12  and  C_13
REMARK    8  A    between atoms: C_13  and  O_14
REMARK    9  A    between atoms: C_13  and  C_16
REMARK   10  A    between atoms: C_16  and  O_17
REMARK                            x       y       z     vdW  Elec       q    Type
REMARK                         _______ _______ _______ _____ _____    ______ ____
ROOT
ATOM      1  P   UNL     1      35.591 -24.366 -12.157  0.00  0.00    +0.506 P 
ATOM      2  O   UNL     1      36.428 -23.104 -12.138  0.00  0.00    -0.225 OA
ATOM      3  O   UNL     1      35.478 -25.227 -10.917  0.00  0.00    -0.116 OA
ENDROOT
BRANCH   1   4
ATOM      4  O   UNL     1      34.079 -24.002 -12.663  0.00  0.00    -0.274 OA
BRANCH   4   5
ATOM      5  C   UNL     1      33.704 -24.306 -14.000  0.00  0.00    +0.132 C 
BRANCH   5   6
ATOM      6  C   UNL     1      32.244 -24.715 -14.037  0.00  0.00    -0.040 C 
BRANCH   6   7
ATOM      7  N   UNL     1      31.508 -23.856 -15.054  0.00  0.00    +0.387 N 
ATOM      8  C   UNL     1      30.346 -24.646 -15.639  0.00  0.00    -0.096 C 
ATOM      9  C   UNL     1      30.978 -22.603 -14.371  0.00  0.00    -0.096 C 
ATOM     10  C   UNL     1      32.464 -23.459 -16.170  0.00  0.00    -0.096 C 
ENDBRANCH   6   7
ENDBRANCH   5   6
ENDBRANCH   4   5
ENDBRANCH   1   4
BRANCH   1  11
ATOM     11  O   UNL     1      36.094 -25.295 -13.409  0.00  0.00    -0.269 OA
BRANCH  11  12
ATOM     12  C   UNL     1      37.402 -25.841 -13.384  0.00  0.00    +0.185 C 
BRANCH  12  13
ATOM     13  C   UNL     1      38.112 -25.542 -14.699  0.00  0.00    +0.170 C 
BRANCH  13  14
ATOM     14  O   UNL     1      37.627 -26.441 -15.699  0.00  0.00    -0.379 OA
ATOM     15  H   UNL     1      37.189 -27.194 -15.271  0.00  0.00    +0.211 HD
ENDBRANCH  13  14
BRANCH  13  16
ATOM     16  C   UNL     1      39.617 -25.743 -14.578  0.00  0.00    +0.169 C 
BRANCH  16  17
ATOM     17  O   UNL     1      40.186 -25.780 -15.883  0.00  0.00    -0.379 OA
ATOM     18  H   UNL     1      41.052 -25.346 -15.871  0.00  0.00    +0.211 HD
ENDBRANCH  16  17
ENDBRANCH  13  16
ENDBRANCH  12  13
ENDBRANCH  11  12
ENDBRANCH   1  11
TORSDOF 10
ENDMDL
MODEL 3
REMARK VINA RESULT:      -6.0      2.007      3.527
REMARK  Name = 657272
REMARK  10 active torsions:
REMARK  status: ('A' for Active; 'I' for Inactive)
REMARK    1  A    between atoms: P_1  and  O_4
REMARK    2  A    between atoms: P_1  and  O_11
REMARK    3  A    between atoms: O_4  and  C_5
REMARK    4  A    between atoms: C_5  and  C_6
REMARK    5  A    between atoms: C_6  and  N_7
REMARK    6  A    between atoms: O_11  and  C_12
REMARK    7  A    between atoms: C_12  and  C_13
REMARK    8  A    between atoms: C_13  and  O_14
REMARK    9  A    between atoms: C_13  and  C_16
REMARK   10  A    between atoms: C_16  and  O_17
REMARK                            x       y       z     vdW  Elec       q    Type
REMARK                         _______ _______ _______ _____ _____    ______ ____
ROOT
ATOM      1  P   UNL     1      35.827 -24.888 -15.043  0.00  0.00    +0.506 P 
ATOM      2  O   UNL     1      35.972 -26.315 -15.530  0.00  0.00    -0.225 OA
ATOM      3  O   UNL     1      35.946 -23.733 -16.014  0.00  0.00    -0.116 OA
ENDROOT
BRANCH   1   4
ATOM      4  O   UNL     1      34.408 -24.736 -14.243  0.00  0.00    -0.274 OA
BRANCH   4   5
ATOM      5  C   UNL     1      33.526 -23.676 -14.593  0.00  0.00    +0.132 C 
BRANCH   5   6
ATOM      6  C   UNL     1      32.156 -23.939 -14.000  0.00  0.00    -0.040 C 
BRANCH   6   7
ATOM      7  N   UNL     1      31.103 -23.808 -15.090  0.00  0.00    +0.387 N 
ATOM      8  C   UNL     1      30.361 -25.128 -15.241  0.00  0.00    -0.096 C 
ATOM      9  C   UNL     1      30.117 -22.711 -14.714  0.00  0.00    -0.096 C 
ATOM     10  C   UNL     1      31.778 -23.452 -16.407  0.00  0.00    -0.096 C 
ENDBRANCH   6   7
ENDBRANCH   5   6
ENDBRANCH   4   5
ENDBRANCH   1   4
BRANCH   1  11
ATOM     11  O   UNL     1      36.876 -24.659 -13.807  0.00  0.00    -0.269 OA
BRANCH  11  12
ATOM     12  C   UNL     1      36.653 -25.328 -12.576  0.00  0.00    +0.185 C 
BRANCH  12  13
ATOM     13  C   UNL     1      36.385 -24.309 -11.475  0.00  0.00    +0.170 C 
BRANCH  13  14
ATOM     14  O   UNL     1      34.977 -24.080 -11.393  0.00  0.00    -0.379 OA
ATOM     15  H   UNL     1      34.548 -24.409 -12.199  0.00  0.00    +0.211 HD
ENDBRANCH  13  14
BRANCH  13  16
ATOM     16  C   UNL     1      37.061 -22.977 -11.772  0.00  0.00    +0.169 C 
BRANCH  16  17
ATOM     17  O   UNL     1      38.471 -23.135 -11.648  0.00  0.00    -0.379 OA
ATOM     18  H   UNL     1      38.902 -22.271 -11.730  0.00  0.00    +0.211 HD
ENDBRANCH  16  17
ENDBRANCH  13  16
ENDBRANCH  12  13
ENDBRANCH  11  12
ENDBRANCH   1  11
TORSDOF 10
ENDMDL
MODEL 4
REMARK VINA RESULT:      -5.8      6.610      8.544
REMARK  Name = 657272
REMARK  10 active torsions:
REMARK  status: ('A' for Active; 'I' for Inactive)
REMARK    1  A    between atoms: P_1  and  O_4
REMARK    2  A    between atoms: P_1  and  O_11
REMARK    3  A    between atoms: O_4  and  C_5
REMARK    4  A    between atoms: C_5  and  C_6
REMARK    5  A    between atoms: C_6  and  N_7
REMARK    6  A    between atoms: O_11  and  C_12
REMARK    7  A    between atoms: C_12  and  C_13
REMARK    8  A    between atoms: C_13  and  O_14
REMARK    9  A    between atoms: C_13  and  C_16
REMARK   10  A    between atoms: C_16  and  O_17
REMARK                            x       y       z     vdW  Elec       q    Type
REMARK                         _______ _______ _______ _____ _____    ______ ____
ROOT
ATOM      1  P   UNL     1      33.905 -22.657 -18.949  0.00  0.00    +0.506 P 
ATOM      2  O   UNL     1      33.925 -23.970 -19.702  0.00  0.00    -0.225 OA
ATOM      3  O   UNL     1      35.070 -22.265 -18.065  0.00  0.00    -0.116 OA
ENDROOT
BRANCH   1   4
ATOM      4  O   UNL     1      33.635 -21.436 -20.004  0.00  0.00    -0.274 OA
BRANCH   4   5
ATOM      5  C   UNL     1      34.681 -20.511 -20.275  0.00  0.00    +0.132 C 
BRANCH   5   6
ATOM      6  C   UNL     1      34.223 -19.522 -21.329  0.00  0.00    -0.040 C 
BRANCH   6   7
ATOM      7  N   UNL     1      35.357 -18.556 -21.637  0.00  0.00    +0.387 N 
ATOM      8  C   UNL     1      35.015 -17.180 -21.084  0.00  0.00    -0.096 C 
ATOM      9  C   UNL     1      36.640 -19.058 -20.992  0.00  0.00    -0.096 C 
ATOM     10  C   UNL     1      35.549 -18.464 -23.144  0.00  0.00    -0.096 C 
ENDBRANCH   6   7
ENDBRANCH   5   6
ENDBRANCH   4   5
ENDBRANCH   1   4
BRANCH   1  11
ATOM     11  O   UNL     1      32.523 -22.588 -18.075  0.00  0.00    -0.269 OA
BRANCH  11  12
ATOM     12  C   UNL     1      32.482 -23.197 -16.795  0.00  0.00    +0.185 C 
BRANCH  12  13
ATOM     13  C   UNL     1      31.040 -23.285 -16.309  0.00  0.00    +0.170 C 
BRANCH  13  14
ATOM     14  O   UNL     1      30.253 -22.334 -17.030  0.00  0.00    -0.379 OA
ATOM     15  H   UNL     1      30.459 -22.395 -17.976  0.00  0.00    +0.211 HD
ENDBRANCH  13  14
BRANCH  13  16
ATOM     16  C   UNL     1      30.931 -22.959 -14.826  0.00  0.00    +0.169 C 
BRANCH  16  17
ATOM     17  O   UNL     1      32.181 -22.453 -14.369  0.00  0.00    -0.379 OA
ATOM     18  H   UNL     1      32.762 -22.294 -15.128  0.00  0.00    +0.211 HD
ENDBRANCH  16  17
ENDBRANCH  13  16
ENDBRANCH  12  13
ENDBRANCH  11  12
ENDBRANCH   1  11
TORSDOF 10
ENDMDL
MODEL 5
REMARK VINA RESULT:      -5.8      1.883      2.754
REMARK  Name = 657272
REMARK  10 active torsions:
REMARK  status: ('A' for Active; 'I' for Inactive)
REMARK    1  A    between atoms: P_1  and  O_4
REMARK    2  A    between atoms: P_1  and  O_11
REMARK    3  A    between atoms: O_4  and  C_5
REMARK    4  A    between atoms: C_5  and  C_6
REMARK    5  A    between atoms: C_6  and  N_7
REMARK    6  A    between atoms: O_11  and  C_12
REMARK    7  A    between atoms: C_12  and  C_13
REMARK    8  A    between atoms: C_13  and  O_14
REMARK    9  A    between atoms: C_13  and  C_16
REMARK   10  A    between atoms: C_16  and  O_17
REMARK                            x       y       z     vdW  Elec       q    Type
REMARK                         _______ _______ _______ _____ _____    ______ ____
ROOT
ATOM      1  P   UNL     1      36.376 -24.337 -11.495  0.00  0.00    +0.506 P 
ATOM      2  O   UNL     1      37.428 -23.428 -10.894  0.00  0.00    -0.225 OA
ATOM      3  O   UNL     1      35.443 -25.122 -10.598  0.00  0.00    -0.116 OA
ENDROOT
BRANCH   1   4
ATOM      4  O   UNL     1      35.466 -23.481 -12.551  0.00  0.00    -0.274 OA
BRANCH   4   5
ATOM      5  C   UNL     1      34.431 -24.143 -13.267  0.00  0.00    +0.132 C 
BRANCH   5   6
ATOM      6  C   UNL     1      33.965 -23.265 -14.412  0.00  0.00    -0.040 C 
BRANCH   6   7
ATOM      7  N   UNL     1      34.771 -23.595 -15.659  0.00  0.00    +0.387 N 
ATOM      8  C   UNL     1      35.931 -22.618 -15.787  0.00  0.00    -0.096 C 
ATOM      9  C   UNL     1      35.312 -25.014 -15.552  0.00  0.00    -0.096 C 
ATOM     10  C   UNL     1      33.876 -23.485 -16.885  0.00  0.00    -0.096 C 
ENDBRANCH   6   7
ENDBRANCH   5   6
ENDBRANCH   4   5
ENDBRANCH   1   4
BRANCH   1  11
ATOM     11  O   UNL     1      37.119 -25.367 -12.528  0.00  0.00    -0.269 OA
BRANCH  11  12
ATOM     12  C   UNL     1      38.481 -25.153 -12.859  0.00  0.00    +0.185 C 
BRANCH  12  13
ATOM     13  C   UNL     1      38.730 -25.554 -14.308  0.00  0.00    +0.170 C 
BRANCH  13  14
ATOM     14  O   UNL     1      38.424 -26.942 -14.460  0.00  0.00    -0.379 OA
ATOM     15  H   UNL     1      37.461 -27.064 -14.452  0.00  0.00    +0.211 HD
ENDBRANCH  13  14
BRANCH  13  16
ATOM     16  C   UNL     1      40.187 -25.349 -14.700  0.00  0.00    +0.169 C 
BRANCH  16  17
ATOM     17  O   UNL     1      40.944 -26.480 -14.279  0.00  0.00    -0.379 OA
ATOM     18  H   UNL     1      40.610 -27.275 -14.722  0.00  0.00    +0.211 HD
ENDBRANCH  16  17
ENDBRANCH  13  16
ENDBRANCH  12  13
ENDBRANCH  11  12
ENDBRANCH   1  11
TORSDOF 10
ENDMDL
MODEL 6
REMARK VINA RESULT:      -5.8      6.223      7.630
REMARK  Name = 657272
REMARK  10 active torsions:
REMARK  status: ('A' for Active; 'I' for Inactive)
REMARK    1  A    between atoms: P_1  and  O_4
REMARK    2  A    between atoms: P_1  and  O_11
REMARK    3  A    between atoms: O_4  and  C_5
REMARK    4  A    between atoms: C_5  and  C_6
REMARK    5  A    between atoms: C_6  and  N_7
REMARK    6  A    between atoms: O_11  and  C_12
REMARK    7  A    between atoms: C_12  and  C_13
REMARK    8  A    between atoms: C_13  and  O_14
REMARK    9  A    between atoms: C_13  and  C_16
REMARK   10  A    between atoms: C_16  and  O_17
REMARK                            x       y       z     vdW  Elec       q    Type
REMARK                         _______ _______ _______ _____ _____    ______ ____
ROOT
ATOM      1  P   UNL     1      33.919 -22.614 -18.762  0.00  0.00    +0.506 P 
ATOM      2  O   UNL     1      32.506 -22.104 -18.578  0.00  0.00    -0.225 OA
ATOM      3  O   UNL     1      34.211 -23.715 -19.759  0.00  0.00    -0.116 OA
ENDROOT
BRANCH   1   4
ATOM      4  O   UNL     1      34.907 -21.353 -19.096  0.00  0.00    -0.274 OA
BRANCH   4   5
ATOM      5  C   UNL     1      35.084 -20.951 -20.448  0.00  0.00    +0.132 C 
BRANCH   5   6
ATOM      6  C   UNL     1      34.133 -19.814 -20.768  0.00  0.00    -0.040 C 
BRANCH   6   7
ATOM      7  N   UNL     1      34.859 -18.776 -21.611  0.00  0.00    +0.387 N 
ATOM      8  C   UNL     1      34.257 -17.402 -21.352  0.00  0.00    -0.096 C 
ATOM      9  C   UNL     1      36.335 -18.761 -21.239  0.00  0.00    -0.096 C 
ATOM     10  C   UNL     1      34.711 -19.126 -23.084  0.00  0.00    -0.096 C 
ENDBRANCH   6   7
ENDBRANCH   5   6
ENDBRANCH   4   5
ENDBRANCH   1   4
BRANCH   1  11
ATOM     11  O   UNL     1      34.501 -23.051 -17.296  0.00  0.00    -0.269 OA
BRANCH  11  12
ATOM     12  C   UNL     1      33.595 -23.475 -16.290  0.00  0.00    +0.185 C 
BRANCH  12  13
ATOM     13  C   UNL     1      34.365 -23.873 -15.036  0.00  0.00    +0.170 C 
BRANCH  13  14
ATOM     14  O   UNL     1      33.739 -23.268 -13.902  0.00  0.00    -0.379 OA
ATOM     15  H   UNL     1      33.317 -23.954 -13.360  0.00  0.00    +0.211 HD
ENDBRANCH  13  14
BRANCH  13  16
ATOM     16  C   UNL     1      35.807 -23.389 -15.090  0.00  0.00    +0.169 C 
BRANCH  16  17
ATOM     17  O   UNL     1      36.596 -24.360 -15.769  0.00  0.00    -0.379 OA
ATOM     18  H   UNL     1      37.135 -23.924 -16.446  0.00  0.00    +0.211 HD
ENDBRANCH  16  17
ENDBRANCH  13  16
ENDBRANCH  12  13
ENDBRANCH  11  12
ENDBRANCH   1  11
TORSDOF 10
ENDMDL
MODEL 7
REMARK VINA RESULT:      -5.8     11.406     12.689
REMARK  Name = 657272
REMARK  10 active torsions:
REMARK  status: ('A' for Active; 'I' for Inactive)
REMARK    1  A    between atoms: P_1  and  O_4
REMARK    2  A    between atoms: P_1  and  O_11
REMARK    3  A    between atoms: O_4  and  C_5
REMARK    4  A    between atoms: C_5  and  C_6
REMARK    5  A    between atoms: C_6  and  N_7
REMARK    6  A    between atoms: O_11  and  C_12
REMARK    7  A    between atoms: C_12  and  C_13
REMARK    8  A    between atoms: C_13  and  O_14
REMARK    9  A    between atoms: C_13  and  C_16
REMARK   10  A    between atoms: C_16  and  O_17
REMARK                            x       y       z     vdW  Elec       q    Type
REMARK                         _______ _______ _______ _____ _____    ______ ____
ROOT
ATOM      1  P   UNL     1      34.582 -16.351 -21.035  0.00  0.00    +0.506 P 
ATOM      2  O   UNL     1      35.000 -15.157 -20.204  0.00  0.00    -0.225 OA
ATOM      3  O   UNL     1      33.119 -16.718 -21.163  0.00  0.00    -0.116 OA
ENDROOT
BRANCH   1   4
ATOM      4  O   UNL     1      35.202 -16.203 -22.541  0.00  0.00    -0.274 OA
BRANCH   4   5
ATOM      5  C   UNL     1      34.475 -15.473 -23.520  0.00  0.00    +0.132 C 
BRANCH   5   6
ATOM      6  C   UNL     1      34.469 -14.001 -23.155  0.00  0.00    -0.040 C 
BRANCH   6   7
ATOM      7  N   UNL     1      33.313 -13.312 -23.865  0.00  0.00    +0.387 N 
ATOM      8  C   UNL     1      33.762 -11.943 -24.353  0.00  0.00    -0.096 C 
ATOM      9  C   UNL     1      32.873 -14.156 -25.053  0.00  0.00    -0.096 C 
ATOM     10  C   UNL     1      32.149 -13.151 -22.899  0.00  0.00    -0.096 C 
ENDBRANCH   6   7
ENDBRANCH   5   6
ENDBRANCH   4   5
ENDBRANCH   1   4
BRANCH   1  11
ATOM     11  O   UNL     1      35.417 -17.658 -20.510  0.00  0.00    -0.269 OA
BRANCH  11  12
ATOM     12  C   UNL     1      36.046 -18.505 -21.458  0.00  0.00    +0.185 C 
BRANCH  12  13
ATOM     13  C   UNL     1      35.109 -19.648 -21.830  0.00  0.00    +0.170 C 
BRANCH  13  14
ATOM     14  O   UNL     1      34.188 -19.185 -22.820  0.00  0.00    -0.379 OA
ATOM     15  H   UNL     1      34.619 -18.515 -23.374  0.00  0.00    +0.211 HD
ENDBRANCH  13  14
BRANCH  13  16
ATOM     16  C   UNL     1      34.306 -20.125 -20.628  0.00  0.00    +0.169 C 
BRANCH  16  17
ATOM     17  O   UNL     1      32.973 -19.639 -20.739  0.00  0.00    -0.379 OA
ATOM     18  H   UNL     1      32.969 -18.676 -20.627  0.00  0.00    +0.211 HD
ENDBRANCH  16  17
ENDBRANCH  13  16
ENDBRANCH  12  13
ENDBRANCH  11  12
ENDBRANCH   1  11
TORSDOF 10
ENDMDL
MODEL 8
REMARK VINA RESULT:      -5.7      4.078      6.857
REMARK  Name = 657272
REMARK  10 active torsions:
REMARK  status: ('A' for Active; 'I' for Inactive)
REMARK    1  A    between atoms: P_1  and  O_4
REMARK    2  A    between atoms: P_1  and  O_11
REMARK    3  A    between atoms: O_4  and  C_5
REMARK    4  A    between atoms: C_5  and  C_6
REMARK    5  A    between atoms: C_6  and  N_7
REMARK    6  A    between atoms: O_11  and  C_12
REMARK    7  A    between atoms: C_12  and  C_13
REMARK    8  A    between atoms: C_13  and  O_14
REMARK    9  A    between atoms: C_13  and  C_16
REMARK   10  A    between atoms: C_16  and  O_17
REMARK                            x       y       z     vdW  Elec       q    Type
REMARK                         _______ _______ _______ _____ _____    ______ ____
ROOT
ATOM      1  P   UNL     1      32.132 -23.860 -14.084  0.00  0.00    +0.506 P 
ATOM      2  O   UNL     1      31.871 -25.344 -14.230  0.00  0.00    -0.225 OA
ATOM      3  O   UNL     1      31.857 -23.161 -12.770  0.00  0.00    -0.116 OA
ENDROOT
BRANCH   1   4
ATOM      4  O   UNL     1      33.677 -23.541 -14.516  0.00  0.00    -0.274 OA
BRANCH   4   5
ATOM      5  C   UNL     1      34.594 -24.620 -14.655  0.00  0.00    +0.132 C 
BRANCH   5   6
ATOM      6  C   UNL     1      35.730 -24.451 -13.666  0.00  0.00    -0.040 C 
BRANCH   6   7
ATOM      7  N   UNL     1      36.877 -25.370 -14.057  0.00  0.00    +0.387 N 
ATOM      8  C   UNL     1      38.046 -24.537 -14.561  0.00  0.00    -0.096 C 
ATOM      9  C   UNL     1      37.316 -26.178 -12.844  0.00  0.00    -0.096 C 
ATOM     10  C   UNL     1      36.416 -26.316 -15.156  0.00  0.00    -0.096 C 
ENDBRANCH   6   7
ENDBRANCH   5   6
ENDBRANCH   4   5
ENDBRANCH   1   4
BRANCH   1  11
ATOM     11  O   UNL     1      31.335 -23.080 -15.283  0.00  0.00    -0.269 OA
BRANCH  11  12
ATOM     12  C   UNL     1      29.956 -22.789 -15.122  0.00  0.00    +0.185 C 
BRANCH  12  13
ATOM     13  C   UNL     1      29.238 -22.937 -16.458  0.00  0.00    +0.170 C 
BRANCH  13  14
ATOM     14  O   UNL     1      28.300 -21.867 -16.597  0.00  0.00    -0.379 OA
ATOM     15  H   UNL     1      28.727 -21.119 -17.046  0.00  0.00    +0.211 HD
ENDBRANCH  13  14
BRANCH  13  16
ATOM     16  C   UNL     1      28.468 -24.248 -16.535  0.00  0.00    +0.169 C 
BRANCH  16  17
ATOM     17  O   UNL     1      27.584 -24.202 -17.650  0.00  0.00    -0.379 OA
ATOM     18  H   UNL     1      26.882 -24.860 -17.534  0.00  0.00    +0.211 HD
ENDBRANCH  16  17
ENDBRANCH  13  16
ENDBRANCH  12  13
ENDBRANCH  11  12
ENDBRANCH   1  11
TORSDOF 10
ENDMDL
MODEL 9
REMARK VINA RESULT:      -5.7      2.060      2.513
REMARK  Name = 657272
REMARK  10 active torsions:
REMARK  status: ('A' for Active; 'I' for Inactive)
REMARK    1  A    between atoms: P_1  and  O_4
REMARK    2  A    between atoms: P_1  and  O_11
REMARK    3  A    between atoms: O_4  and  C_5
REMARK    4  A    between atoms: C_5  and  C_6
REMARK    5  A    between atoms: C_6  and  N_7
REMARK    6  A    between atoms: O_11  and  C_12
REMARK    7  A    between atoms: C_12  and  C_13
REMARK    8  A    between atoms: C_13  and  O_14
REMARK    9  A    between atoms: C_13  and  C_16
REMARK   10  A    between atoms: C_16  and  O_17
REMARK                            x       y       z     vdW  Elec       q    Type
REMARK                         _______ _______ _______ _____ _____    ______ ____
ROOT
ATOM      1  P   UNL     1      35.734 -24.393 -14.113  0.00  0.00    +0.506 P 
ATOM      2  O   UNL     1      36.058 -22.923 -14.282  0.00  0.00    -0.225 OA
ATOM      3  O   UNL     1      35.948 -25.073 -12.778  0.00  0.00    -0.116 OA
ENDROOT
BRANCH   1   4
ATOM      4  O   UNL     1      34.188 -24.659 -14.578  0.00  0.00    -0.274 OA
BRANCH   4   5
ATOM      5  C   UNL     1      33.308 -23.552 -14.722  0.00  0.00    +0.132 C 
BRANCH   5   6
ATOM      6  C   UNL     1      31.934 -23.925 -14.200  0.00  0.00    -0.040 C 
BRANCH   6   7
ATOM      7  N   UNL     1      30.906 -23.716 -15.302  0.00  0.00    +0.387 N 
ATOM      8  C   UNL     1      30.203 -25.034 -15.596  0.00  0.00    -0.096 C 
ATOM      9  C   UNL     1      29.881 -22.685 -14.851  0.00  0.00    -0.096 C 
ATOM     10  C   UNL     1      31.604 -23.221 -16.560  0.00  0.00    -0.096 C 
ENDBRANCH   6   7
ENDBRANCH   5   6
ENDBRANCH   4   5
ENDBRANCH   1   4
BRANCH   1  11
ATOM     11  O   UNL     1      36.529 -25.230 -15.274  0.00  0.00    -0.269 OA
BRANCH  11  12
ATOM     12  C   UNL     1      37.688 -25.968 -14.925  0.00  0.00    +0.185 C 
BRANCH  12  13
ATOM     13  C   UNL     1      38.839 -25.013 -14.628  0.00  0.00    +0.170 C 
BRANCH  13  14
ATOM     14  O   UNL     1      38.837 -23.972 -15.608  0.00  0.00    -0.379 OA
ATOM     15  H   UNL     1      39.712 -23.920 -16.026  0.00  0.00    +0.211 HD
ENDBRANCH  13  14
BRANCH  13  16
ATOM     16  C   UNL     1      40.184 -25.723 -14.700  0.00  0.00    +0.169 C 
BRANCH  16  17
ATOM     17  O   UNL     1      40.498 -25.985 -16.064  0.00  0.00    -0.379 OA
ATOM     18  H   UNL     1      39.679 -26.119 -16.564  0.00  0.00    +0.211 HD
ENDBRANCH  16  17
ENDBRANCH  13  16
ENDBRANCH  12  13
ENDBRANCH  11  12
ENDBRANCH   1  11
TORSDOF 10
ENDMDL
