MODEL 1
REMARK VINA RESULT:      -9.5      0.000      0.000
REMARK  Name = 24752832
REMARK  4 active torsions:
REMARK  status: ('A' for Active; 'I' for Inactive)
REMARK    1  A    between atoms: C_1  and  N_8
REMARK    2  A    between atoms: C_2  and  N_23
REMARK    3  A    between atoms: C_9  and  C_14
REMARK    4  A    between atoms: C_24  and  C_28
REMARK                            x       y       z     vdW  Elec       q    Type
REMARK                         _______ _______ _______ _____ _____    ______ ____
ROOT
ATOM      1  C   UNL     1      34.280 -24.146 -14.361  0.00  0.00    +0.090 C 
ATOM      2  C   UNL     1      35.182 -24.582 -15.528  0.00  0.00    +0.090 C 
ATOM      3  C   UNL     1      34.950 -23.093 -13.473  0.00  0.00    +0.021 C 
ATOM      4  C   UNL     1      36.556 -25.036 -15.020  0.00  0.00    +0.021 C 
ATOM      5  C   UNL     1      36.307 -23.575 -12.967  0.00  0.00    +0.002 C 
ATOM      6  C   UNL     1      37.222 -24.004 -14.109  0.00  0.00    +0.002 C 
ENDROOT
BRANCH   1   8
ATOM      7  O   UNL     1      31.741 -25.409 -13.907  0.00  0.00    -0.267 OA
ATOM      8  N   UNL     1      32.992 -23.683 -14.821  0.00  0.00    -0.298 N 
ATOM      9  C   UNL     1      31.815 -24.365 -14.549  0.00  0.00    +0.282 C 
ATOM     10  H   UNL     1      32.947 -22.852 -15.347  0.00  0.00    +0.150 HD
BRANCH   9  14
ATOM     11  S   UNL     1      30.274 -23.843 -16.810  0.00  0.00    -0.074 S 
ATOM     12  N   UNL     1      26.891 -21.615 -17.103  0.00  0.00    +0.387 N 
ATOM     13  N   UNL     1      29.663 -23.177 -14.377  0.00  0.00    -0.399 NA
ATOM     14  C   UNL     1      30.576 -23.772 -15.116  0.00  0.00    +0.210 C 
ATOM     15  C   UNL     1      28.650 -22.747 -15.204  0.00  0.00    +0.093 C 
ATOM     16  C   UNL     1      28.815 -23.014 -16.547  0.00  0.00    +0.082 C 
ATOM     17  C   UNL     1      27.460 -22.012 -14.699  0.00  0.00    +0.032 C 
ATOM     18  C   UNL     1      27.826 -22.652 -17.604  0.00  0.00    -0.059 C 
ATOM     19  C   UNL     1      26.348 -21.963 -15.771  0.00  0.00    -0.070 C 
ATOM     20  C   UNL     1      25.810 -21.402 -18.064  0.00  0.00    -0.101 C 
ATOM     21  H   UNL     1      27.416 -20.746 -16.999  0.00  0.00    -0.080 HD
ENDBRANCH   9  14
ENDBRANCH   1   8
BRANCH   2  23
ATOM     22  O   UNL     1      33.476 -24.123 -17.792  0.00  0.00    -0.269 OA
ATOM     23  N   UNL     1      35.324 -23.537 -16.520  0.00  0.00    -0.300 N 
ATOM     24  C   UNL     1      34.445 -23.398 -17.581  0.00  0.00    +0.259 C 
ATOM     25  H   UNL     1      36.073 -22.902 -16.438  0.00  0.00    +0.150 HD
BRANCH  24  28
ATOM     26 CL   UNL     1      34.924 -17.623 -22.688  0.00  0.00    -0.082 Cl
ATOM     27  N   UNL     1      36.002 -21.802 -18.750  0.00  0.00    -0.309 N 
ATOM     28  C   UNL     1      34.743 -22.292 -18.526  0.00  0.00    +0.102 C 
ATOM     29  C   UNL     1      33.867 -21.581 -19.314  0.00  0.00    +0.020 C 
ATOM     30  C   UNL     1      35.957 -20.783 -19.674  0.00  0.00    +0.048 C 
ATOM     31  C   UNL     1      34.621 -20.623 -20.046  0.00  0.00    +0.016 C 
ATOM     32  C   UNL     1      36.988 -19.998 -20.202  0.00  0.00    +0.015 C 
ATOM     33  C   UNL     1      34.295 -19.631 -20.992  0.00  0.00    +0.013 C 
ATOM     34  C   UNL     1      35.315 -18.838 -21.530  0.00  0.00    +0.058 C 
ATOM     35  C   UNL     1      36.640 -19.020 -21.140  0.00  0.00    +0.013 C 
ATOM     36  H   UNL     1      36.821 -22.133 -18.314  0.00  0.00    +0.152 HD
ENDBRANCH  24  28
ENDBRANCH   2  23
TORSDOF 4
ENDMDL
MODEL 2
REMARK VINA RESULT:      -9.2      1.060      1.637
REMARK  Name = 24752832
REMARK  4 active torsions:
REMARK  status: ('A' for Active; 'I' for Inactive)
REMARK    1  A    between atoms: C_1  and  N_8
REMARK    2  A    between atoms: C_2  and  N_23
REMARK    3  A    between atoms: C_9  and  C_14
REMARK    4  A    between atoms: C_24  and  C_28
REMARK                            x       y       z     vdW  Elec       q    Type
REMARK                         _______ _______ _______ _____ _____    ______ ____
ROOT
ATOM      1  C   UNL     1      34.725 -24.148 -14.162  0.00  0.00    +0.090 C 
ATOM      2  C   UNL     1      35.598 -24.593 -15.347  0.00  0.00    +0.090 C 
ATOM      3  C   UNL     1      35.384 -23.033 -13.344  0.00  0.00    +0.021 C 
ATOM      4  C   UNL     1      37.010 -24.969 -14.878  0.00  0.00    +0.021 C 
ATOM      5  C   UNL     1      36.779 -23.436 -12.875  0.00  0.00    +0.002 C 
ATOM      6  C   UNL     1      37.666 -23.874 -14.037  0.00  0.00    +0.002 C 
ENDROOT
BRANCH   1   8
ATOM      7  O   UNL     1      32.290 -25.608 -13.737  0.00  0.00    -0.267 OA
ATOM      8  N   UNL     1      33.401 -23.758 -14.585  0.00  0.00    -0.298 N 
ATOM      9  C   UNL     1      32.280 -24.534 -14.332  0.00  0.00    +0.282 C 
ATOM     10  H   UNL     1      33.290 -22.910 -15.073  0.00  0.00    +0.150 HD
BRANCH   9  14
ATOM     11  S   UNL     1      30.268 -22.616 -14.148  0.00  0.00    -0.074 S 
ATOM     12  N   UNL     1      26.745 -22.449 -16.161  0.00  0.00    +0.387 N 
ATOM     13  N   UNL     1      30.353 -24.558 -15.868  0.00  0.00    -0.399 NA
ATOM     14  C   UNL     1      30.994 -24.007 -14.858  0.00  0.00    +0.210 C 
ATOM     15  C   UNL     1      29.208 -23.830 -16.103  0.00  0.00    +0.093 C 
ATOM     16  C   UNL     1      28.998 -22.754 -15.268  0.00  0.00    +0.082 C 
ATOM     17  C   UNL     1      28.235 -24.190 -17.168  0.00  0.00    +0.032 C 
ATOM     18  C   UNL     1      27.833 -21.827 -15.368  0.00  0.00    -0.059 C 
ATOM     19  C   UNL     1      27.250 -23.027 -17.427  0.00  0.00    -0.070 C 
ATOM     20  C   UNL     1      25.688 -21.474 -16.423  0.00  0.00    -0.101 C 
ATOM     21  H   UNL     1      26.358 -23.216 -15.612  0.00  0.00    -0.080 HD
ENDBRANCH   9  14
ENDBRANCH   1   8
BRANCH   2  23
ATOM     22  O   UNL     1      33.617 -24.094 -17.364  0.00  0.00    -0.269 OA
ATOM     23  N   UNL     1      35.656 -23.585 -16.384  0.00  0.00    -0.300 N 
ATOM     24  C   UNL     1      34.644 -23.422 -17.316  0.00  0.00    +0.259 C 
ATOM     25  H   UNL     1      36.442 -22.993 -16.429  0.00  0.00    +0.150 HD
BRANCH  24  28
ATOM     26 CL   UNL     1      36.854 -18.013 -22.367  0.00  0.00    -0.082 Cl
ATOM     27  N   UNL     1      33.857 -21.766 -19.040  0.00  0.00    -0.309 N 
ATOM     28  C   UNL     1      34.866 -22.361 -18.330  0.00  0.00    +0.102 C 
ATOM     29  C   UNL     1      36.055 -21.801 -18.736  0.00  0.00    +0.020 C 
ATOM     30  C   UNL     1      34.374 -20.825 -19.902  0.00  0.00    +0.048 C 
ATOM     31  C   UNL     1      35.759 -20.827 -19.730  0.00  0.00    +0.016 C 
ATOM     32  C   UNL     1      33.727 -19.982 -20.812  0.00  0.00    +0.015 C 
ATOM     33  C   UNL     1      36.540 -19.945 -20.504  0.00  0.00    +0.013 C 
ATOM     34  C   UNL     1      35.907 -19.095 -21.418  0.00  0.00    +0.058 C 
ATOM     35  C   UNL     1      34.522 -19.114 -21.568  0.00  0.00    +0.013 C 
ATOM     36  H   UNL     1      32.900 -21.979 -18.946  0.00  0.00    +0.152 HD
ENDBRANCH  24  28
ENDBRANCH   2  23
TORSDOF 4
ENDMDL
