MODEL 1
REMARK VINA RESULT:      -4.3      0.000      0.000
REMARK  Name = 102333
REMARK  5 active torsions:
REMARK  status: ('A' for Active; 'I' for Inactive)
REMARK    1  A    between atoms: C_8  and  C_30
REMARK    2  A    between atoms: C_13  and  O_27
REMARK    3  A    between atoms: C_30  and  C_31
REMARK    4  A    between atoms: C_31  and  O_32
REMARK    5  A    between atoms: O_32  and  C_34
REMARK                            x       y       z     vdW  Elec       q    Type
REMARK                         _______ _______ _______ _____ _____    ______ ____
ROOT
ATOM      1  F   UNL     1      32.320 -22.575 -18.220  0.00  0.00    -0.233 F 
ATOM      2  O   UNL     1      34.128 -15.782 -20.668  0.00  0.00    -0.330 OA
ATOM      3  O   UNL     1      31.809 -15.883 -21.035  0.00  0.00    -0.334 OA
ATOM      4  O   UNL     1      36.290 -22.349 -15.355  0.00  0.00    -0.291 OA
ATOM      5  C   UNL     1      34.590 -17.963 -21.746  0.00  0.00    +0.034 C 
ATOM      6  C   UNL     1      33.613 -18.645 -20.762  0.00  0.00    +0.005 C 
ATOM      7  C   UNL     1      33.945 -20.119 -20.497  0.00  0.00    +0.006 C 
ATOM      8  C   UNL     1      33.927 -16.565 -21.842  0.00  0.00    +0.174 C 
ATOM      9  C   UNL     1      35.386 -20.196 -19.867  0.00  0.00    +0.031 C 
ATOM     10  C   UNL     1      32.232 -18.277 -21.310  0.00  0.00    +0.033 C 
ATOM     11  C   UNL     1      32.425 -16.853 -21.878  0.00  0.00    +0.149 C 
ATOM     12  C   UNL     1      35.992 -18.000 -21.107  0.00  0.00    +0.032 C 
ATOM     13  C   UNL     1      36.443 -19.426 -20.712  0.00  0.00    +0.111 C 
ATOM     14  C   UNL     1      35.761 -21.673 -19.459  0.00  0.00    +0.020 C 
ATOM     15  C   UNL     1      32.889 -20.762 -19.578  0.00  0.00    +0.040 C 
ATOM     16  C   UNL     1      34.608 -18.624 -23.152  0.00  0.00    +0.003 C 
ATOM     17  C   UNL     1      34.647 -22.129 -18.504  0.00  0.00    -0.010 C 
ATOM     18  C   UNL     1      33.268 -22.167 -19.115  0.00  0.00    +0.179 C 
ATOM     19  C   UNL     1      32.857 -15.224 -20.321  0.00  0.00    +0.188 C 
ATOM     20  C   UNL     1      37.145 -21.781 -18.758  0.00  0.00    +0.012 C 
ATOM     21  C   UNL     1      35.834 -22.642 -20.667  0.00  0.00    +0.004 C 
ATOM     22  C   UNL     1      37.140 -21.282 -17.326  0.00  0.00    +0.069 C 
ATOM     23  C   UNL     1      34.822 -22.356 -17.192  0.00  0.00    +0.032 C 
ATOM     24  C   UNL     1      32.631 -15.404 -18.825  0.00  0.00    +0.061 C 
ATOM     25  C   UNL     1      32.840 -13.743 -20.690  0.00  0.00    +0.061 C 
ATOM     26  C   UNL     1      36.115 -22.051 -16.533  0.00  0.00    +0.173 C 
ENDROOT
BRANCH  13  27
ATOM     27  O   UNL     1      36.800 -20.155 -21.876  0.00  0.00    -0.384 OA
ATOM     28  H   UNL     1      36.327 -19.794 -22.643  0.00  0.00    +0.210 HD
ENDBRANCH  13  27
BRANCH   8  30
ATOM     29  O   UNL     1      35.629 -15.542 -23.161  0.00  0.00    -0.290 OA
ATOM     30  C   UNL     1      34.427 -15.736 -22.989  0.00  0.00    +0.221 C 
BRANCH  30  31
ATOM     31  C   UNL     1      33.372 -15.160 -23.909  0.00  0.00    +0.275 C 
BRANCH  31  32
ATOM     32  O   UNL     1      33.956 -14.692 -25.106  0.00  0.00    -0.440 OA
BRANCH  32  34
ATOM     33  O   UNL     1      32.740 -15.915 -26.643  0.00  0.00    -0.250 OA
ATOM     34  C   UNL     1      33.214 -14.858 -26.248  0.00  0.00    +0.318 C 
ATOM     35  C   UNL     1      33.055 -13.550 -26.960  0.00  0.00    +0.121 C 
ENDBRANCH  32  34
ENDBRANCH  31  32
ENDBRANCH  30  31
ENDBRANCH   8  30
TORSDOF 5
ENDMDL
MODEL 2
REMARK VINA RESULT:      -2.6      5.655      9.475
REMARK  Name = 102333
REMARK  5 active torsions:
REMARK  status: ('A' for Active; 'I' for Inactive)
REMARK    1  A    between atoms: C_8  and  C_30
REMARK    2  A    between atoms: C_13  and  O_27
REMARK    3  A    between atoms: C_30  and  C_31
REMARK    4  A    between atoms: C_31  and  O_32
REMARK    5  A    between atoms: O_32  and  C_34
REMARK                            x       y       z     vdW  Elec       q    Type
REMARK                         _______ _______ _______ _____ _____    ______ ____
ROOT
ATOM      1  F   UNL     1      30.446 -23.809 -11.573  0.00  0.00    -0.233 F 
ATOM      2  O   UNL     1      36.815 -25.067 -15.214  0.00  0.00    -0.330 OA
ATOM      3  O   UNL     1      37.539 -24.439 -13.068  0.00  0.00    -0.334 OA
ATOM      4  O   UNL     1      28.296 -26.867 -14.744  0.00  0.00    -0.291 OA
ATOM      5  C   UNL     1      35.269 -23.149 -15.465  0.00  0.00    +0.034 C 
ATOM      6  C   UNL     1      34.540 -23.580 -14.172  0.00  0.00    +0.005 C 
ATOM      7  C   UNL     1      33.066 -23.155 -14.133  0.00  0.00    +0.006 C 
ATOM      8  C   UNL     1      36.699 -23.649 -15.135  0.00  0.00    +0.174 C 
ATOM      9  C   UNL     1      32.325 -23.832 -15.346  0.00  0.00    +0.031 C 
ATOM     10  C   UNL     1      35.481 -23.119 -13.056  0.00  0.00    +0.033 C 
ATOM     11  C   UNL     1      36.891 -23.314 -13.654  0.00  0.00    +0.149 C 
ATOM     12  C   UNL     1      34.569 -23.848 -16.647  0.00  0.00    +0.032 C 
ATOM     13  C   UNL     1      33.048 -23.573 -16.701  0.00  0.00    +0.111 C 
ATOM     14  C   UNL     1      30.776 -23.535 -15.315  0.00  0.00    +0.020 C 
ATOM     15  C   UNL     1      32.421 -23.538 -12.788  0.00  0.00    +0.040 C 
ATOM     16  C   UNL     1      35.296 -21.609 -15.672  0.00  0.00    +0.003 C 
ATOM     17  C   UNL     1      30.292 -24.031 -13.944  0.00  0.00    -0.010 C 
ATOM     18  C   UNL     1      30.909 -23.325 -12.762  0.00  0.00    +0.179 C 
ATOM     19  C   UNL     1      37.506 -25.491 -14.034  0.00  0.00    +0.188 C 
ATOM     20  C   UNL     1      29.993 -24.252 -16.451  0.00  0.00    +0.012 C 
ATOM     21  C   UNL     1      30.437 -22.030 -15.469  0.00  0.00    +0.004 C 
ATOM     22  C   UNL     1      29.813 -25.740 -16.218  0.00  0.00    +0.069 C 
ATOM     23  C   UNL     1      29.488 -25.092 -13.764  0.00  0.00    +0.032 C 
ATOM     24  C   UNL     1      36.777 -26.691 -13.440  0.00  0.00    +0.061 C 
ATOM     25  C   UNL     1      38.940 -25.864 -14.398  0.00  0.00    +0.061 C 
ATOM     26  C   UNL     1      29.104 -25.957 -14.906  0.00  0.00    +0.173 C 
ENDROOT
BRANCH  13  27
ATOM     27  O   UNL     1      32.817 -22.250 -17.163  0.00  0.00    -0.384 OA
ATOM     28  H   UNL     1      33.291 -22.110 -17.997  0.00  0.00    +0.210 HD
ENDBRANCH  13  27
BRANCH   8  30
ATOM     29  O   UNL     1      38.881 -23.592 -16.093  0.00  0.00    -0.290 OA
ATOM     30  C   UNL     1      37.759 -23.092 -16.039  0.00  0.00    +0.221 C 
BRANCH  30  31
ATOM     31  C   UNL     1      37.366 -21.889 -16.871  0.00  0.00    +0.275 C 
BRANCH  31  32
ATOM     32  O   UNL     1      37.184 -22.255 -18.222  0.00  0.00    -0.440 OA
BRANCH  32  34
ATOM     33  O   UNL     1      36.820 -20.188 -19.187  0.00  0.00    -0.250 OA
ATOM     34  C   UNL     1      36.507 -21.357 -19.008  0.00  0.00    +0.318 C 
ATOM     35  C   UNL     1      35.311 -22.010 -19.630  0.00  0.00    +0.121 C 
ENDBRANCH  32  34
ENDBRANCH  31  32
ENDBRANCH  30  31
ENDBRANCH   8  30
TORSDOF 5
ENDMDL
MODEL 3
REMARK VINA RESULT:      -1.8      9.025     14.709
REMARK  Name = 102333
REMARK  5 active torsions:
REMARK  status: ('A' for Active; 'I' for Inactive)
REMARK    1  A    between atoms: C_8  and  C_30
REMARK    2  A    between atoms: C_13  and  O_27
REMARK    3  A    between atoms: C_30  and  C_31
REMARK    4  A    between atoms: C_31  and  O_32
REMARK    5  A    between atoms: O_32  and  C_34
REMARK                            x       y       z     vdW  Elec       q    Type
REMARK                         _______ _______ _______ _____ _____    ______ ____
ROOT
ATOM      1  F   UNL     1      30.088  -2.038 -22.161  0.00  0.00    -0.233 F 
ATOM      2  O   UNL     1      31.985  -8.985 -24.040  0.00  0.00    -0.330 OA
ATOM      3  O   UNL     1      32.097  -9.016 -21.693  0.00  0.00    -0.334 OA
ATOM      4  O   UNL     1      27.680  -1.786 -26.422  0.00  0.00    -0.291 OA
ATOM      5  C   UNL     1      33.335  -6.922 -24.272  0.00  0.00    +0.034 C 
ATOM      6  C   UNL     1      32.325  -6.173 -23.372  0.00  0.00    +0.005 C 
ATOM      7  C   UNL     1      32.258  -4.667 -23.655  0.00  0.00    +0.006 C 
ATOM      8  C   UNL     1      33.205  -8.347 -23.675  0.00  0.00    +0.174 C 
ATOM      9  C   UNL     1      31.805  -4.464 -25.150  0.00  0.00    +0.031 C 
ATOM     10  C   UNL     1      32.672  -6.654 -21.961  0.00  0.00    +0.033 C 
ATOM     11  C   UNL     1      33.103  -8.123 -22.164  0.00  0.00    +0.149 C 
ATOM     12  C   UNL     1      32.864  -6.759 -25.730  0.00  0.00    +0.032 C 
ATOM     13  C   UNL     1      32.677  -5.282 -26.148  0.00  0.00    +0.111 C 
ATOM     14  C   UNL     1      31.602  -2.937 -25.491  0.00  0.00    +0.020 C 
ATOM     15  C   UNL     1      31.300  -3.967 -22.673  0.00  0.00    +0.040 C 
ATOM     16  C   UNL     1      34.796  -6.422 -24.105  0.00  0.00    +0.003 C 
ATOM     17  C   UNL     1      30.583  -2.421 -24.464  0.00  0.00    -0.010 C 
ATOM     18  C   UNL     1      31.035  -2.505 -23.027  0.00  0.00    +0.179 C 
ATOM     19  C   UNL     1      31.440  -9.550 -22.844  0.00  0.00    +0.188 C 
ATOM     20  C   UNL     1      31.077  -2.698 -26.934  0.00  0.00    +0.012 C 
ATOM     21  C   UNL     1      32.908  -2.107 -25.384  0.00  0.00    +0.004 C 
ATOM     22  C   UNL     1      29.609  -3.034 -27.109  0.00  0.00    +0.069 C 
ATOM     23  C   UNL     1      29.330  -2.042 -24.767  0.00  0.00    +0.032 C 
ATOM     24  C   UNL     1      29.955  -9.213 -22.771  0.00  0.00    +0.061 C 
ATOM     25  C   UNL     1      31.644 -11.063 -22.862  0.00  0.00    +0.061 C 
ATOM     26  C   UNL     1      28.792  -2.221 -26.137  0.00  0.00    +0.173 C 
ENDROOT
BRANCH  13  27
ATOM     27  O   UNL     1      33.946  -4.674 -26.340  0.00  0.00    -0.384 OA
ATOM     28  H   UNL     1      34.635  -5.356 -26.343  0.00  0.00    +0.210 HD
ENDBRANCH  13  27
BRANCH   8  30
ATOM     29  O   UNL     1      35.434  -9.189 -23.610  0.00  0.00    -0.290 OA
ATOM     30  C   UNL     1      34.306  -9.279 -24.090  0.00  0.00    +0.221 C 
BRANCH  30  31
ATOM     31  C   UNL     1      33.945 -10.323 -25.125  0.00  0.00    +0.275 C 
BRANCH  31  32
ATOM     32  O   UNL     1      34.355 -11.607 -24.702  0.00  0.00    -0.440 OA
BRANCH  32  34
ATOM     33  O   UNL     1      33.537 -12.705 -26.562  0.00  0.00    -0.250 OA
ATOM     34  C   UNL     1      33.800 -12.670 -25.367  0.00  0.00    +0.318 C 
ATOM     35  C   UNL     1      33.555 -13.805 -24.421  0.00  0.00    +0.121 C 
ENDBRANCH  32  34
ENDBRANCH  31  32
ENDBRANCH  30  31
ENDBRANCH   8  30
TORSDOF 5
ENDMDL
MODEL 4
REMARK VINA RESULT:      -1.6      7.772      9.780
REMARK  Name = 102333
REMARK  5 active torsions:
REMARK  status: ('A' for Active; 'I' for Inactive)
REMARK    1  A    between atoms: C_8  and  C_30
REMARK    2  A    between atoms: C_13  and  O_27
REMARK    3  A    between atoms: C_30  and  C_31
REMARK    4  A    between atoms: C_31  and  O_32
REMARK    5  A    between atoms: O_32  and  C_34
REMARK                            x       y       z     vdW  Elec       q    Type
REMARK                         _______ _______ _______ _____ _____    ______ ____
ROOT
ATOM      1  F   UNL     1      37.857 -22.767 -16.875  0.00  0.00    -0.233 F 
ATOM      2  O   UNL     1      30.977 -25.064 -15.201  0.00  0.00    -0.330 OA
ATOM      3  O   UNL     1      30.631 -23.615 -17.018  0.00  0.00    -0.334 OA
ATOM      4  O   UNL     1      39.491 -26.914 -14.838  0.00  0.00    -0.291 OA
ATOM      5  C   UNL     1      32.398 -23.468 -13.949  0.00  0.00    +0.034 C 
ATOM      6  C   UNL     1      33.358 -23.390 -15.158  0.00  0.00    +0.005 C 
ATOM      7  C   UNL     1      34.803 -23.051 -14.767  0.00  0.00    +0.006 C 
ATOM      8  C   UNL     1      31.065 -23.735 -14.695  0.00  0.00    +0.174 C 
ATOM      9  C   UNL     1      35.335 -24.180 -13.808  0.00  0.00    +0.031 C 
ATOM     10  C   UNL     1      32.620 -22.488 -16.149  0.00  0.00    +0.033 C 
ATOM     11  C   UNL     1      31.131 -22.838 -15.933  0.00  0.00    +0.149 C 
ATOM     12  C   UNL     1      32.896 -24.604 -13.034  0.00  0.00    +0.032 C 
ATOM     13  C   UNL     1      34.374 -24.441 -12.610  0.00  0.00    +0.111 C 
ATOM     14  C   UNL     1      36.855 -23.965 -13.447  0.00  0.00    +0.020 C 
ATOM     15  C   UNL     1      35.689 -22.905 -16.019  0.00  0.00    +0.040 C 
ATOM     16  C   UNL     1      32.291 -22.133 -13.162  0.00  0.00    +0.003 C 
ATOM     17  C   UNL     1      37.590 -23.906 -14.795  0.00  0.00    -0.010 C 
ATOM     18  C   UNL     1      37.174 -22.766 -15.693  0.00  0.00    +0.179 C 
ATOM     19  C   UNL     1      30.521 -24.961 -16.553  0.00  0.00    +0.188 C 
ATOM     20  C   UNL     1      37.442 -25.103 -12.567  0.00  0.00    +0.012 C 
ATOM     21  C   UNL     1      37.118 -22.657 -12.658  0.00  0.00    +0.004 C 
ATOM     22  C   UNL     1      37.703 -26.388 -13.330  0.00  0.00    +0.069 C 
ATOM     23  C   UNL     1      38.443 -24.846 -15.233  0.00  0.00    +0.032 C 
ATOM     24  C   UNL     1      31.378 -25.864 -17.433  0.00  0.00    +0.061 C 
ATOM     25  C   UNL     1      29.056 -25.382 -16.623  0.00  0.00    +0.061 C 
ATOM     26  C   UNL     1      38.641 -26.105 -14.475  0.00  0.00    +0.173 C 
ENDROOT
BRANCH  13  27
ATOM     27  O   UNL     1      34.481 -23.416 -11.633  0.00  0.00    -0.384 OA
ATOM     28  H   UNL     1      35.040 -23.722 -10.902  0.00  0.00    +0.210 HD
ENDBRANCH  13  27
BRANCH   8  30
ATOM     29  O   UNL     1      29.645 -24.207 -12.839  0.00  0.00    -0.290 OA
ATOM     30  C   UNL     1      29.845 -23.529 -13.845  0.00  0.00    +0.221 C 
BRANCH  30  31
ATOM     31  C   UNL     1      28.887 -22.448 -14.299  0.00  0.00    +0.275 C 
BRANCH  31  32
ATOM     32  O   UNL     1      27.865 -22.995 -15.105  0.00  0.00    -0.440 OA
BRANCH  32  34
ATOM     33  O   UNL     1      27.976 -21.764 -17.056  0.00  0.00    -0.250 OA
ATOM     34  C   UNL     1      27.360 -22.175 -16.082  0.00  0.00    +0.318 C 
ATOM     35  C   UNL     1      25.928 -21.844 -15.795  0.00  0.00    +0.121 C 
ENDBRANCH  32  34
ENDBRANCH  31  32
ENDBRANCH  30  31
ENDBRANCH   8  30
TORSDOF 5
ENDMDL
