MODEL 1
REMARK VINA RESULT:      -6.8      0.000      0.000
REMARK  Name = 3038506
REMARK  5 active torsions:
REMARK  status: ('A' for Active; 'I' for Inactive)
REMARK    1  A    between atoms: C_3  and  C_26
REMARK    2  A    between atoms: C_10  and  C_16
REMARK    3  A    between atoms: C_15  and  N_21
REMARK    4  A    between atoms: C_26  and  C_29
REMARK    5  A    between atoms: N_28  and  C_31
REMARK                            x       y       z     vdW  Elec       q    Type
REMARK                         _______ _______ _______ _____ _____    ______ ____
ROOT
ATOM      1  O   UNL     1      30.321 -10.248 -22.784  0.00  0.00    -0.270 OA
ATOM      2  N   UNL     1      32.674 -10.207 -22.823  0.00  0.00    -0.255 N 
ATOM      3  C   UNL     1      34.257 -12.088 -24.601  0.00  0.00    +0.033 C 
ATOM      4  C   UNL     1      35.222 -10.898 -24.545  0.00  0.00    +0.007 C 
ATOM      5  C   UNL     1      34.579  -9.537 -24.306  0.00  0.00    +0.022 C 
ATOM      6  C   UNL     1      33.630 -12.460 -23.265  0.00  0.00    -0.008 C 
ATOM      7  C   UNL     1      33.926  -9.441 -22.938  0.00  0.00    +0.099 C 
ATOM      8  C   UNL     1      32.819 -11.594 -22.502  0.00  0.00    +0.050 C 
ATOM      9  C   UNL     1      33.769 -13.796 -22.837  0.00  0.00    -0.003 C 
ATOM     10  C   UNL     1      31.388  -9.642 -22.876  0.00  0.00    +0.254 C 
ATOM     11  C   UNL     1      32.150 -12.092 -21.366  0.00  0.00    +0.015 C 
ATOM     12  C   UNL     1      33.117 -14.269 -21.698  0.00  0.00    -0.000 C 
ATOM     13  C   UNL     1      32.301 -13.418 -20.967  0.00  0.00    +0.001 C 
ENDROOT
BRANCH  10  16
ATOM     14 CL   UNL     1      31.991  -7.776 -20.502  0.00  0.00    -0.082 Cl
ATOM     15  C   UNL     1      31.050  -5.467 -23.621  0.00  0.00    +0.049 C 
ATOM     16  C   UNL     1      31.280  -8.196 -23.102  0.00  0.00    +0.065 C 
ATOM     17  C   UNL     1      31.418  -5.907 -22.348  0.00  0.00    +0.026 C 
ATOM     18  C   UNL     1      30.797  -6.394 -24.632  0.00  0.00    +0.015 C 
ATOM     19  C   UNL     1      31.533  -7.274 -22.089  0.00  0.00    +0.063 C 
ATOM     20  C   UNL     1      30.912  -7.759 -24.373  0.00  0.00    +0.007 C 
BRANCH  15  21
ATOM     21  N   UNL     1      30.935  -4.118 -23.877  0.00  0.00    -0.307 N 
ATOM     22  C   UNL     1      30.708  -3.104 -22.850  0.00  0.00    +0.091 C 
ATOM     23  C   UNL     1      31.027  -3.526 -25.209  0.00  0.00    +0.091 C 
ATOM     24  C   UNL     1      30.961  -1.786 -23.578  0.00  0.00    +0.023 C 
ATOM     25  C   UNL     1      30.540  -2.094 -25.005  0.00  0.00    +0.023 C 
ENDBRANCH  15  21
ENDBRANCH  10  16
BRANCH   3  26
ATOM     26  C   UNL     1      33.185 -11.942 -25.688  0.00  0.00    +0.089 C 
BRANCH  26  29
ATOM     27  O   UNL     1      32.708 -13.154 -27.727  0.00  0.00    -0.275 OA
ATOM     28  N   UNL     1      33.491 -14.304 -25.866  0.00  0.00    -0.306 N 
ATOM     29  C   UNL     1      33.091 -13.172 -26.561  0.00  0.00    +0.223 C 
ATOM     30  H   UNL     1      33.780 -14.202 -24.930  0.00  0.00    +0.149 HD
BRANCH  28  31
ATOM     31  C   UNL     1      33.503 -15.626 -26.449  0.00  0.00    +0.072 C 
ATOM     32  C   UNL     1      34.269 -16.597 -25.559  0.00  0.00    +0.021 C 
ATOM     33  C   UNL     1      32.080 -16.109 -26.695  0.00  0.00    +0.021 C 
ENDBRANCH  28  31
ENDBRANCH  26  29
ENDBRANCH   3  26
TORSDOF 5
ENDMDL
MODEL 2
REMARK VINA RESULT:      -6.1     11.645     15.693
REMARK  Name = 3038506
REMARK  5 active torsions:
REMARK  status: ('A' for Active; 'I' for Inactive)
REMARK    1  A    between atoms: C_3  and  C_26
REMARK    2  A    between atoms: C_10  and  C_16
REMARK    3  A    between atoms: C_15  and  N_21
REMARK    4  A    between atoms: C_26  and  C_29
REMARK    5  A    between atoms: N_28  and  C_31
REMARK                            x       y       z     vdW  Elec       q    Type
REMARK                         _______ _______ _______ _____ _____    ______ ____
ROOT
ATOM      1  O   UNL     1      32.252 -23.873 -18.036  0.00  0.00    -0.270 OA
ATOM      2  N   UNL     1      33.364 -22.863 -16.225  0.00  0.00    -0.255 N 
ATOM      3  C   UNL     1      34.962 -24.506 -14.238  0.00  0.00    +0.033 C 
ATOM      4  C   UNL     1      35.733 -23.182 -14.169  0.00  0.00    +0.007 C 
ATOM      5  C   UNL     1      35.676 -22.321 -15.425  0.00  0.00    +0.022 C 
ATOM      6  C   UNL     1      33.448 -24.359 -14.240  0.00  0.00    -0.008 C 
ATOM      7  C   UNL     1      34.272 -21.821 -15.717  0.00  0.00    +0.099 C 
ATOM      8  C   UNL     1      32.721 -23.667 -15.231  0.00  0.00    +0.050 C 
ATOM      9  C   UNL     1      32.728 -25.074 -13.260  0.00  0.00    -0.003 C 
ATOM     10  C   UNL     1      33.005 -23.017 -17.575  0.00  0.00    +0.254 C 
ATOM     11  C   UNL     1      31.313 -23.735 -15.233  0.00  0.00    +0.015 C 
ATOM     12  C   UNL     1      31.334 -25.114 -13.262  0.00  0.00    -0.000 C 
ATOM     13  C   UNL     1      30.627 -24.450 -14.255  0.00  0.00    +0.001 C 
ENDROOT
BRANCH  10  16
ATOM     14 CL   UNL     1      36.075 -23.001 -17.822  0.00  0.00    -0.082 Cl
ATOM     15  C   UNL     1      34.657 -20.343 -20.442  0.00  0.00    +0.049 C 
ATOM     16  C   UNL     1      33.605 -22.104 -18.555  0.00  0.00    +0.065 C 
ATOM     17  C   UNL     1      35.511 -21.145 -19.684  0.00  0.00    +0.026 C 
ATOM     18  C   UNL     1      33.277 -20.423 -20.255  0.00  0.00    +0.015 C 
ATOM     19  C   UNL     1      34.984 -22.026 -18.739  0.00  0.00    +0.063 C 
ATOM     20  C   UNL     1      32.750 -21.304 -19.312  0.00  0.00    +0.007 C 
BRANCH  15  21
ATOM     21  N   UNL     1      35.177 -19.471 -21.374  0.00  0.00    -0.307 N 
ATOM     22  C   UNL     1      34.571 -19.205 -22.677  0.00  0.00    +0.091 C 
ATOM     23  C   UNL     1      36.401 -18.699 -21.180  0.00  0.00    +0.091 C 
ATOM     24  C   UNL     1      35.328 -17.981 -23.187  0.00  0.00    +0.023 C 
ATOM     25  C   UNL     1      36.707 -18.146 -22.570  0.00  0.00    +0.023 C 
ENDBRANCH  15  21
ENDBRANCH  10  16
BRANCH   3  26
ATOM     26  C   UNL     1      35.428 -25.414 -15.382  0.00  0.00    +0.089 C 
BRANCH  26  29
ATOM     27  O   UNL     1      36.688 -27.393 -14.791  0.00  0.00    -0.275 OA
ATOM     28  N   UNL     1      37.783 -25.353 -14.984  0.00  0.00    -0.306 N 
ATOM     29  C   UNL     1      36.675 -26.188 -15.021  0.00  0.00    +0.223 C 
ATOM     30  H   UNL     1      37.657 -24.397 -15.186  0.00  0.00    +0.149 HD
BRANCH  28  31
ATOM     31  C   UNL     1      39.112 -25.818 -14.663  0.00  0.00    +0.072 C 
ATOM     32  C   UNL     1      40.158 -25.023 -15.434  0.00  0.00    +0.021 C 
ATOM     33  C   UNL     1      39.354 -25.738 -13.161  0.00  0.00    +0.021 C 
ENDBRANCH  28  31
ENDBRANCH  26  29
ENDBRANCH   3  26
TORSDOF 5
ENDMDL
MODEL 3
REMARK VINA RESULT:      -5.7      6.331     12.344
REMARK  Name = 3038506
REMARK  5 active torsions:
REMARK  status: ('A' for Active; 'I' for Inactive)
REMARK    1  A    between atoms: C_3  and  C_26
REMARK    2  A    between atoms: C_10  and  C_16
REMARK    3  A    between atoms: C_15  and  N_21
REMARK    4  A    between atoms: C_26  and  C_29
REMARK    5  A    between atoms: N_28  and  C_31
REMARK                            x       y       z     vdW  Elec       q    Type
REMARK                         _______ _______ _______ _____ _____    ______ ____
ROOT
ATOM      1  O   UNL     1      33.047 -19.585 -22.861  0.00  0.00    -0.270 OA
ATOM      2  N   UNL     1      34.658 -17.996 -22.214  0.00  0.00    -0.255 N 
ATOM      3  C   UNL     1      33.990 -15.041 -22.064  0.00  0.00    +0.033 C 
ATOM      4  C   UNL     1      35.078 -15.123 -20.986  0.00  0.00    +0.007 C 
ATOM      5  C   UNL     1      35.230 -16.478 -20.304  0.00  0.00    +0.022 C 
ATOM      6  C   UNL     1      34.302 -15.807 -23.340  0.00  0.00    -0.008 C 
ATOM      7  C   UNL     1      35.696 -17.557 -21.266  0.00  0.00    +0.099 C 
ATOM      8  C   UNL     1      34.516 -17.201 -23.395  0.00  0.00    +0.050 C 
ATOM      9  C   UNL     1      34.241 -15.091 -24.554  0.00  0.00    -0.003 C 
ATOM     10  C   UNL     1      33.920 -19.185 -22.091  0.00  0.00    +0.254 C 
ATOM     11  C   UNL     1      34.629 -17.836 -24.648  0.00  0.00    +0.015 C 
ATOM     12  C   UNL     1      34.376 -15.731 -25.786  0.00  0.00    -0.000 C 
ATOM     13  C   UNL     1      34.563 -17.106 -25.832  0.00  0.00    +0.001 C 
ENDROOT
BRANCH  10  16
ATOM     14 CL   UNL     1      36.845 -19.878 -21.420  0.00  0.00    -0.082 Cl
ATOM     15  C   UNL     1      34.544 -21.642 -18.675  0.00  0.00    +0.049 C 
ATOM     16  C   UNL     1      34.167 -20.032 -20.918  0.00  0.00    +0.065 C 
ATOM     17  C   UNL     1      35.645 -21.205 -19.413  0.00  0.00    +0.026 C 
ATOM     18  C   UNL     1      33.256 -21.274 -19.061  0.00  0.00    +0.015 C 
ATOM     19  C   UNL     1      35.456 -20.399 -20.536  0.00  0.00    +0.063 C 
ATOM     20  C   UNL     1      33.067 -20.468 -20.183  0.00  0.00    +0.007 C 
BRANCH  15  21
ATOM     21  N   UNL     1      34.730 -22.440 -17.566  0.00  0.00    -0.307 N 
ATOM     22  C   UNL     1      35.994 -22.557 -16.842  0.00  0.00    +0.091 C 
ATOM     23  C   UNL     1      33.688 -23.271 -16.970  0.00  0.00    +0.091 C 
ATOM     24  C   UNL     1      35.611 -23.289 -15.558  0.00  0.00    +0.023 C 
ATOM     25  C   UNL     1      34.449 -24.165 -15.994  0.00  0.00    +0.023 C 
ENDBRANCH  15  21
ENDBRANCH  10  16
BRANCH   3  26
ATOM     26  C   UNL     1      32.594 -15.396 -21.537  0.00  0.00    +0.089 C 
BRANCH  26  29
ATOM     27  O   UNL     1      31.889 -14.390 -19.452  0.00  0.00    -0.275 OA
ATOM     28  N   UNL     1      31.664 -13.198 -21.435  0.00  0.00    -0.306 N 
ATOM     29  C   UNL     1      32.020 -14.300 -20.670  0.00  0.00    +0.223 C 
ATOM     30  H   UNL     1      31.813 -13.234 -22.408  0.00  0.00    +0.149 HD
BRANCH  28  31
ATOM     31  C   UNL     1      31.086 -11.999 -20.872  0.00  0.00    +0.072 C 
ATOM     32  C   UNL     1      31.941 -11.480 -19.724  0.00  0.00    +0.021 C 
ATOM     33  C   UNL     1      30.908 -10.940 -21.952  0.00  0.00    +0.021 C 
ENDBRANCH  28  31
ENDBRANCH  26  29
ENDBRANCH   3  26
TORSDOF 5
ENDMDL
MODEL 4
REMARK VINA RESULT:      -5.1      2.414      8.534
REMARK  Name = 3038506
REMARK  5 active torsions:
REMARK  status: ('A' for Active; 'I' for Inactive)
REMARK    1  A    between atoms: C_3  and  C_26
REMARK    2  A    between atoms: C_10  and  C_16
REMARK    3  A    between atoms: C_15  and  N_21
REMARK    4  A    between atoms: C_26  and  C_29
REMARK    5  A    between atoms: N_28  and  C_31
REMARK                            x       y       z     vdW  Elec       q    Type
REMARK                         _______ _______ _______ _____ _____    ______ ____
ROOT
ATOM      1  O   UNL     1      33.471  -8.287 -21.489  0.00  0.00    -0.270 OA
ATOM      2  N   UNL     1      31.626  -7.969 -22.915  0.00  0.00    -0.255 N 
ATOM      3  C   UNL     1      31.466  -5.587 -24.785  0.00  0.00    +0.033 C 
ATOM      4  C   UNL     1      30.654  -6.610 -25.588  0.00  0.00    +0.007 C 
ATOM      5  C   UNL     1      31.006  -8.072 -25.341  0.00  0.00    +0.022 C 
ATOM      6  C   UNL     1      31.156  -5.557 -23.296  0.00  0.00    -0.008 C 
ATOM      7  C   UNL     1      30.693  -8.508 -23.920  0.00  0.00    +0.099 C 
ATOM      8  C   UNL     1      31.329  -6.657 -22.429  0.00  0.00    +0.050 C 
ATOM      9  C   UNL     1      30.799  -4.313 -22.736  0.00  0.00    -0.003 C 
ATOM     10  C   UNL     1      32.674  -8.701 -22.330  0.00  0.00    +0.254 C 
ATOM     11  C   UNL     1      31.175  -6.475 -21.040  0.00  0.00    +0.015 C 
ATOM     12  C   UNL     1      30.629  -4.154 -21.361  0.00  0.00    -0.000 C 
ATOM     13  C   UNL     1      30.825  -5.235 -20.512  0.00  0.00    +0.001 C 
ENDROOT
BRANCH  10  16
ATOM     14 CL   UNL     1      31.089 -10.921 -20.899  0.00  0.00    -0.082 Cl
ATOM     15  C   UNL     1      33.342 -12.675 -23.691  0.00  0.00    +0.049 C 
ATOM     16  C   UNL     1      32.883 -10.083 -22.777  0.00  0.00    +0.065 C 
ATOM     17  C   UNL     1      32.441 -12.452 -22.648  0.00  0.00    +0.026 C 
ATOM     18  C   UNL     1      34.012 -11.601 -24.274  0.00  0.00    +0.015 C 
ATOM     19  C   UNL     1      32.212 -11.154 -22.191  0.00  0.00    +0.063 C 
ATOM     20  C   UNL     1      33.783 -10.303 -23.818  0.00  0.00    +0.007 C 
BRANCH  15  21
ATOM     21  N   UNL     1      33.569 -13.957 -24.142  0.00  0.00    -0.307 N 
ATOM     22  C   UNL     1      34.411 -14.933 -23.453  0.00  0.00    +0.091 C 
ATOM     23  C   UNL     1      32.998 -14.508 -25.368  0.00  0.00    +0.091 C 
ATOM     24  C   UNL     1      34.100 -16.248 -24.163  0.00  0.00    +0.023 C 
ATOM     25  C   UNL     1      33.774 -15.807 -25.580  0.00  0.00    +0.023 C 
ENDBRANCH  15  21
ENDBRANCH  10  16
BRANCH   3  26
ATOM     26  C   UNL     1      32.976  -5.694 -25.030  0.00  0.00    +0.089 C 
BRANCH  26  29
ATOM     27  O   UNL     1      34.488  -5.116 -26.829  0.00  0.00    -0.275 OA
ATOM     28  N   UNL     1      32.407  -4.087 -26.704  0.00  0.00    -0.306 N 
ATOM     29  C   UNL     1      33.402  -4.957 -26.279  0.00  0.00    +0.223 C 
ATOM     30  H   UNL     1      31.572  -4.039 -26.184  0.00  0.00    +0.149 HD
BRANCH  28  31
ATOM     31  C   UNL     1      32.538  -3.249 -27.874  0.00  0.00    +0.072 C 
ATOM     32  C   UNL     1      32.296  -4.058 -29.142  0.00  0.00    +0.021 C 
ATOM     33  C   UNL     1      31.588  -2.062 -27.785  0.00  0.00    +0.021 C 
ENDBRANCH  28  31
ENDBRANCH  26  29
ENDBRANCH   3  26
TORSDOF 5
ENDMDL
MODEL 5
REMARK VINA RESULT:      -5.1      2.608      8.538
REMARK  Name = 3038506
REMARK  5 active torsions:
REMARK  status: ('A' for Active; 'I' for Inactive)
REMARK    1  A    between atoms: C_3  and  C_26
REMARK    2  A    between atoms: C_10  and  C_16
REMARK    3  A    between atoms: C_15  and  N_21
REMARK    4  A    between atoms: C_26  and  C_29
REMARK    5  A    between atoms: N_28  and  C_31
REMARK                            x       y       z     vdW  Elec       q    Type
REMARK                         _______ _______ _______ _____ _____    ______ ____
ROOT
ATOM      1  O   UNL     1      31.118 -10.662 -22.160  0.00  0.00    -0.270 OA
ATOM      2  N   UNL     1      32.616  -9.916 -23.814  0.00  0.00    -0.255 N 
ATOM      3  C   UNL     1      34.301  -7.425 -23.413  0.00  0.00    +0.033 C 
ATOM      4  C   UNL     1      35.226  -8.226 -24.338  0.00  0.00    +0.007 C 
ATOM      5  C   UNL     1      35.074  -9.741 -24.272  0.00  0.00    +0.022 C 
ATOM      6  C   UNL     1      32.834  -7.439 -23.816  0.00  0.00    -0.008 C 
ATOM      7  C   UNL     1      33.711 -10.205 -24.756  0.00  0.00    +0.099 C 
ATOM      8  C   UNL     1      32.047  -8.606 -23.904  0.00  0.00    +0.050 C 
ATOM      9  C   UNL     1      32.200  -6.190 -23.982  0.00  0.00    -0.003 C 
ATOM     10  C   UNL     1      32.032 -10.864 -22.958  0.00  0.00    +0.254 C 
ATOM     11  C   UNL     1      30.659  -8.492 -24.119  0.00  0.00    +0.015 C 
ATOM     12  C   UNL     1      30.828  -6.094 -24.216  0.00  0.00    -0.000 C 
ATOM     13  C   UNL     1      30.056  -7.246 -24.277  0.00  0.00    +0.001 C 
ENDROOT
BRANCH  10  16
ATOM     14 CL   UNL     1      31.892 -12.479 -20.339  0.00  0.00    -0.082 Cl
ATOM     15  C   UNL     1      33.622 -14.808 -23.082  0.00  0.00    +0.049 C 
ATOM     16  C   UNL     1      32.573 -12.229 -22.969  0.00  0.00    +0.065 C 
ATOM     17  C   UNL     1      33.079 -14.327 -21.890  0.00  0.00    +0.026 C 
ATOM     18  C   UNL     1      33.640 -13.998 -24.217  0.00  0.00    +0.015 C 
ATOM     19  C   UNL     1      32.555 -13.036 -21.834  0.00  0.00    +0.063 C 
ATOM     20  C   UNL     1      33.115 -12.707 -24.161  0.00  0.00    +0.007 C 
BRANCH  15  21
ATOM     21  N   UNL     1      34.142 -16.084 -23.138  0.00  0.00    -0.307 N 
ATOM     22  C   UNL     1      34.440 -16.795 -24.378  0.00  0.00    +0.091 C 
ATOM     23  C   UNL     1      34.463 -16.890 -21.963  0.00  0.00    +0.091 C 
ATOM     24  C   UNL     1      35.258 -18.000 -23.919  0.00  0.00    +0.023 C 
ATOM     25  C   UNL     1      34.704 -18.285 -22.533  0.00  0.00    +0.023 C 
ENDBRANCH  15  21
ENDBRANCH  10  16
BRANCH   3  26
ATOM     26  C   UNL     1      34.468  -7.792 -21.933  0.00  0.00    +0.089 C 
BRANCH  26  29
ATOM     27  O   UNL     1      32.641  -6.446 -21.095  0.00  0.00    -0.275 OA
ATOM     28  N   UNL     1      32.795  -8.681 -20.479  0.00  0.00    -0.306 N 
ATOM     29  C   UNL     1      33.208  -7.533 -21.140  0.00  0.00    +0.223 C 
ATOM     30  H   UNL     1      33.329  -9.502 -20.585  0.00  0.00    +0.149 HD
BRANCH  28  31
ATOM     31  C   UNL     1      31.619  -8.730 -19.640  0.00  0.00    +0.072 C 
ATOM     32  C   UNL     1      31.634  -9.980 -18.770  0.00  0.00    +0.021 C 
ATOM     33  C   UNL     1      31.519  -7.468 -18.794  0.00  0.00    +0.021 C 
ENDBRANCH  28  31
ENDBRANCH  26  29
ENDBRANCH   3  26
TORSDOF 5
ENDMDL
MODEL 6
REMARK VINA RESULT:      -5.0      2.759      8.430
REMARK  Name = 3038506
REMARK  5 active torsions:
REMARK  status: ('A' for Active; 'I' for Inactive)
REMARK    1  A    between atoms: C_3  and  C_26
REMARK    2  A    between atoms: C_10  and  C_16
REMARK    3  A    between atoms: C_15  and  N_21
REMARK    4  A    between atoms: C_26  and  C_29
REMARK    5  A    between atoms: N_28  and  C_31
REMARK                            x       y       z     vdW  Elec       q    Type
REMARK                         _______ _______ _______ _____ _____    ______ ____
ROOT
ATOM      1  O   UNL     1      33.618  -8.310 -21.629  0.00  0.00    -0.270 OA
ATOM      2  N   UNL     1      31.648  -8.024 -22.885  0.00  0.00    -0.255 N 
ATOM      3  C   UNL     1      31.285  -5.648 -24.736  0.00  0.00    +0.033 C 
ATOM      4  C   UNL     1      30.420  -6.686 -25.462  0.00  0.00    +0.007 C 
ATOM      5  C   UNL     1      30.816  -8.142 -25.246  0.00  0.00    +0.022 C 
ATOM      6  C   UNL     1      31.109  -5.620 -23.225  0.00  0.00    -0.008 C 
ATOM      7  C   UNL     1      30.638  -8.579 -23.802  0.00  0.00    +0.099 C 
ATOM      8  C   UNL     1      31.376  -6.715 -22.376  0.00  0.00    +0.050 C 
ATOM      9  C   UNL     1      30.784  -4.381 -22.636  0.00  0.00    -0.003 C 
ATOM     10  C   UNL     1      32.755  -8.737 -22.395  0.00  0.00    +0.254 C 
ATOM     11  C   UNL     1      31.343  -6.532 -20.979  0.00  0.00    +0.015 C 
ATOM     12  C   UNL     1      30.735  -4.221 -21.252  0.00  0.00    -0.000 C 
ATOM     13  C   UNL     1      31.022  -5.296 -20.423  0.00  0.00    +0.001 C 
ENDROOT
BRANCH  10  16
ATOM     14 CL   UNL     1      31.198 -10.960 -20.940  0.00  0.00    -0.082 Cl
ATOM     15  C   UNL     1      33.366 -12.705 -23.803  0.00  0.00    +0.049 C 
ATOM     16  C   UNL     1      32.945 -10.117 -22.858  0.00  0.00    +0.065 C 
ATOM     17  C   UNL     1      32.494 -12.485 -22.735  0.00  0.00    +0.026 C 
ATOM     18  C   UNL     1      34.027 -11.630 -24.396  0.00  0.00    +0.015 C 
ATOM     19  C   UNL     1      32.284 -11.189 -22.262  0.00  0.00    +0.063 C 
ATOM     20  C   UNL     1      33.816 -10.335 -23.924  0.00  0.00    +0.007 C 
BRANCH  15  21
ATOM     21  N   UNL     1      33.575 -13.985 -24.269  0.00  0.00    -0.307 N 
ATOM     22  C   UNL     1      32.969 -14.526 -25.484  0.00  0.00    +0.091 C 
ATOM     23  C   UNL     1      34.430 -14.968 -23.610  0.00  0.00    +0.091 C 
ATOM     24  C   UNL     1      33.731 -15.826 -25.724  0.00  0.00    +0.023 C 
ATOM     25  C   UNL     1      34.094 -16.278 -24.319  0.00  0.00    +0.023 C 
ENDBRANCH  15  21
ENDBRANCH  10  16
BRANCH   3  26
ATOM     26  C   UNL     1      32.769  -5.732 -25.115  0.00  0.00    +0.089 C 
BRANCH  26  29
ATOM     27  O   UNL     1      32.563  -3.572 -26.184  0.00  0.00    -0.275 OA
ATOM     28  N   UNL     1      34.317  -4.980 -26.771  0.00  0.00    -0.306 N 
ATOM     29  C   UNL     1      33.175  -4.630 -26.064  0.00  0.00    +0.223 C 
ATOM     30  H   UNL     1      34.727  -5.858 -26.594  0.00  0.00    +0.149 HD
BRANCH  28  31
ATOM     31  C   UNL     1      34.934  -4.118 -27.753  0.00  0.00    +0.072 C 
ATOM     32  C   UNL     1      36.430  -4.388 -27.837  0.00  0.00    +0.021 C 
ATOM     33  C   UNL     1      34.263  -4.296 -29.109  0.00  0.00    +0.021 C 
ENDBRANCH  28  31
ENDBRANCH  26  29
ENDBRANCH   3  26
TORSDOF 5
ENDMDL
MODEL 7
REMARK VINA RESULT:      -4.0      3.557      6.297
REMARK  Name = 3038506
REMARK  5 active torsions:
REMARK  status: ('A' for Active; 'I' for Inactive)
REMARK    1  A    between atoms: C_3  and  C_26
REMARK    2  A    between atoms: C_10  and  C_16
REMARK    3  A    between atoms: C_15  and  N_21
REMARK    4  A    between atoms: C_26  and  C_29
REMARK    5  A    between atoms: N_28  and  C_31
REMARK                            x       y       z     vdW  Elec       q    Type
REMARK                         _______ _______ _______ _____ _____    ______ ____
ROOT
ATOM      1  O   UNL     1      31.305 -16.701 -21.159  0.00  0.00    -0.270 OA
ATOM      2  N   UNL     1      33.650 -16.673 -21.362  0.00  0.00    -0.255 N 
ATOM      3  C   UNL     1      35.069 -18.271 -23.515  0.00  0.00    +0.033 C 
ATOM      4  C   UNL     1      36.058 -17.111 -23.348  0.00  0.00    +0.007 C 
ATOM      5  C   UNL     1      35.459 -15.798 -22.859  0.00  0.00    +0.022 C 
ATOM      6  C   UNL     1      34.531 -18.839 -22.210  0.00  0.00    -0.008 C 
ATOM      7  C   UNL     1      34.905 -15.908 -21.448  0.00  0.00    +0.099 C 
ATOM      8  C   UNL     1      33.791 -18.094 -21.267  0.00  0.00    +0.050 C 
ATOM      9  C   UNL     1      34.674 -20.226 -22.002  0.00  0.00    -0.003 C 
ATOM     10  C   UNL     1      32.375 -16.097 -21.235  0.00  0.00    +0.254 C 
ATOM     11  C   UNL     1      33.194 -18.755 -20.175  0.00  0.00    +0.015 C 
ATOM     12  C   UNL     1      34.095 -20.863 -20.905  0.00  0.00    -0.000 C 
ATOM     13  C   UNL     1      33.349 -20.128 -19.995  0.00  0.00    +0.001 C 
ENDROOT
BRANCH  10  16
ATOM     14 CL   UNL     1      32.170 -14.690 -18.503  0.00  0.00    -0.082 Cl
ATOM     15  C   UNL     1      32.098 -11.853 -21.312  0.00  0.00    +0.049 C 
ATOM     16  C   UNL     1      32.277 -14.632 -21.229  0.00  0.00    +0.065 C 
ATOM     17  C   UNL     1      32.091 -12.516 -20.084  0.00  0.00    +0.026 C 
ATOM     18  C   UNL     1      32.193 -12.581 -22.497  0.00  0.00    +0.015 C 
ATOM     19  C   UNL     1      32.181 -13.908 -20.043  0.00  0.00    +0.063 C 
ATOM     20  C   UNL     1      32.284 -13.972 -22.456  0.00  0.00    +0.007 C 
BRANCH  15  21
ATOM     21  N   UNL     1      32.008 -10.478 -21.353  0.00  0.00    -0.307 N 
ATOM     22  C   UNL     1      31.997  -9.692 -22.585  0.00  0.00    +0.091 C 
ATOM     23  C   UNL     1      31.911  -9.627 -20.170  0.00  0.00    +0.091 C 
ATOM     24  C   UNL     1      31.583  -8.297 -22.123  0.00  0.00    +0.023 C 
ATOM     25  C   UNL     1      32.143  -8.220 -20.713  0.00  0.00    +0.023 C 
ENDBRANCH  15  21
ENDBRANCH  10  16
BRANCH   3  26
ATOM     26  C   UNL     1      33.927 -17.951 -24.487  0.00  0.00    +0.089 C 
BRANCH  26  29
ATOM     27  O   UNL     1      35.292 -16.905 -26.189  0.00  0.00    -0.275 OA
ATOM     28  N   UNL     1      33.386 -15.820 -25.421  0.00  0.00    -0.306 N 
ATOM     29  C   UNL     1      34.302 -16.861 -25.464  0.00  0.00    +0.223 C 
ATOM     30  H   UNL     1      32.626 -15.889 -24.798  0.00  0.00    +0.149 HD
BRANCH  28  31
ATOM     31  C   UNL     1      33.493 -14.639 -26.247  0.00  0.00    +0.072 C 
ATOM     32  C   UNL     1      32.191 -14.393 -26.999  0.00  0.00    +0.021 C 
ATOM     33  C   UNL     1      33.877 -13.433 -25.399  0.00  0.00    +0.021 C 
ENDBRANCH  28  31
ENDBRANCH  26  29
ENDBRANCH   3  26
TORSDOF 5
ENDMDL
MODEL 8
REMARK VINA RESULT:      -3.9      9.746     14.120
REMARK  Name = 3038506
REMARK  5 active torsions:
REMARK  status: ('A' for Active; 'I' for Inactive)
REMARK    1  A    between atoms: C_3  and  C_26
REMARK    2  A    between atoms: C_10  and  C_16
REMARK    3  A    between atoms: C_15  and  N_21
REMARK    4  A    between atoms: C_26  and  C_29
REMARK    5  A    between atoms: N_28  and  C_31
REMARK                            x       y       z     vdW  Elec       q    Type
REMARK                         _______ _______ _______ _____ _____    ______ ____
ROOT
ATOM      1  O   UNL     1      36.589 -20.208 -17.519  0.00  0.00    -0.270 OA
ATOM      2  N   UNL     1      35.745 -22.303 -18.179  0.00  0.00    -0.255 N 
ATOM      3  C   UNL     1      33.748 -23.813 -16.466  0.00  0.00    +0.033 C 
ATOM      4  C   UNL     1      33.342 -24.318 -17.856  0.00  0.00    +0.007 C 
ATOM      5  C   UNL     1      33.638 -23.372 -19.014  0.00  0.00    +0.022 C 
ATOM      6  C   UNL     1      35.249 -23.758 -16.224  0.00  0.00    -0.008 C 
ATOM      7  C   UNL     1      35.127 -23.153 -19.212  0.00  0.00    +0.099 C 
ATOM      8  C   UNL     1      36.145 -22.972 -16.979  0.00  0.00    +0.050 C 
ATOM      9  C   UNL     1      35.746 -24.436 -15.092  0.00  0.00    -0.003 C 
ATOM     10  C   UNL     1      36.073 -20.948 -18.356  0.00  0.00    +0.254 C 
ATOM     11  C   UNL     1      37.487 -22.861 -16.566  0.00  0.00    +0.015 C 
ATOM     12  C   UNL     1      37.082 -24.333 -14.708  0.00  0.00    -0.000 C 
ATOM     13  C   UNL     1      37.952 -23.539 -15.442  0.00  0.00    +0.001 C 
ENDROOT
BRANCH  10  16
ATOM     14 CL   UNL     1      33.109 -20.870 -19.189  0.00  0.00    -0.082 Cl
ATOM     15  C   UNL     1      35.209 -19.111 -22.094  0.00  0.00    +0.049 C 
ATOM     16  C   UNL     1      35.743 -20.321 -19.641  0.00  0.00    +0.065 C 
ATOM     17  C   UNL     1      34.163 -19.632 -21.331  0.00  0.00    +0.026 C 
ATOM     18  C   UNL     1      36.521 -19.196 -21.629  0.00  0.00    +0.015 C 
ATOM     19  C   UNL     1      34.431 -20.238 -20.103  0.00  0.00    +0.063 C 
ATOM     20  C   UNL     1      36.789 -19.801 -20.402  0.00  0.00    +0.007 C 
BRANCH  15  21
ATOM     21  N   UNL     1      34.944 -18.514 -23.308  0.00  0.00    -0.307 N 
ATOM     22  C   UNL     1      34.923 -17.069 -23.525  0.00  0.00    +0.091 C 
ATOM     23  C   UNL     1      34.652 -19.248 -24.536  0.00  0.00    +0.091 C 
ATOM     24  C   UNL     1      34.894 -16.929 -25.045  0.00  0.00    +0.023 C 
ATOM     25  C   UNL     1      34.141 -18.171 -25.491  0.00  0.00    +0.023 C 
ENDBRANCH  15  21
ENDBRANCH  10  16
BRANCH   3  26
ATOM     26  C   UNL     1      33.082 -22.483 -16.092  0.00  0.00    +0.089 C 
BRANCH  26  29
ATOM     27  O   UNL     1      31.817 -22.684 -14.040  0.00  0.00    -0.275 OA
ATOM     28  N   UNL     1      30.726 -22.876 -16.083  0.00  0.00    -0.306 N 
ATOM     29  C   UNL     1      31.833 -22.686 -15.267  0.00  0.00    +0.223 C 
ATOM     30  H   UNL     1      30.855 -22.860 -17.059  0.00  0.00    +0.149 HD
BRANCH  28  31
ATOM     31  C   UNL     1      29.394 -23.098 -15.569  0.00  0.00    +0.072 C 
ATOM     32  C   UNL     1      28.353 -22.492 -16.500  0.00  0.00    +0.021 C 
ATOM     33  C   UNL     1      29.148 -24.586 -15.359  0.00  0.00    +0.021 C 
ENDBRANCH  28  31
ENDBRANCH  26  29
ENDBRANCH   3  26
TORSDOF 5
ENDMDL
MODEL 9
REMARK VINA RESULT:      -3.9      2.241      5.013
REMARK  Name = 3038506
REMARK  5 active torsions:
REMARK  status: ('A' for Active; 'I' for Inactive)
REMARK    1  A    between atoms: C_3  and  C_26
REMARK    2  A    between atoms: C_10  and  C_16
REMARK    3  A    between atoms: C_15  and  N_21
REMARK    4  A    between atoms: C_26  and  C_29
REMARK    5  A    between atoms: N_28  and  C_31
REMARK                            x       y       z     vdW  Elec       q    Type
REMARK                         _______ _______ _______ _____ _____    ______ ____
ROOT
ATOM      1  O   UNL     1      34.488 -10.012 -23.701  0.00  0.00    -0.270 OA
ATOM      2  N   UNL     1      32.306 -10.707 -23.158  0.00  0.00    -0.255 N 
ATOM      3  C   UNL     1      31.716 -12.189 -20.578  0.00  0.00    +0.033 C 
ATOM      4  C   UNL     1      30.374 -11.476 -20.789  0.00  0.00    +0.007 C 
ATOM      5  C   UNL     1      30.436 -10.174 -21.577  0.00  0.00    +0.022 C 
ATOM      6  C   UNL     1      32.307 -12.811 -21.834  0.00  0.00    -0.008 C 
ATOM      7  C   UNL     1      30.874 -10.391 -23.015  0.00  0.00    +0.099 C 
ATOM      8  C   UNL     1      32.661 -12.082 -22.989  0.00  0.00    +0.050 C 
ATOM      9  C   UNL     1      32.640 -14.181 -21.780  0.00  0.00    -0.003 C 
ATOM     10  C   UNL     1      33.285  -9.787 -23.570  0.00  0.00    +0.254 C 
ATOM     11  C   UNL     1      33.358 -12.727 -24.029  0.00  0.00    +0.015 C 
ATOM     12  C   UNL     1      33.311 -14.810 -22.827  0.00  0.00    -0.000 C 
ATOM     13  C   UNL     1      33.677 -14.081 -23.950  0.00  0.00    +0.001 C 
ENDROOT
BRANCH  10  16
ATOM     14 CL   UNL     1      35.376  -7.558 -23.190  0.00  0.00    -0.082 Cl
ATOM     15  C   UNL     1      31.982  -5.817 -24.370  0.00  0.00    +0.049 C 
ATOM     16  C   UNL     1      32.865  -8.406 -23.838  0.00  0.00    +0.065 C 
ATOM     17  C   UNL     1      33.299  -6.035 -23.960  0.00  0.00    +0.026 C 
ATOM     18  C   UNL     1      31.109  -6.895 -24.512  0.00  0.00    +0.015 C 
ATOM     19  C   UNL     1      33.740  -7.332 -23.694  0.00  0.00    +0.063 C 
ATOM     20  C   UNL     1      31.551  -8.191 -24.247  0.00  0.00    +0.007 C 
BRANCH  15  21
ATOM     21  N   UNL     1      31.545  -4.537 -24.632  0.00  0.00    -0.307 N 
ATOM     22  C   UNL     1      30.985  -3.638 -23.626  0.00  0.00    +0.091 C 
ATOM     23  C   UNL     1      31.586  -3.911 -25.951  0.00  0.00    +0.091 C 
ATOM     24  C   UNL     1      30.947  -2.283 -24.328  0.00  0.00    +0.023 C 
ATOM     25  C   UNL     1      30.733  -2.656 -25.785  0.00  0.00    +0.023 C 
ENDBRANCH  15  21
ENDBRANCH  10  16
BRANCH   3  26
ATOM     26  C   UNL     1      32.751 -11.318 -19.856  0.00  0.00    +0.089 C 
BRANCH  26  29
ATOM     27  O   UNL     1      31.365  -9.938 -18.433  0.00  0.00    -0.275 OA
ATOM     28  N   UNL     1      32.624  -8.947 -20.116  0.00  0.00    -0.306 N 
ATOM     29  C   UNL     1      32.156 -10.018 -19.367  0.00  0.00    +0.223 C 
ATOM     30  H   UNL     1      33.259  -9.127 -20.847  0.00  0.00    +0.149 HD
BRANCH  28  31
ATOM     31  C   UNL     1      32.222  -7.580 -19.876  0.00  0.00    +0.072 C 
ATOM     32  C   UNL     1      33.428  -6.650 -19.935  0.00  0.00    +0.021 C 
ATOM     33  C   UNL     1      31.151  -7.159 -20.872  0.00  0.00    +0.021 C 
ENDBRANCH  28  31
ENDBRANCH  26  29
ENDBRANCH   3  26
TORSDOF 5
ENDMDL
