MODEL 1
REMARK VINA RESULT:      -9.7      0.000      0.000
REMARK  Name = 9887557
REMARK  6 active torsions:
REMARK  status: ('A' for Active; 'I' for Inactive)
REMARK    1  A    between atoms: C_1  and  N_4
REMARK    2  A    between atoms: C_1  and  C_14
REMARK    3  A    between atoms: C_1  and  C_26
REMARK    4  A    between atoms: N_13  and  C_17
REMARK    5  A    between atoms: C_17  and  C_25
REMARK    6  A    between atoms: C_26  and  C_27
REMARK                            x       y       z     vdW  Elec       q    Type
REMARK                         _______ _______ _______ _____ _____    ______ ____
ROOT
ATOM      1  C   UNL     1      33.683 -23.159 -16.493  0.00  0.00    +0.150 C 
ENDROOT
BRANCH   1   4
ATOM      2  O   UNL     1      38.523 -26.485 -13.858  0.00  0.00    -0.350 OA
ATOM      3  O   UNL     1      36.118 -22.424 -15.287  0.00  0.00    -0.253 OA
ATOM      4  N   UNL     1      34.729 -24.069 -16.080  0.00  0.00    -0.282 N 
ATOM      5  N   UNL     1      36.829 -24.627 -15.150  0.00  0.00    -0.259 N 
ATOM      6  C   UNL     1      35.906 -23.624 -15.490  0.00  0.00    +0.304 C 
ATOM      7  C   UNL     1      36.654 -26.072 -15.356  0.00  0.00    +0.127 C 
ATOM      8  C   UNL     1      38.162 -24.242 -14.682  0.00  0.00    +0.127 C 
ATOM      9  C   UNL     1      37.178 -26.858 -14.160  0.00  0.00    +0.164 C 
ATOM     10  C   UNL     1      38.597 -25.102 -13.506  0.00  0.00    +0.164 C 
ATOM     11  H   UNL     1      34.603 -25.036 -16.222  0.00  0.00    +0.151 HD
ENDBRANCH   1   4
BRANCH   1  14
ATOM     12  O   UNL     1      32.693 -22.608 -14.350  0.00  0.00    -0.273 OA
ATOM     13  N   UNL     1      31.490 -23.919 -15.840  0.00  0.00    -0.295 N 
ATOM     14  C   UNL     1      32.595 -23.196 -15.426  0.00  0.00    +0.241 C 
ATOM     15  H   UNL     1      31.512 -24.353 -16.722  0.00  0.00    +0.150 HD
BRANCH  13  17
ATOM     16  N   UNL     1      27.994 -23.084 -16.596  0.00  0.00    +0.386 N 
ATOM     17  C   UNL     1      30.298 -24.059 -15.023  0.00  0.00    +0.132 C 
ATOM     18  C   UNL     1      29.641 -22.686 -14.788  0.00  0.00    +0.010 C 
ATOM     19  C   UNL     1      29.294 -24.997 -15.714  0.00  0.00    +0.010 C 
ATOM     20  C   UNL     1      28.963 -22.129 -16.045  0.00  0.00    -0.075 C 
ATOM     21  C   UNL     1      28.644 -24.354 -16.945  0.00  0.00    -0.075 C 
ATOM     22  C   UNL     1      27.321 -22.516 -17.763  0.00  0.00    -0.101 C 
ATOM     23  H   UNL     1      27.297 -23.275 -15.877  0.00  0.00    -0.080 HD
BRANCH  17  25
ATOM     24  N   UNL     1      31.023 -25.090 -12.706  0.00  0.00    -0.194 NA
ATOM     25  C   UNL     1      30.704 -24.636 -13.725  0.00  0.00    +0.089 C 
ENDBRANCH  17  25
ENDBRANCH  13  17
ENDBRANCH   1  14
BRANCH   1  26
ATOM     26  C   UNL     1      33.106 -23.531 -17.859  0.00  0.00    +0.029 C 
BRANCH  26  27
ATOM     27  C   UNL     1      33.703 -22.701 -18.994  0.00  0.00    +0.002 C 
ATOM     28  C   UNL     1      32.829 -21.473 -19.286  0.00  0.00    +0.000 C 
ATOM     29  C   UNL     1      35.141 -22.281 -18.661  0.00  0.00    +0.000 C 
ATOM     30  C   UNL     1      33.434 -20.599 -20.383  0.00  0.00    +0.000 C 
ATOM     31  C   UNL     1      35.741 -21.405 -19.758  0.00  0.00    +0.000 C 
ATOM     32  C   UNL     1      34.866 -20.191 -20.052  0.00  0.00    +0.000 C 
ENDBRANCH  26  27
ENDBRANCH   1  26
TORSDOF 6
ENDMDL
MODEL 2
REMARK VINA RESULT:      -8.3      2.175      6.400
REMARK  Name = 9887557
REMARK  6 active torsions:
REMARK  status: ('A' for Active; 'I' for Inactive)
REMARK    1  A    between atoms: C_1  and  N_4
REMARK    2  A    between atoms: C_1  and  C_14
REMARK    3  A    between atoms: C_1  and  C_26
REMARK    4  A    between atoms: N_13  and  C_17
REMARK    5  A    between atoms: C_17  and  C_25
REMARK    6  A    between atoms: C_26  and  C_27
REMARK                            x       y       z     vdW  Elec       q    Type
REMARK                         _______ _______ _______ _____ _____    ______ ____
ROOT
ATOM      1  C   UNL     1      36.121 -23.001 -16.712  0.00  0.00    +0.150 C 
ENDROOT
BRANCH   1   4
ATOM      2  O   UNL     1      30.478 -24.169 -13.844  0.00  0.00    -0.350 OA
ATOM      3  O   UNL     1      33.618 -23.896 -17.637  0.00  0.00    -0.253 OA
ATOM      4  N   UNL     1      34.907 -23.068 -15.930  0.00  0.00    -0.282 N 
ATOM      5  N   UNL     1      32.614 -23.523 -15.580  0.00  0.00    -0.259 N 
ATOM      6  C   UNL     1      33.707 -23.523 -16.463  0.00  0.00    +0.304 C 
ATOM      7  C   UNL     1      32.636 -23.099 -14.173  0.00  0.00    +0.127 C 
ATOM      8  C   UNL     1      31.278 -23.824 -16.099  0.00  0.00    +0.127 C 
ATOM      9  C   UNL     1      31.796 -24.035 -13.311  0.00  0.00    +0.164 C 
ATOM     10  C   UNL     1      30.519 -24.742 -15.153  0.00  0.00    +0.164 C 
ATOM     11  H   UNL     1      34.932 -22.781 -14.987  0.00  0.00    +0.151 HD
ENDBRANCH   1   4
BRANCH   1  14
ATOM     12  O   UNL     1      38.355 -22.794 -15.794  0.00  0.00    -0.273 OA
ATOM     13  N   UNL     1      36.945 -24.437 -14.959  0.00  0.00    -0.295 N 
ATOM     14  C   UNL     1      37.278 -23.388 -15.798  0.00  0.00    +0.241 C 
ATOM     15  H   UNL     1      36.054 -24.845 -15.042  0.00  0.00    +0.150 HD
BRANCH  13  17
ATOM     16  N   UNL     1      36.774 -24.284 -11.293  0.00  0.00    +0.386 N 
ATOM     17  C   UNL     1      37.860 -24.956 -13.958  0.00  0.00    +0.132 C 
ATOM     18  C   UNL     1      38.415 -23.812 -13.089  0.00  0.00    +0.010 C 
ATOM     19  C   UNL     1      37.136 -25.976 -13.063  0.00  0.00    +0.010 C 
ATOM     20  C   UNL     1      37.369 -23.234 -12.129  0.00  0.00    -0.075 C 
ATOM     21  C   UNL     1      36.127 -25.314 -12.117  0.00  0.00    -0.075 C 
ATOM     22  C   UNL     1      35.818 -23.708 -10.350  0.00  0.00    -0.101 C 
ATOM     23  H   UNL     1      37.525 -24.730 -10.766  0.00  0.00    -0.080 HD
BRANCH  17  25
ATOM     24  N   UNL     1      39.850 -26.141 -15.220  0.00  0.00    -0.194 NA
ATOM     25  C   UNL     1      38.975 -25.620 -14.665  0.00  0.00    +0.089 C 
ENDBRANCH  17  25
ENDBRANCH  13  17
ENDBRANCH   1  14
BRANCH   1  26
ATOM     26  C   UNL     1      36.347 -21.609 -17.303  0.00  0.00    +0.029 C 
BRANCH  26  27
ATOM     27  C   UNL     1      35.942 -21.523 -18.774  0.00  0.00    +0.002 C 
ATOM     28  C   UNL     1      34.437 -21.251 -18.906  0.00  0.00    +0.000 C 
ATOM     29  C   UNL     1      36.758 -20.443 -19.498  0.00  0.00    +0.000 C 
ATOM     30  C   UNL     1      34.017 -21.109 -20.368  0.00  0.00    +0.000 C 
ATOM     31  C   UNL     1      36.333 -20.301 -20.957  0.00  0.00    +0.000 C 
ATOM     32  C   UNL     1      34.836 -20.041 -21.087  0.00  0.00    +0.000 C 
ENDBRANCH  26  27
ENDBRANCH   1  26
TORSDOF 6
ENDMDL
MODEL 3
REMARK VINA RESULT:      -8.1      2.426      6.859
REMARK  Name = 9887557
REMARK  6 active torsions:
REMARK  status: ('A' for Active; 'I' for Inactive)
REMARK    1  A    between atoms: C_1  and  N_4
REMARK    2  A    between atoms: C_1  and  C_14
REMARK    3  A    between atoms: C_1  and  C_26
REMARK    4  A    between atoms: N_13  and  C_17
REMARK    5  A    between atoms: C_17  and  C_25
REMARK    6  A    between atoms: C_26  and  C_27
REMARK                            x       y       z     vdW  Elec       q    Type
REMARK                         _______ _______ _______ _____ _____    ______ ____
ROOT
ATOM      1  C   UNL     1      33.396 -23.671 -14.413  0.00  0.00    +0.150 C 
ENDROOT
BRANCH   1   4
ATOM      2  O   UNL     1      36.843 -21.126 -19.217  0.00  0.00    -0.350 OA
ATOM      3  O   UNL     1      32.874 -23.184 -17.136  0.00  0.00    -0.253 OA
ATOM      4  N   UNL     1      34.361 -23.214 -15.389  0.00  0.00    -0.282 N 
ATOM      5  N   UNL     1      35.070 -22.561 -17.547  0.00  0.00    -0.259 N 
ATOM      6  C   UNL     1      34.022 -22.997 -16.720  0.00  0.00    +0.304 C 
ATOM      7  C   UNL     1      36.458 -22.315 -17.132  0.00  0.00    +0.127 C 
ATOM      8  C   UNL     1      34.847 -22.470 -18.992  0.00  0.00    +0.127 C 
ATOM      9  C   UNL     1      37.010 -21.060 -17.800  0.00  0.00    +0.164 C 
ATOM     10  C   UNL     1      35.458 -21.198 -19.559  0.00  0.00    +0.164 C 
ATOM     11  H   UNL     1      35.289 -23.052 -15.101  0.00  0.00    +0.151 HD
ENDBRANCH   1   4
BRANCH   1  14
ATOM     12  O   UNL     1      33.660 -25.113 -12.483  0.00  0.00    -0.273 OA
ATOM     13  N   UNL     1      35.501 -23.939 -13.269  0.00  0.00    -0.295 N 
ATOM     14  C   UNL     1      34.170 -24.317 -13.270  0.00  0.00    +0.241 C 
ATOM     15  H   UNL     1      35.811 -23.294 -13.944  0.00  0.00    +0.150 HD
BRANCH  13  17
ATOM     16  N   UNL     1      38.868 -25.309 -13.796  0.00  0.00    +0.386 N 
ATOM     17  C   UNL     1      36.459 -24.459 -12.310  0.00  0.00    +0.132 C 
ATOM     18  C   UNL     1      36.781 -25.934 -12.615  0.00  0.00    +0.010 C 
ATOM     19  C   UNL     1      37.754 -23.630 -12.358  0.00  0.00    +0.010 C 
ATOM     20  C   UNL     1      37.638 -26.107 -13.874  0.00  0.00    -0.075 C 
ATOM     21  C   UNL     1      38.563 -23.881 -13.636  0.00  0.00    -0.075 C 
ATOM     22  C   UNL     1      39.696 -25.526 -14.982  0.00  0.00    -0.101 C 
ATOM     23  H   UNL     1      39.388 -25.613 -12.974  0.00  0.00    -0.080 HD
BRANCH  17  25
ATOM     24  N   UNL     1      35.381 -24.278  -9.910  0.00  0.00    -0.194 NA
ATOM     25  C   UNL     1      35.855 -24.357 -10.966  0.00  0.00    +0.089 C 
ENDBRANCH  17  25
ENDBRANCH  13  17
ENDBRANCH   1  14
BRANCH   1  26
ATOM     26  C   UNL     1      32.399 -24.662 -15.014  0.00  0.00    +0.029 C 
BRANCH  26  27
ATOM     27  C   UNL     1      30.947 -24.235 -14.802  0.00  0.00    +0.002 C 
ATOM     28  C   UNL     1      30.807 -22.711 -14.925  0.00  0.00    +0.000 C 
ATOM     29  C   UNL     1      30.021 -24.950 -15.796  0.00  0.00    +0.000 C 
ATOM     30  C   UNL     1      29.355 -22.265 -14.768  0.00  0.00    +0.000 C 
ATOM     31  C   UNL     1      28.571 -24.499 -15.639  0.00  0.00    +0.000 C 
ATOM     32  C   UNL     1      28.436 -22.984 -15.751  0.00  0.00    +0.000 C 
ENDBRANCH  26  27
ENDBRANCH   1  26
TORSDOF 6
ENDMDL
MODEL 4
REMARK VINA RESULT:      -7.7      2.522      7.231
REMARK  Name = 9887557
REMARK  6 active torsions:
REMARK  status: ('A' for Active; 'I' for Inactive)
REMARK    1  A    between atoms: C_1  and  N_4
REMARK    2  A    between atoms: C_1  and  C_14
REMARK    3  A    between atoms: C_1  and  C_26
REMARK    4  A    between atoms: N_13  and  C_17
REMARK    5  A    between atoms: C_17  and  C_25
REMARK    6  A    between atoms: C_26  and  C_27
REMARK                            x       y       z     vdW  Elec       q    Type
REMARK                         _______ _______ _______ _____ _____    ______ ____
ROOT
ATOM      1  C   UNL     1      34.254 -23.134 -16.169  0.00  0.00    +0.150 C 
ENDROOT
BRANCH   1   4
ATOM      2  O   UNL     1      35.823 -19.744 -21.411  0.00  0.00    -0.350 OA
ATOM      3  O   UNL     1      32.760 -21.964 -18.248  0.00  0.00    -0.253 OA
ATOM      4  N   UNL     1      34.800 -22.523 -17.360  0.00  0.00    -0.282 N 
ATOM      5  N   UNL     1      34.669 -21.415 -19.444  0.00  0.00    -0.259 N 
ATOM      6  C   UNL     1      33.991 -21.965 -18.344  0.00  0.00    +0.304 C 
ATOM      7  C   UNL     1      36.126 -21.375 -19.634  0.00  0.00    +0.127 C 
ATOM      8  C   UNL     1      33.897 -20.960 -20.603  0.00  0.00    +0.127 C 
ATOM      9  C   UNL     1      36.560 -20.038 -20.224  0.00  0.00    +0.164 C 
ATOM     10  C   UNL     1      34.427 -19.634 -21.125  0.00  0.00    +0.164 C 
ATOM     11  H   UNL     1      35.778 -22.501 -17.479  0.00  0.00    +0.151 HD
ENDBRANCH   1   4
BRANCH   1  14
ATOM     12  O   UNL     1      35.555 -25.158 -15.876  0.00  0.00    -0.273 OA
ATOM     13  N   UNL     1      36.100 -23.280 -14.626  0.00  0.00    -0.295 N 
ATOM     14  C   UNL     1      35.351 -23.991 -15.548  0.00  0.00    +0.241 C 
ATOM     15  H   UNL     1      35.853 -22.348 -14.433  0.00  0.00    +0.150 HD
BRANCH  13  17
ATOM     16  N   UNL     1      36.438 -24.368 -11.134  0.00  0.00    +0.386 N 
ATOM     17  C   UNL     1      37.237 -23.859 -13.933  0.00  0.00    +0.132 C 
ATOM     18  C   UNL     1      37.669 -22.961 -12.759  0.00  0.00    +0.010 C 
ATOM     19  C   UNL     1      36.873 -25.257 -13.403  0.00  0.00    +0.010 C 
ATOM     20  C   UNL     1      36.678 -22.994 -11.590  0.00  0.00    -0.075 C 
ATOM     21  C   UNL     1      35.900 -25.199 -12.219  0.00  0.00    -0.075 C 
ATOM     22  C   UNL     1      35.531 -24.376  -9.987  0.00  0.00    -0.101 C 
ATOM     23  H   UNL     1      37.332 -24.766 -10.847  0.00  0.00    -0.080 HD
BRANCH  17  25
ATOM     24  N   UNL     1      39.220 -24.057 -15.660  0.00  0.00    -0.194 NA
ATOM     25  C   UNL     1      38.348 -23.970 -14.900  0.00  0.00    +0.089 C 
ENDBRANCH  17  25
ENDBRANCH  13  17
ENDBRANCH   1  14
BRANCH   1  26
ATOM     26  C   UNL     1      33.019 -23.983 -16.475  0.00  0.00    +0.029 C 
BRANCH  26  27
ATOM     27  C   UNL     1      31.879 -23.738 -15.489  0.00  0.00    +0.002 C 
ATOM     28  C   UNL     1      30.540 -23.614 -16.230  0.00  0.00    +0.000 C 
ATOM     29  C   UNL     1      31.820 -24.856 -14.439  0.00  0.00    +0.000 C 
ATOM     30  C   UNL     1      29.376 -23.420 -15.261  0.00  0.00    +0.000 C 
ATOM     31  C   UNL     1      30.653 -24.661 -13.474  0.00  0.00    +0.000 C 
ATOM     32  C   UNL     1      29.326 -24.528 -14.213  0.00  0.00    +0.000 C 
ENDBRANCH  26  27
ENDBRANCH   1  26
TORSDOF 6
ENDMDL
MODEL 5
REMARK VINA RESULT:      -7.4      2.042      5.496
REMARK  Name = 9887557
REMARK  6 active torsions:
REMARK  status: ('A' for Active; 'I' for Inactive)
REMARK    1  A    between atoms: C_1  and  N_4
REMARK    2  A    between atoms: C_1  and  C_14
REMARK    3  A    between atoms: C_1  and  C_26
REMARK    4  A    between atoms: N_13  and  C_17
REMARK    5  A    between atoms: C_17  and  C_25
REMARK    6  A    between atoms: C_26  and  C_27
REMARK                            x       y       z     vdW  Elec       q    Type
REMARK                         _______ _______ _______ _____ _____    ______ ____
ROOT
ATOM      1  C   UNL     1      33.652 -23.550 -16.792  0.00  0.00    +0.150 C 
ENDROOT
BRANCH   1   4
ATOM      2  O   UNL     1      33.608 -19.490 -21.786  0.00  0.00    -0.350 OA
ATOM      3  O   UNL     1      35.661 -22.491 -18.455  0.00  0.00    -0.253 OA
ATOM      4  N   UNL     1      33.465 -22.521 -17.790  0.00  0.00    -0.282 N 
ATOM      5  N   UNL     1      34.175 -21.045 -19.495  0.00  0.00    -0.259 N 
ATOM      6  C   UNL     1      34.512 -22.051 -18.574  0.00  0.00    +0.304 C 
ATOM      7  C   UNL     1      32.838 -20.469 -19.699  0.00  0.00    +0.127 C 
ATOM      8  C   UNL     1      35.242 -20.372 -20.239  0.00  0.00    +0.127 C 
ATOM      9  C   UNL     1      32.562 -20.251 -21.182  0.00  0.00    +0.164 C 
ATOM     10  C   UNL     1      34.854 -20.183 -21.697  0.00  0.00    +0.164 C 
ATOM     11  H   UNL     1      32.565 -22.141 -17.920  0.00  0.00    +0.151 HD
ENDBRANCH   1   4
BRANCH   1  14
ATOM     12  O   UNL     1      32.696 -22.510 -14.822  0.00  0.00    -0.273 OA
ATOM     13  N   UNL     1      31.496 -24.172 -15.910  0.00  0.00    -0.295 N 
ATOM     14  C   UNL     1      32.590 -23.346 -15.718  0.00  0.00    +0.241 C 
ATOM     15  H   UNL     1      31.509 -24.809 -16.659  0.00  0.00    +0.150 HD
BRANCH  13  17
ATOM     16  N   UNL     1      28.048 -23.149 -16.652  0.00  0.00    +0.386 N 
ATOM     17  C   UNL     1      30.327 -24.131 -15.049  0.00  0.00    +0.132 C 
ATOM     18  C   UNL     1      29.784 -22.694 -14.945  0.00  0.00    +0.010 C 
ATOM     19  C   UNL     1      29.231 -25.055 -15.608  0.00  0.00    +0.010 C 
ATOM     20  C   UNL     1      29.105 -22.220 -16.235  0.00  0.00    -0.075 C 
ATOM     21  C   UNL     1      28.587 -24.495 -16.882  0.00  0.00    -0.075 C 
ATOM     22  C   UNL     1      27.377 -22.654 -17.854  0.00  0.00    -0.101 C 
ATOM     23  H   UNL     1      27.364 -23.207 -15.898  0.00  0.00    -0.080 HD
BRANCH  17  25
ATOM     24  N   UNL     1      31.056 -24.968 -12.657  0.00  0.00    -0.194 NA
ATOM     25  C   UNL     1      30.735 -24.600 -13.709  0.00  0.00    +0.089 C 
ENDBRANCH  17  25
ENDBRANCH  13  17
ENDBRANCH   1  14
BRANCH   1  26
ATOM     26  C   UNL     1      35.052 -23.506 -16.178  0.00  0.00    +0.029 C 
BRANCH  26  27
ATOM     27  C   UNL     1      35.225 -24.507 -15.038  0.00  0.00    +0.002 C 
ATOM     28  C   UNL     1      36.354 -25.498 -15.354  0.00  0.00    +0.000 C 
ATOM     29  C   UNL     1      35.492 -23.780 -13.713  0.00  0.00    +0.000 C 
ATOM     30  C   UNL     1      36.581 -26.479 -14.206  0.00  0.00    +0.000 C 
ATOM     31  C   UNL     1      35.722 -24.764 -12.568  0.00  0.00    +0.000 C 
ATOM     32  C   UNL     1      36.837 -25.753 -12.889  0.00  0.00    +0.000 C 
ENDBRANCH  26  27
ENDBRANCH   1  26
TORSDOF 6
ENDMDL
MODEL 6
REMARK VINA RESULT:      -6.9      2.271      6.858
REMARK  Name = 9887557
REMARK  6 active torsions:
REMARK  status: ('A' for Active; 'I' for Inactive)
REMARK    1  A    between atoms: C_1  and  N_4
REMARK    2  A    between atoms: C_1  and  C_14
REMARK    3  A    between atoms: C_1  and  C_26
REMARK    4  A    between atoms: N_13  and  C_17
REMARK    5  A    between atoms: C_17  and  C_25
REMARK    6  A    between atoms: C_26  and  C_27
REMARK                            x       y       z     vdW  Elec       q    Type
REMARK                         _______ _______ _______ _____ _____    ______ ____
ROOT
ATOM      1  C   UNL     1      32.936 -23.456 -15.802  0.00  0.00    +0.150 C 
ENDROOT
BRANCH   1   4
ATOM      2  O   UNL     1      35.664 -20.536 -20.848  0.00  0.00    -0.350 OA
ATOM      3  O   UNL     1      31.933 -21.919 -17.936  0.00  0.00    -0.253 OA
ATOM      4  N   UNL     1      33.698 -22.996 -16.941  0.00  0.00    -0.282 N 
ATOM      5  N   UNL     1      33.993 -21.871 -18.999  0.00  0.00    -0.259 N 
ATOM      6  C   UNL     1      33.126 -22.238 -17.957  0.00  0.00    +0.304 C 
ATOM      7  C   UNL     1      35.420 -22.207 -19.100  0.00  0.00    +0.127 C 
ATOM      8  C   UNL     1      33.441 -21.220 -20.191  0.00  0.00    +0.127 C 
ATOM      9  C   UNL     1      36.222 -21.022 -19.626  0.00  0.00    +0.164 C 
ATOM     10  C   UNL     1      34.329 -20.072 -20.644  0.00  0.00    +0.164 C 
ATOM     11  H   UNL     1      34.654 -23.226 -17.000  0.00  0.00    +0.151 HD
ENDBRANCH   1   4
BRANCH   1  14
ATOM     12  O   UNL     1      33.405 -25.165 -14.148  0.00  0.00    -0.273 OA
ATOM     13  N   UNL     1      35.166 -24.255 -15.356  0.00  0.00    -0.295 N 
ATOM     14  C   UNL     1      33.837 -24.380 -14.990  0.00  0.00    +0.241 C 
ATOM     15  H   UNL     1      35.409 -23.595 -16.043  0.00  0.00    +0.150 HD
BRANCH  13  17
ATOM     16  N   UNL     1      37.257 -23.625 -12.403  0.00  0.00    +0.386 N 
ATOM     17  C   UNL     1      36.216 -25.065 -14.764  0.00  0.00    +0.132 C 
ATOM     18  C   UNL     1      37.554 -24.301 -14.768  0.00  0.00    +0.010 C 
ATOM     19  C   UNL     1      35.841 -25.437 -13.319  0.00  0.00    +0.010 C 
ATOM     20  C   UNL     1      37.584 -23.153 -13.754  0.00  0.00    -0.075 C 
ATOM     21  C   UNL     1      35.923 -24.239 -12.366  0.00  0.00    -0.075 C 
ATOM     22  C   UNL     1      37.342 -22.527 -11.441  0.00  0.00    -0.101 C 
ATOM     23  H   UNL     1      37.938 -24.339 -12.145  0.00  0.00    -0.080 HD
BRANCH  17  25
ATOM     24  N   UNL     1      36.456 -27.259 -16.208  0.00  0.00    -0.194 NA
ATOM     25  C   UNL     1      36.351 -26.294 -15.573  0.00  0.00    +0.089 C 
ENDBRANCH  17  25
ENDBRANCH  13  17
ENDBRANCH   1  14
BRANCH   1  26
ATOM     26  C   UNL     1      31.660 -24.187 -16.224  0.00  0.00    +0.029 C 
BRANCH  26  27
ATOM     27  C   UNL     1      30.440 -23.267 -16.256  0.00  0.00    +0.002 C 
ATOM     28  C   UNL     1      29.263 -23.955 -16.962  0.00  0.00    +0.000 C 
ATOM     29  C   UNL     1      30.049 -22.836 -14.836  0.00  0.00    +0.000 C 
ATOM     30  C   UNL     1      28.014 -23.074 -16.961  0.00  0.00    +0.000 C 
ATOM     31  C   UNL     1      28.799 -21.959 -14.839  0.00  0.00    +0.000 C 
ATOM     32  C   UNL     1      27.634 -22.640 -15.549  0.00  0.00    +0.000 C 
ENDBRANCH  26  27
ENDBRANCH   1  26
TORSDOF 6
ENDMDL
