MODEL 1
REMARK VINA RESULT:      -7.9      0.000      0.000
REMARK  Name = 13712
REMARK  4 active torsions:
REMARK  status: ('A' for Active; 'I' for Inactive)
REMARK    1  A    between atoms: C3*_2  and  O3*_15
REMARK    2  A    between atoms: C1*_4  and  N1_8
REMARK    3  A    between atoms: C4*_5  and  C5*_17
REMARK    4  A    between atoms: C5*_17  and  O5*_18
REMARK                            x       y       z     vdW  Elec       q    Type
REMARK                         _______ _______ _______ _____ _____    ______ ____
ROOT
ATOM      1  O4* U   A   1      35.133 -17.118 -20.739  0.00  0.00    -0.335 OA
ATOM      2  C3* U   A   1      34.618 -16.506 -22.971  0.00  0.00    +0.144 C 
ATOM      3  C2* U   A   1      34.528 -18.011 -22.863  0.00  0.00    +0.083 C 
ATOM      4  C1* U   A   1      35.258 -18.290 -21.558  0.00  0.00    +0.202 C 
ATOM      5  C4* U   A   1      34.560 -16.052 -21.519  0.00  0.00    +0.173 C 
ENDROOT
BRANCH   4   8
ATOM      6  O2  U   A   1      36.817 -20.131 -20.097  0.00  0.00    -0.252 OA
ATOM      7  O4  U   A   1      33.108 -22.589 -18.896  0.00  0.00    -0.270 OA
ATOM      8  N1  U   A   1      34.725 -19.419 -20.854  0.00  0.00    -0.219 N 
ATOM      9  N3  U   A   1      34.969 -21.355 -19.500  0.00  0.00    -0.236 N 
ATOM     10  C2  U   A   1      35.596 -20.283 -20.152  0.00  0.00    +0.315 C 
ATOM     11  C6  U   A   1      33.357 -19.658 -20.865  0.00  0.00    +0.076 C 
ATOM     12  C5  U   A   1      32.775 -20.684 -20.239  0.00  0.00    +0.074 C 
ATOM     13  C4  U   A   1      33.612 -21.636 -19.481  0.00  0.00    +0.254 C 
ATOM     14  H3  U   A   1      35.555 -21.972 -19.004  0.00  0.00    +0.159 HD
ENDBRANCH   4   8
BRANCH   2  15
ATOM     15  O3* U   A   1      35.869 -16.139 -23.545  0.00  0.00    -0.382 OA
ATOM     16  H3* U   A   1      35.759 -15.996 -24.498  0.00  0.00    +0.210 HD
ENDBRANCH   2  15
BRANCH   5  17
ATOM     17  C5* U   A   1      33.137 -15.823 -21.025  0.00  0.00    +0.169 C 
BRANCH  17  18
ATOM     18  O5* U   A   1      32.502 -14.883 -21.876  0.00  0.00    -0.379 OA
ATOM     19  H5* U   A   1      31.994 -14.253 -21.340  0.00  0.00    +0.211 HD
ENDBRANCH  17  18
ENDBRANCH   5  17
TORSDOF 4
ENDMDL
MODEL 2
REMARK VINA RESULT:      -7.4      6.282      8.503
REMARK  Name = 13712
REMARK  4 active torsions:
REMARK  status: ('A' for Active; 'I' for Inactive)
REMARK    1  A    between atoms: C3*_2  and  O3*_15
REMARK    2  A    between atoms: C1*_4  and  N1_8
REMARK    3  A    between atoms: C4*_5  and  C5*_17
REMARK    4  A    between atoms: C5*_17  and  O5*_18
REMARK                            x       y       z     vdW  Elec       q    Type
REMARK                         _______ _______ _______ _____ _____    ______ ____
ROOT
ATOM      1  O4* U   A   1      35.222 -24.763 -14.852  0.00  0.00    -0.335 OA
ATOM      2  C3* U   A   1      37.020 -23.250 -14.537  0.00  0.00    +0.144 C 
ATOM      3  C2* U   A   1      36.045 -22.627 -15.510  0.00  0.00    +0.083 C 
ATOM      4  C1* U   A   1      35.197 -23.817 -15.931  0.00  0.00    +0.202 C 
ATOM      5  C4* U   A   1      36.195 -24.345 -13.876  0.00  0.00    +0.173 C 
ENDROOT
BRANCH   4   8
ATOM      6  O2  U   A   1      34.236 -23.128 -18.493  0.00  0.00    -0.252 OA
ATOM      7  O4  U   A   1      29.963 -22.454 -16.903  0.00  0.00    -0.270 OA
ATOM      8  N1  U   A   1      33.838 -23.458 -16.214  0.00  0.00    -0.219 N 
ATOM      9  N3  U   A   1      32.109 -22.792 -17.700  0.00  0.00    -0.236 N 
ATOM     10  C2  U   A   1      33.460 -23.128 -17.536  0.00  0.00    +0.315 C 
ATOM     11  C6  U   A   1      32.901 -23.437 -15.190  0.00  0.00    +0.076 C 
ATOM     12  C5  U   A   1      31.616 -23.114 -15.362  0.00  0.00    +0.074 C 
ATOM     13  C4  U   A   1      31.136 -22.756 -16.712  0.00  0.00    +0.254 C 
ATOM     14  H3  U   A   1      31.821 -22.557 -18.611  0.00  0.00    +0.159 HD
ENDBRANCH   4   8
BRANCH   2  15
ATOM     15  O3* U   A   1      38.110 -23.827 -15.251  0.00  0.00    -0.382 OA
ATOM     16  H3* U   A   1      38.928 -23.709 -14.743  0.00  0.00    +0.210 HD
ENDBRANCH   2  15
BRANCH   5  17
ATOM     17  C5* U   A   1      35.442 -23.859 -12.644  0.00  0.00    +0.169 C 
BRANCH  17  18
ATOM     18  O5* U   A   1      34.720 -24.946 -12.089  0.00  0.00    -0.379 OA
ATOM     19  H5* U   A   1      33.818 -24.660 -11.876  0.00  0.00    +0.211 HD
ENDBRANCH  17  18
ENDBRANCH   5  17
TORSDOF 4
ENDMDL
MODEL 3
REMARK VINA RESULT:      -7.3      6.420      9.672
REMARK  Name = 13712
REMARK  4 active torsions:
REMARK  status: ('A' for Active; 'I' for Inactive)
REMARK    1  A    between atoms: C3*_2  and  O3*_15
REMARK    2  A    between atoms: C1*_4  and  N1_8
REMARK    3  A    between atoms: C4*_5  and  C5*_17
REMARK    4  A    between atoms: C5*_17  and  O5*_18
REMARK                            x       y       z     vdW  Elec       q    Type
REMARK                         _______ _______ _______ _____ _____    ______ ____
ROOT
ATOM      1  O4* U   A   1      38.025 -24.234 -14.346  0.00  0.00    -0.335 OA
ATOM      2  C3* U   A   1      37.712 -24.040 -12.004  0.00  0.00    +0.144 C 
ATOM      3  C2* U   A   1      36.626 -23.244 -12.692  0.00  0.00    +0.083 C 
ATOM      4  C1* U   A   1      37.165 -23.110 -14.107  0.00  0.00    +0.202 C 
ATOM      5  C4* U   A   1      38.229 -24.947 -13.112  0.00  0.00    +0.173 C 
ENDROOT
BRANCH   4   8
ATOM      6  O2  U   A   1      37.435 -21.957 -16.668  0.00  0.00    -0.252 OA
ATOM      7  O4  U   A   1      33.118 -23.081 -17.825  0.00  0.00    -0.270 OA
ATOM      8  N1  U   A   1      36.128 -23.088 -15.097  0.00  0.00    -0.219 N 
ATOM      9  N3  U   A   1      35.285 -22.517 -17.243  0.00  0.00    -0.236 N 
ATOM     10  C2  U   A   1      36.367 -22.482 -16.352  0.00  0.00    +0.315 C 
ATOM     11  C6  U   A   1      34.894 -23.662 -14.818  0.00  0.00    +0.076 C 
ATOM     12  C5  U   A   1      33.873 -23.687 -15.678  0.00  0.00    +0.074 C 
ATOM     13  C4  U   A   1      34.037 -23.075 -17.012  0.00  0.00    +0.254 C 
ATOM     14  H3  U   A   1      35.426 -22.100 -18.123  0.00  0.00    +0.159 HD
ENDBRANCH   4   8
BRANCH   2  15
ATOM     15  O3* U   A   1      38.749 -23.164 -11.571  0.00  0.00    -0.382 OA
ATOM     16  H3* U   A   1      38.980 -23.366 -10.650  0.00  0.00    +0.210 HD
ENDBRANCH   2  15
BRANCH   5  17
ATOM     17  C5* U   A   1      37.470 -26.265 -13.203  0.00  0.00    +0.169 C 
BRANCH  17  18
ATOM     18  O5* U   A   1      36.863 -26.531 -11.949  0.00  0.00    -0.379 OA
ATOM     19  H5* U   A   1      35.899 -26.556 -12.056  0.00  0.00    +0.211 HD
ENDBRANCH  17  18
ENDBRANCH   5  17
TORSDOF 4
ENDMDL
MODEL 4
REMARK VINA RESULT:      -7.1      6.362      9.899
REMARK  Name = 13712
REMARK  4 active torsions:
REMARK  status: ('A' for Active; 'I' for Inactive)
REMARK    1  A    between atoms: C3*_2  and  O3*_15
REMARK    2  A    between atoms: C1*_4  and  N1_8
REMARK    3  A    between atoms: C4*_5  and  C5*_17
REMARK    4  A    between atoms: C5*_17  and  O5*_18
REMARK                            x       y       z     vdW  Elec       q    Type
REMARK                         _______ _______ _______ _____ _____    ______ ____
ROOT
ATOM      1  O4* U   A   1      38.037 -23.886 -13.691  0.00  0.00    -0.335 OA
ATOM      2  C3* U   A   1      37.587 -26.177 -13.280  0.00  0.00    +0.144 C 
ATOM      3  C2* U   A   1      36.537 -25.654 -14.233  0.00  0.00    +0.083 C 
ATOM      4  C1* U   A   1      36.683 -24.147 -14.088  0.00  0.00    +0.202 C 
ATOM      5  C4* U   A   1      38.688 -25.130 -13.372  0.00  0.00    +0.173 C 
ENDROOT
BRANCH   4   8
ATOM      6  O2  U   A   1      34.142 -24.035 -15.309  0.00  0.00    -0.252 OA
ATOM      7  O4  U   A   1      35.718 -21.413 -18.756  0.00  0.00    -0.270 OA
ATOM      8  N1  U   A   1      36.402 -23.442 -15.304  0.00  0.00    -0.219 N 
ATOM      9  N3  U   A   1      34.929 -22.730 -17.025  0.00  0.00    -0.236 N 
ATOM     10  C2  U   A   1      35.091 -23.450 -15.834  0.00  0.00    +0.315 C 
ATOM     11  C6  U   A   1      37.418 -22.755 -15.956  0.00  0.00    +0.076 C 
ATOM     12  C5  U   A   1      37.247 -22.073 -17.091  0.00  0.00    +0.074 C 
ATOM     13  C4  U   A   1      35.908 -22.029 -17.713  0.00  0.00    +0.254 C 
ATOM     14  H3  U   A   1      34.025 -22.720 -17.415  0.00  0.00    +0.159 HD
ENDBRANCH   4   8
BRANCH   2  15
ATOM     15  O3* U   A   1      37.060 -26.211 -11.956  0.00  0.00    -0.382 OA
ATOM     16  H3* U   A   1      37.783 -26.115 -11.317  0.00  0.00    +0.210 HD
ENDBRANCH   2  15
BRANCH   5  17
ATOM     17  C5* U   A   1      39.697 -25.426 -14.475  0.00  0.00    +0.169 C 
BRANCH  17  18
ATOM     18  O5* U   A   1      40.900 -24.730 -14.195  0.00  0.00    -0.379 OA
ATOM     19  H5* U   A   1      41.095 -24.789 -13.246  0.00  0.00    +0.211 HD
ENDBRANCH  17  18
ENDBRANCH   5  17
TORSDOF 4
ENDMDL
MODEL 5
REMARK VINA RESULT:      -7.1      6.761      9.235
REMARK  Name = 13712
REMARK  4 active torsions:
REMARK  status: ('A' for Active; 'I' for Inactive)
REMARK    1  A    between atoms: C3*_2  and  O3*_15
REMARK    2  A    between atoms: C1*_4  and  N1_8
REMARK    3  A    between atoms: C4*_5  and  C5*_17
REMARK    4  A    between atoms: C5*_17  and  O5*_18
REMARK                            x       y       z     vdW  Elec       q    Type
REMARK                         _______ _______ _______ _____ _____    ______ ____
ROOT
ATOM      1  O4* U   A   1      36.411 -24.468 -15.739  0.00  0.00    -0.335 OA
ATOM      2  C3* U   A   1      37.223 -24.749 -13.530  0.00  0.00    +0.144 C 
ATOM      3  C2* U   A   1      35.886 -24.049 -13.454  0.00  0.00    +0.083 C 
ATOM      4  C1* U   A   1      35.683 -23.573 -14.884  0.00  0.00    +0.202 C 
ATOM      5  C4* U   A   1      37.224 -25.340 -14.932  0.00  0.00    +0.173 C 
ENDROOT
BRANCH   4   8
ATOM      6  O2  U   A   1      34.770 -22.890 -17.465  0.00  0.00    -0.252 OA
ATOM      7  O4  U   A   1      30.367 -23.554 -16.276  0.00  0.00    -0.270 OA
ATOM      8  N1  U   A   1      34.304 -23.560 -15.276  0.00  0.00    -0.219 N 
ATOM      9  N3  U   A   1      32.578 -23.221 -16.871  0.00  0.00    -0.236 N 
ATOM     10  C2  U   A   1      33.953 -23.201 -16.597  0.00  0.00    +0.315 C 
ATOM     11  C6  U   A   1      33.321 -23.900 -14.356  0.00  0.00    +0.076 C 
ATOM     12  C5  U   A   1      32.015 -23.915 -14.632  0.00  0.00    +0.074 C 
ATOM     13  C4  U   A   1      31.560 -23.552 -15.990  0.00  0.00    +0.254 C 
ATOM     14  H3  U   A   1      32.307 -22.973 -17.785  0.00  0.00    +0.159 HD
ENDBRANCH   4   8
BRANCH   2  15
ATOM     15  O3* U   A   1      38.274 -23.795 -13.405  0.00  0.00    -0.382 OA
ATOM     16  H3* U   A   1      38.041 -22.991 -13.895  0.00  0.00    +0.210 HD
ENDBRANCH   2  15
BRANCH   5  17
ATOM     17  C5* U   A   1      36.612 -26.735 -14.989  0.00  0.00    +0.169 C 
BRANCH  17  18
ATOM     18  O5* U   A   1      36.833 -27.280 -16.279  0.00  0.00    -0.379 OA
ATOM     19  H5* U   A   1      37.633 -26.889 -16.663  0.00  0.00    +0.211 HD
ENDBRANCH  17  18
ENDBRANCH   5  17
TORSDOF 4
ENDMDL
MODEL 6
REMARK VINA RESULT:      -7.0      8.566     10.444
REMARK  Name = 13712
REMARK  4 active torsions:
REMARK  status: ('A' for Active; 'I' for Inactive)
REMARK    1  A    between atoms: C3*_2  and  O3*_15
REMARK    2  A    between atoms: C1*_4  and  N1_8
REMARK    3  A    between atoms: C4*_5  and  C5*_17
REMARK    4  A    between atoms: C5*_17  and  O5*_18
REMARK                            x       y       z     vdW  Elec       q    Type
REMARK                         _______ _______ _______ _____ _____    ______ ____
ROOT
ATOM      1  O4* U   A   1      36.171 -23.269 -12.702  0.00  0.00    -0.335 OA
ATOM      2  C3* U   A   1      34.037 -24.201 -13.149  0.00  0.00    +0.144 C 
ATOM      3  C2* U   A   1      34.979 -24.632 -14.250  0.00  0.00    +0.083 C 
ATOM      4  C1* U   A   1      36.144 -23.669 -14.080  0.00  0.00    +0.202 C 
ATOM      5  C4* U   A   1      34.981 -23.746 -12.045  0.00  0.00    +0.173 C 
ENDROOT
BRANCH   4   8
ATOM      6  O2  U   A   1      37.838 -22.703 -16.119  0.00  0.00    -0.252 OA
ATOM      7  O4  U   A   1      40.961 -26.000 -15.331  0.00  0.00    -0.270 OA
ATOM      8  N1  U   A   1      37.405 -24.256 -14.428  0.00  0.00    -0.219 N 
ATOM      9  N3  U   A   1      39.392 -24.346 -15.726  0.00  0.00    -0.236 N 
ATOM     10  C2  U   A   1      38.178 -23.693 -15.469  0.00  0.00    +0.315 C 
ATOM     11  C6  U   A   1      37.861 -25.373 -13.740  0.00  0.00    +0.076 C 
ATOM     12  C5  U   A   1      39.020 -25.984 -13.997  0.00  0.00    +0.074 C 
ATOM     13  C4  U   A   1      39.890 -25.461 -15.070  0.00  0.00    +0.254 C 
ATOM     14  H3  U   A   1      39.948 -23.973 -16.447  0.00  0.00    +0.159 HD
ENDBRANCH   4   8
BRANCH   2  15
ATOM     15  O3* U   A   1      33.247 -23.102 -13.595  0.00  0.00    -0.382 OA
ATOM     16  H3* U   A   1      33.251 -22.405 -12.921  0.00  0.00    +0.210 HD
ENDBRANCH   2  15
BRANCH   5  17
ATOM     17  C5* U   A   1      35.386 -24.877 -11.108  0.00  0.00    +0.169 C 
BRANCH  17  18
ATOM     18  O5* U   A   1      35.318 -24.410  -9.770  0.00  0.00    -0.379 OA
ATOM     19  H5* U   A   1      34.401 -24.464  -9.456  0.00  0.00    +0.211 HD
ENDBRANCH  17  18
ENDBRANCH   5  17
TORSDOF 4
ENDMDL
MODEL 7
REMARK VINA RESULT:      -7.0      7.073      9.108
REMARK  Name = 13712
REMARK  4 active torsions:
REMARK  status: ('A' for Active; 'I' for Inactive)
REMARK    1  A    between atoms: C3*_2  and  O3*_15
REMARK    2  A    between atoms: C1*_4  and  N1_8
REMARK    3  A    between atoms: C4*_5  and  C5*_17
REMARK    4  A    between atoms: C5*_17  and  O5*_18
REMARK                            x       y       z     vdW  Elec       q    Type
REMARK                         _______ _______ _______ _____ _____    ______ ____
ROOT
ATOM      1  O4* U   A   1      35.764 -23.350 -13.957  0.00  0.00    -0.335 OA
ATOM      2  C3* U   A   1      37.069 -25.242 -14.535  0.00  0.00    +0.144 C 
ATOM      3  C2* U   A   1      35.650 -25.490 -14.995  0.00  0.00    +0.083 C 
ATOM      4  C1* U   A   1      34.868 -24.438 -14.224  0.00  0.00    +0.202 C 
ATOM      5  C4* U   A   1      37.103 -23.736 -14.318  0.00  0.00    +0.173 C 
ENDROOT
BRANCH   4   8
ATOM      6  O2  U   A   1      32.291 -24.128 -13.119  0.00  0.00    -0.252 OA
ATOM      7  O4  U   A   1      30.579 -22.556 -17.099  0.00  0.00    -0.270 OA
ATOM      8  N1  U   A   1      33.731 -23.949 -14.949  0.00  0.00    -0.219 N 
ATOM      9  N3  U   A   1      31.439 -23.346 -15.102  0.00  0.00    -0.236 N 
ATOM     10  C2  U   A   1      32.481 -23.833 -14.300  0.00  0.00    +0.315 C 
ATOM     11  C6  U   A   1      33.864 -23.593 -16.285  0.00  0.00    +0.076 C 
ATOM     12  C5  U   A   1      32.862 -23.131 -17.036  0.00  0.00    +0.074 C 
ATOM     13  C4  U   A   1      31.521 -22.978 -16.436  0.00  0.00    +0.254 C 
ATOM     14  H3  U   A   1      30.558 -23.257 -14.672  0.00  0.00    +0.159 HD
ENDBRANCH   4   8
BRANCH   2  15
ATOM     15  O3* U   A   1      37.299 -25.915 -13.301  0.00  0.00    -0.382 OA
ATOM     16  H3* U   A   1      36.526 -25.809 -12.724  0.00  0.00    +0.210 HD
ENDBRANCH   2  15
BRANCH   5  17
ATOM     17  C5* U   A   1      37.489 -22.964 -15.574  0.00  0.00    +0.169 C 
BRANCH  17  18
ATOM     18  O5* U   A   1      38.744 -23.437 -16.035  0.00  0.00    -0.379 OA
ATOM     19  H5* U   A   1      38.624 -23.911 -16.872  0.00  0.00    +0.211 HD
ENDBRANCH  17  18
ENDBRANCH   5  17
TORSDOF 4
ENDMDL
MODEL 8
REMARK VINA RESULT:      -7.0      7.553     10.196
REMARK  Name = 13712
REMARK  4 active torsions:
REMARK  status: ('A' for Active; 'I' for Inactive)
REMARK    1  A    between atoms: C3*_2  and  O3*_15
REMARK    2  A    between atoms: C1*_4  and  N1_8
REMARK    3  A    between atoms: C4*_5  and  C5*_17
REMARK    4  A    between atoms: C5*_17  and  O5*_18
REMARK                            x       y       z     vdW  Elec       q    Type
REMARK                         _______ _______ _______ _____ _____    ______ ____
ROOT
ATOM      1  O4* U   A   1      34.991 -25.160 -15.106  0.00  0.00    -0.335 OA
ATOM      2  C3* U   A   1      33.687 -23.952 -13.538  0.00  0.00    +0.144 C 
ATOM      3  C2* U   A   1      35.021 -24.264 -12.900  0.00  0.00    +0.083 C 
ATOM      4  C1* U   A   1      35.572 -25.352 -13.808  0.00  0.00    +0.202 C 
ATOM      5  C4* U   A   1      33.956 -24.163 -15.021  0.00  0.00    +0.173 C 
ENDROOT
BRANCH   4   8
ATOM      6  O2  U   A   1      37.343 -26.544 -11.964  0.00  0.00    -0.252 OA
ATOM      7  O4  U   A   1      41.039 -25.134 -14.330  0.00  0.00    -0.270 OA
ATOM      8  N1  U   A   1      37.001 -25.312 -13.919  0.00  0.00    -0.219 N 
ATOM      9  N3  U   A   1      39.183 -25.841 -13.143  0.00  0.00    -0.236 N 
ATOM     10  C2  U   A   1      37.800 -25.942 -12.937  0.00  0.00    +0.315 C 
ATOM     11  C6  U   A   1      37.593 -24.655 -14.989  0.00  0.00    +0.076 C 
ATOM     12  C5  U   A   1      38.913 -24.567 -15.171  0.00  0.00    +0.074 C 
ATOM     13  C4  U   A   1      39.821 -25.198 -14.192  0.00  0.00    +0.254 C 
ATOM     14  H3  U   A   1      39.760 -26.272 -12.472  0.00  0.00    +0.159 HD
ENDBRANCH   4   8
BRANCH   2  15
ATOM     15  O3* U   A   1      32.708 -24.884 -13.085  0.00  0.00    -0.382 OA
ATOM     16  H3* U   A   1      33.115 -25.503 -12.459  0.00  0.00    +0.210 HD
ENDBRANCH   2  15
BRANCH   5  17
ATOM     17  C5* U   A   1      34.460 -22.904 -15.717  0.00  0.00    +0.169 C 
BRANCH  17  18
ATOM     18  O5* U   A   1      35.003 -23.264 -16.977  0.00  0.00    -0.379 OA
ATOM     19  H5* U   A   1      35.714 -23.911 -16.850  0.00  0.00    +0.211 HD
ENDBRANCH  17  18
ENDBRANCH   5  17
TORSDOF 4
ENDMDL
MODEL 9
REMARK VINA RESULT:      -7.0      2.535      5.667
REMARK  Name = 13712
REMARK  4 active torsions:
REMARK  status: ('A' for Active; 'I' for Inactive)
REMARK    1  A    between atoms: C3*_2  and  O3*_15
REMARK    2  A    between atoms: C1*_4  and  N1_8
REMARK    3  A    between atoms: C4*_5  and  C5*_17
REMARK    4  A    between atoms: C5*_17  and  O5*_18
REMARK                            x       y       z     vdW  Elec       q    Type
REMARK                         _______ _______ _______ _____ _____    ______ ____
ROOT
ATOM      1  O4* U   A   1      34.398 -19.305 -22.789  0.00  0.00    -0.335 OA
ATOM      2  C3* U   A   1      35.468 -19.198 -20.676  0.00  0.00    +0.144 C 
ATOM      3  C2* U   A   1      35.630 -17.857 -21.355  0.00  0.00    +0.083 C 
ATOM      4  C1* U   A   1      35.286 -18.177 -22.801  0.00  0.00    +0.202 C 
ATOM      5  C4* U   A   1      34.330 -19.843 -21.455  0.00  0.00    +0.173 C 
ENDROOT
BRANCH   4   8
ATOM      6  O2  U   A   1      34.732 -18.124 -25.567  0.00  0.00    -0.252 OA
ATOM      7  O4  U   A   1      32.855 -13.923 -25.290  0.00  0.00    -0.270 OA
ATOM      8  N1  U   A   1      34.653 -17.083 -23.477  0.00  0.00    -0.219 N 
ATOM      9  N3  U   A   1      33.798 -16.032 -25.428  0.00  0.00    -0.236 N 
ATOM     10  C2  U   A   1      34.422 -17.157 -24.869  0.00  0.00    +0.315 C 
ATOM     11  C6  U   A   1      34.270 -15.957 -22.760  0.00  0.00    +0.076 C 
ATOM     12  C5  U   A   1      33.677 -14.892 -23.307  0.00  0.00    +0.074 C 
ATOM     13  C4  U   A   1      33.398 -14.886 -24.757  0.00  0.00    +0.254 C 
ATOM     14  H3  U   A   1      33.627 -16.059 -26.397  0.00  0.00    +0.159 HD
ENDBRANCH   4   8
BRANCH   2  15
ATOM     15  O3* U   A   1      36.659 -19.964 -20.834  0.00  0.00    -0.382 OA
ATOM     16  H3* U   A   1      36.658 -20.699 -20.201  0.00  0.00    +0.210 HD
ENDBRANCH   2  15
BRANCH   5  17
ATOM     17  C5* U   A   1      32.957 -19.510 -20.885  0.00  0.00    +0.169 C 
BRANCH  17  18
ATOM     18  O5* U   A   1      32.633 -20.463 -19.886  0.00  0.00    -0.379 OA
ATOM     19  H5* U   A   1      31.855 -20.971 -20.164  0.00  0.00    +0.211 HD
ENDBRANCH  17  18
ENDBRANCH   5  17
TORSDOF 4
ENDMDL
