MODEL 1
REMARK VINA RESULT:     -10.2      0.000      0.000
REMARK  Name = 62977
REMARK  8 active torsions:
REMARK  status: ('A' for Active; 'I' for Inactive)
REMARK    1  A    between atoms: N_2  and  CA_9
REMARK    2  A    between atoms: C_3  and  CA_21
REMARK    3  A    between atoms: CA_11  and  C_18
REMARK    4  A    between atoms: C_13  and  C_14
REMARK    5  A    between atoms: C_18  and  O_19
REMARK    6  A    between atoms: CA_21  and  C_22
REMARK    7  A    between atoms: CA_21  and  N_30
REMARK    8  A    between atoms: C_27  and  O_28
REMARK                            x       y       z     vdW  Elec       q    Type
REMARK                         _______ _______ _______ _____ _____    ______ ____
ROOT
ATOM      1  O   UNL     1      36.803 -20.413 -20.400  0.00  0.00    -0.277 OA
ATOM      2  N   UNL     1      34.959 -19.080 -20.845  0.00  0.00    -0.298 N 
ATOM      3  C   UNL     1      35.583 -20.254 -20.417  0.00  0.00    +0.206 C 
ATOM      4  H   UNL     1      33.976 -19.036 -20.826  0.00  0.00    +0.150 HD
ENDROOT
BRANCH   2   9
ATOM      5  S   UNL     1      34.672 -18.663 -23.870  0.00  0.00    -0.114 S 
ATOM      6  O   UNL     1      34.623 -15.922 -20.114  0.00  0.00    -0.273 OA
ATOM      7  N   UNL     1      34.764 -16.448 -22.410  0.00  0.00    -0.242 N 
ATOM      8  C   UNL     1      35.623 -17.546 -22.817  0.00  0.00    +0.155 C 
ATOM      9  CA  UNL     1      35.702 -17.914 -21.320  0.00  0.00    +0.178 C 
ATOM     10  C   UNL     1      34.963 -16.567 -21.079  0.00  0.00    +0.251 C 
ATOM     11  CA  UNL     1      34.071 -15.667 -23.280  0.00  0.00    +0.128 C 
ATOM     12  C   UNL     1      34.361 -17.382 -25.134  0.00  0.00    +0.087 C 
ATOM     13  C   UNL     1      33.894 -16.041 -24.571  0.00  0.00    +0.009 C 
BRANCH  13  14
ATOM     14  C   UNL     1      33.226 -15.236 -25.576  0.00  0.00    -0.007 C 
ATOM     15  C   UNL     1      33.847 -14.287 -26.272  0.00  0.00    -0.026 C 
ATOM     16  C   UNL     1      33.163 -13.453 -27.304  0.00  0.00    +0.031 C 
ENDBRANCH  13  14
BRANCH  11  18
ATOM     17  OXT UNL     1      32.392 -14.356 -22.226  0.00  0.00    -0.244 OA
ATOM     18  C   UNL     1      33.491 -14.428 -22.732  0.00  0.00    +0.352 C 
BRANCH  18  19
ATOM     19  O   UNL     1      34.371 -13.421 -22.887  0.00  0.00    -0.476 OA
ATOM     20  H   UNL     1      35.265 -13.606 -23.099  0.00  0.00    +0.295 HD
ENDBRANCH  18  19
ENDBRANCH  11  18
ENDBRANCH   2   9
BRANCH   3  21
ATOM     21  CA  UNL     1      34.595 -21.333 -19.991  0.00  0.00    +0.036 C 
BRANCH  21  22
ATOM     22  C   UNL     1      34.967 -21.905 -18.639  0.00  0.00    -0.034 C 
ATOM     23  C   UNL     1      36.241 -21.689 -18.144  0.00  0.00    -0.003 C 
ATOM     24  C   UNL     1      34.025 -22.628 -17.930  0.00  0.00    -0.003 C 
ATOM     25  C   UNL     1      36.583 -22.216 -16.899  0.00  0.00    +0.036 C 
ATOM     26  C   UNL     1      34.368 -23.155 -16.686  0.00  0.00    +0.036 C 
ATOM     27  C   UNL     1      35.647 -22.949 -16.169  0.00  0.00    +0.134 C 
BRANCH  27  28
ATOM     28  O   UNL     1      35.983 -23.463 -14.955  0.00  0.00    -0.506 OA
ATOM     29  H   UNL     1      35.543 -24.223 -14.628  0.00  0.00    +0.292 HD
ENDBRANCH  27  28
ENDBRANCH  21  22
BRANCH  21  30
ATOM     30  N   UNL     1      33.255 -20.739 -19.996  0.00  0.00    +0.390 N 
ATOM     31  H1  UNL     1      33.057 -20.353 -20.919  0.00  0.00    -0.088 HD
ATOM     32  H2  UNL     1      33.210 -19.995 -19.300  0.00  0.00    -0.088 HD
ATOM     33  H3  UNL     1      32.565 -21.456 -19.771  0.00  0.00    -0.088 HD
ENDBRANCH  21  30
ENDBRANCH   3  21
TORSDOF 8
ENDMDL
MODEL 2
REMARK VINA RESULT:     -10.0      5.748     11.282
REMARK  Name = 62977
REMARK  8 active torsions:
REMARK  status: ('A' for Active; 'I' for Inactive)
REMARK    1  A    between atoms: N_2  and  CA_9
REMARK    2  A    between atoms: C_3  and  CA_21
REMARK    3  A    between atoms: CA_11  and  C_18
REMARK    4  A    between atoms: C_13  and  C_14
REMARK    5  A    between atoms: C_18  and  O_19
REMARK    6  A    between atoms: CA_21  and  C_22
REMARK    7  A    between atoms: CA_21  and  N_30
REMARK    8  A    between atoms: C_27  and  O_28
REMARK                            x       y       z     vdW  Elec       q    Type
REMARK                         _______ _______ _______ _____ _____    ______ ____
ROOT
ATOM      1  O   UNL     1      31.277  -9.384 -20.123  0.00  0.00    -0.277 OA
ATOM      2  N   UNL     1      32.367 -10.190 -22.004  0.00  0.00    -0.298 N 
ATOM      3  C   UNL     1      32.115  -9.240 -21.012  0.00  0.00    +0.206 C 
ATOM      4  H   UNL     1      33.056  -9.994 -22.679  0.00  0.00    +0.150 HD
ENDROOT
BRANCH   2   9
ATOM      5  S   UNL     1      33.539 -12.059 -24.135  0.00  0.00    -0.114 S 
ATOM      6  O   UNL     1      31.989 -12.538 -19.777  0.00  0.00    -0.273 OA
ATOM      7  N   UNL     1      32.665 -13.243 -21.925  0.00  0.00    -0.242 N 
ATOM      8  C   UNL     1      32.150 -12.530 -23.081  0.00  0.00    +0.155 C 
ATOM      9  CA  UNL     1      31.653 -11.463 -22.083  0.00  0.00    +0.178 C 
ATOM     10  C   UNL     1      32.071 -12.479 -20.981  0.00  0.00    +0.251 C 
ATOM     11  CA  UNL     1      33.477 -14.330 -22.006  0.00  0.00    +0.128 C 
ATOM     12  C   UNL     1      34.046 -13.790 -24.424  0.00  0.00    +0.087 C 
ATOM     13  C   UNL     1      34.109 -14.648 -23.162  0.00  0.00    +0.009 C 
BRANCH  13  14
ATOM     14  C   UNL     1      34.937 -15.824 -23.349  0.00  0.00    -0.007 C 
ATOM     15  C   UNL     1      34.446 -17.001 -23.728  0.00  0.00    -0.026 C 
ATOM     16  C   UNL     1      35.294 -18.216 -23.918  0.00  0.00    +0.031 C 
ENDBRANCH  13  14
BRANCH  11  18
ATOM     17  OXT UNL     1      34.718 -15.195 -20.172  0.00  0.00    -0.244 OA
ATOM     18  C   UNL     1      33.664 -15.103 -20.766  0.00  0.00    +0.352 C 
BRANCH  18  19
ATOM     19  O   UNL     1      32.495 -15.673 -20.418  0.00  0.00    -0.476 OA
ATOM     20  H   UNL     1      32.307 -15.849 -19.518  0.00  0.00    +0.295 HD
ENDBRANCH  18  19
ENDBRANCH  11  18
ENDBRANCH   2   9
BRANCH   3  21
ATOM     21  CA  UNL     1      32.971  -7.987 -21.156  0.00  0.00    +0.036 C 
BRANCH  21  22
ATOM     22  C   UNL     1      32.310  -6.983 -22.076  0.00  0.00    -0.034 C 
ATOM     23  C   UNL     1      31.450  -6.041 -21.540  0.00  0.00    -0.003 C 
ATOM     24  C   UNL     1      32.583  -7.028 -23.432  0.00  0.00    -0.003 C 
ATOM     25  C   UNL     1      30.842  -5.116 -22.388  0.00  0.00    +0.036 C 
ATOM     26  C   UNL     1      31.975  -6.103 -24.279  0.00  0.00    +0.036 C 
ATOM     27  C   UNL     1      31.104  -5.147 -23.758  0.00  0.00    +0.134 C 
BRANCH  27  28
ATOM     28  O   UNL     1      30.509  -4.244 -24.584  0.00  0.00    -0.506 OA
ATOM     29  H   UNL     1      29.601  -4.038 -24.479  0.00  0.00    +0.292 HD
ENDBRANCH  27  28
ENDBRANCH  21  22
BRANCH  21  30
ATOM     30  N   UNL     1      33.203  -7.447 -19.814  0.00  0.00    +0.390 N 
ATOM     31  H1  UNL     1      32.323  -7.429 -19.298  0.00  0.00    -0.088 HD
ATOM     32  H2  UNL     1      33.572  -6.499 -19.887  0.00  0.00    -0.088 HD
ATOM     33  H3  UNL     1      33.874  -8.036 -19.321  0.00  0.00    -0.088 HD
ENDBRANCH  21  30
ENDBRANCH   3  21
TORSDOF 8
ENDMDL
MODEL 3
REMARK VINA RESULT:      -9.1      5.240      8.537
REMARK  Name = 62977
REMARK  8 active torsions:
REMARK  status: ('A' for Active; 'I' for Inactive)
REMARK    1  A    between atoms: N_2  and  CA_9
REMARK    2  A    between atoms: C_3  and  CA_21
REMARK    3  A    between atoms: CA_11  and  C_18
REMARK    4  A    between atoms: C_13  and  C_14
REMARK    5  A    between atoms: C_18  and  O_19
REMARK    6  A    between atoms: CA_21  and  C_22
REMARK    7  A    between atoms: CA_21  and  N_30
REMARK    8  A    between atoms: C_27  and  O_28
REMARK                            x       y       z     vdW  Elec       q    Type
REMARK                         _______ _______ _______ _____ _____    ______ ____
ROOT
ATOM      1  O   UNL     1      32.264 -25.513 -13.800  0.00  0.00    -0.277 OA
ATOM      2  N   UNL     1      32.878 -23.636 -15.015  0.00  0.00    -0.298 N 
ATOM      3  C   UNL     1      32.044 -24.357 -14.158  0.00  0.00    +0.206 C 
ATOM      4  H   UNL     1      32.627 -22.714 -15.251  0.00  0.00    +0.150 HD
ENDROOT
BRANCH   2   9
ATOM      5  S   UNL     1      33.212 -22.973 -17.991  0.00  0.00    -0.114 S 
ATOM      6  O   UNL     1      35.994 -23.042 -14.266  0.00  0.00    -0.273 OA
ATOM      7  N   UNL     1      35.448 -22.985 -16.561  0.00  0.00    -0.242 N 
ATOM      8  C   UNL     1      34.442 -23.907 -17.056  0.00  0.00    +0.155 C 
ATOM      9  CA  UNL     1      34.109 -24.191 -15.576  0.00  0.00    +0.178 C 
ATOM     10  C   UNL     1      35.374 -23.341 -15.259  0.00  0.00    +0.251 C 
ATOM     11  CA  UNL     1      36.136 -22.119 -17.352  0.00  0.00    +0.128 C 
ATOM     12  C   UNL     1      34.431 -22.387 -19.218  0.00  0.00    +0.087 C 
ATOM     13  C   UNL     1      35.723 -21.842 -18.613  0.00  0.00    +0.009 C 
BRANCH  13  14
ATOM     14  C   UNL     1      36.435 -20.984 -19.540  0.00  0.00    -0.007 C 
ATOM     15  C   UNL     1      35.822 -20.099 -20.323  0.00  0.00    -0.026 C 
ATOM     16  C   UNL     1      36.551 -19.216 -21.283  0.00  0.00    +0.031 C 
ENDBRANCH  13  14
BRANCH  11  18
ATOM     17  OXT UNL     1      37.564 -20.290 -16.837  0.00  0.00    -0.244 OA
ATOM     18  C   UNL     1      37.314 -21.473 -16.747  0.00  0.00    +0.352 C 
BRANCH  18  19
ATOM     19  O   UNL     1      38.043 -22.400 -16.097  0.00  0.00    -0.476 OA
ATOM     20  H   UNL     1      37.999 -22.462 -15.164  0.00  0.00    +0.295 HD
ENDBRANCH  18  19
ENDBRANCH  11  18
ENDBRANCH   2   9
BRANCH   3  21
ATOM     21  CA  UNL     1      30.812 -23.570 -13.727  0.00  0.00    +0.036 C 
BRANCH  21  22
ATOM     22  C   UNL     1      29.822 -23.448 -14.866  0.00  0.00    -0.034 C 
ATOM     23  C   UNL     1      29.557 -24.555 -15.651  0.00  0.00    -0.003 C 
ATOM     24  C   UNL     1      29.203 -22.232 -15.094  0.00  0.00    -0.003 C 
ATOM     25  C   UNL     1      28.645 -24.442 -16.700  0.00  0.00    +0.036 C 
ATOM     26  C   UNL     1      28.291 -22.119 -16.142  0.00  0.00    +0.036 C 
ATOM     27  C   UNL     1      28.012 -23.224 -16.946  0.00  0.00    +0.134 C 
BRANCH  27  28
ATOM     28  O   UNL     1      27.122 -23.115 -17.970  0.00  0.00    -0.506 OA
ATOM     29  H   UNL     1      26.821 -23.882 -18.414  0.00  0.00    +0.292 HD
ENDBRANCH  27  28
ENDBRANCH  21  22
BRANCH  21  30
ATOM     30  N   UNL     1      30.238 -24.244 -12.558  0.00  0.00    +0.390 N 
ATOM     31  H1  UNL     1      29.425 -24.789 -12.845  0.00  0.00    -0.088 HD
ATOM     32  H2  UNL     1      29.953 -23.547 -11.870  0.00  0.00    -0.088 HD
ATOM     33  H3  UNL     1      30.936 -24.863 -12.147  0.00  0.00    -0.088 HD
ENDBRANCH  21  30
ENDBRANCH   3  21
TORSDOF 8
ENDMDL
MODEL 4
REMARK VINA RESULT:      -9.0      3.222      4.969
REMARK  Name = 62977
REMARK  8 active torsions:
REMARK  status: ('A' for Active; 'I' for Inactive)
REMARK    1  A    between atoms: N_2  and  CA_9
REMARK    2  A    between atoms: C_3  and  CA_21
REMARK    3  A    between atoms: CA_11  and  C_18
REMARK    4  A    between atoms: C_13  and  C_14
REMARK    5  A    between atoms: C_18  and  O_19
REMARK    6  A    between atoms: CA_21  and  C_22
REMARK    7  A    between atoms: CA_21  and  N_30
REMARK    8  A    between atoms: C_27  and  O_28
REMARK                            x       y       z     vdW  Elec       q    Type
REMARK                         _______ _______ _______ _____ _____    ______ ____
ROOT
ATOM      1  O   UNL     1      34.465 -17.923 -23.978  0.00  0.00    -0.277 OA
ATOM      2  N   UNL     1      33.999 -16.104 -22.616  0.00  0.00    -0.298 N 
ATOM      3  C   UNL     1      34.623 -17.316 -22.919  0.00  0.00    +0.206 C 
ATOM      4  H   UNL     1      34.182 -15.685 -21.745  0.00  0.00    +0.150 HD
ENDROOT
BRANCH   2   9
ATOM      5  S   UNL     1      32.547 -13.740 -21.308  0.00  0.00    -0.114 S 
ATOM      6  O   UNL     1      34.600 -14.529 -25.405  0.00  0.00    -0.273 OA
ATOM      7  N   UNL     1      33.222 -13.405 -23.853  0.00  0.00    -0.242 N 
ATOM      8  C   UNL     1      32.311 -14.191 -23.040  0.00  0.00    +0.155 C 
ATOM      9  CA  UNL     1      33.086 -15.430 -23.539  0.00  0.00    +0.178 C 
ATOM     10  C   UNL     1      33.799 -14.440 -24.504  0.00  0.00    +0.251 C 
ATOM     11  CA  UNL     1      33.295 -12.049 -23.812  0.00  0.00    +0.128 C 
ATOM     12  C   UNL     1      32.070 -11.999 -21.585  0.00  0.00    +0.087 C 
ATOM     13  C   UNL     1      32.736 -11.348 -22.795  0.00  0.00    +0.009 C 
BRANCH  13  14
ATOM     14  C   UNL     1      32.712  -9.900 -22.711  0.00  0.00    -0.007 C 
ATOM     15  C   UNL     1      32.218  -9.244 -21.664  0.00  0.00    -0.026 C 
ATOM     16  C   UNL     1      32.188  -7.753 -21.575  0.00  0.00    +0.031 C 
ENDBRANCH  13  14
BRANCH  11  18
ATOM     17  OXT UNL     1      33.750 -11.466 -26.071  0.00  0.00    -0.244 OA
ATOM     18  C   UNL     1      34.048 -11.398 -24.897  0.00  0.00    +0.352 C 
BRANCH  18  19
ATOM     19  O   UNL     1      35.097 -10.735 -24.374  0.00  0.00    -0.476 OA
ATOM     20  H   UNL     1      35.935 -10.777 -24.790  0.00  0.00    +0.295 HD
ENDBRANCH  18  19
ENDBRANCH  11  18
ENDBRANCH   2   9
BRANCH   3  21
ATOM     21  CA  UNL     1      35.509 -17.828 -21.789  0.00  0.00    +0.036 C 
BRANCH  21  22
ATOM     22  C   UNL     1      34.865 -19.005 -21.088  0.00  0.00    -0.034 C 
ATOM     23  C   UNL     1      33.489 -19.041 -20.956  0.00  0.00    -0.003 C 
ATOM     24  C   UNL     1      35.668 -20.020 -20.598  0.00  0.00    -0.003 C 
ATOM     25  C   UNL     1      32.896 -20.126 -20.310  0.00  0.00    +0.036 C 
ATOM     26  C   UNL     1      35.076 -21.104 -19.953  0.00  0.00    +0.036 C 
ATOM     27  C   UNL     1      33.690 -21.158 -19.808  0.00  0.00    +0.134 C 
BRANCH  27  28
ATOM     28  O   UNL     1      33.110 -22.216 -19.178  0.00  0.00    -0.506 OA
ATOM     29  H   UNL     1      33.433 -22.501 -18.346  0.00  0.00    +0.292 HD
ENDBRANCH  27  28
ENDBRANCH  21  22
BRANCH  21  30
ATOM     30  N   UNL     1      36.815 -18.165 -22.362  0.00  0.00    +0.390 N 
ATOM     31  H1  UNL     1      37.102 -19.087 -22.035  0.00  0.00    -0.088 HD
ATOM     32  H2  UNL     1      37.504 -17.472 -22.070  0.00  0.00    -0.088 HD
ATOM     33  H3  UNL     1      36.748 -18.170 -23.379  0.00  0.00    -0.088 HD
ENDBRANCH  21  30
ENDBRANCH   3  21
TORSDOF 8
ENDMDL
MODEL 5
REMARK VINA RESULT:      -9.0      3.274      4.899
REMARK  Name = 62977
REMARK  8 active torsions:
REMARK  status: ('A' for Active; 'I' for Inactive)
REMARK    1  A    between atoms: N_2  and  CA_9
REMARK    2  A    between atoms: C_3  and  CA_21
REMARK    3  A    between atoms: CA_11  and  C_18
REMARK    4  A    between atoms: C_13  and  C_14
REMARK    5  A    between atoms: C_18  and  O_19
REMARK    6  A    between atoms: CA_21  and  C_22
REMARK    7  A    between atoms: CA_21  and  N_30
REMARK    8  A    between atoms: C_27  and  O_28
REMARK                            x       y       z     vdW  Elec       q    Type
REMARK                         _______ _______ _______ _____ _____    ______ ____
ROOT
ATOM      1  O   UNL     1      34.401 -17.956 -24.086  0.00  0.00    -0.277 OA
ATOM      2  N   UNL     1      33.984 -16.096 -22.765  0.00  0.00    -0.298 N 
ATOM      3  C   UNL     1      34.587 -17.324 -23.047  0.00  0.00    +0.206 C 
ATOM      4  H   UNL     1      34.188 -15.657 -21.909  0.00  0.00    +0.150 HD
ENDROOT
BRANCH   2   9
ATOM      5  S   UNL     1      32.647 -13.632 -21.521  0.00  0.00    -0.114 S 
ATOM      6  O   UNL     1      34.543 -14.665 -25.639  0.00  0.00    -0.273 OA
ATOM      7  N   UNL     1      33.250 -13.432 -24.098  0.00  0.00    -0.242 N 
ATOM      8  C   UNL     1      32.342 -14.152 -23.223  0.00  0.00    +0.155 C 
ATOM      9  CA  UNL     1      33.063 -15.435 -23.689  0.00  0.00    +0.178 C 
ATOM     10  C   UNL     1      33.774 -14.512 -24.719  0.00  0.00    +0.251 C 
ATOM     11  CA  UNL     1      33.365 -12.077 -24.120  0.00  0.00    +0.128 C 
ATOM     12  C   UNL     1      32.215 -11.890 -21.861  0.00  0.00    +0.087 C 
ATOM     13  C   UNL     1      32.860 -11.315 -23.119  0.00  0.00    +0.009 C 
BRANCH  13  14
ATOM     14  C   UNL     1      32.883  -9.864 -23.100  0.00  0.00    -0.007 C 
ATOM     15  C   UNL     1      31.777  -9.124 -23.084  0.00  0.00    -0.026 C 
ATOM     16  C   UNL     1      31.796  -7.631 -23.069  0.00  0.00    +0.031 C 
ENDBRANCH  13  14
BRANCH  11  18
ATOM     17  OXT UNL     1      35.045 -10.744 -25.145  0.00  0.00    -0.244 OA
ATOM     18  C   UNL     1      34.103 -11.499 -25.257  0.00  0.00    +0.352 C 
BRANCH  18  19
ATOM     19  O   UNL     1      33.562 -11.943 -26.408  0.00  0.00    -0.476 OA
ATOM     20  H   UNL     1      32.632 -12.024 -26.489  0.00  0.00    +0.295 HD
ENDBRANCH  18  19
ENDBRANCH  11  18
ENDBRANCH   2   9
BRANCH   3  21
ATOM     21  CA  UNL     1      35.487 -17.817 -21.920  0.00  0.00    +0.036 C 
BRANCH  21  22
ATOM     22  C   UNL     1      34.849 -18.979 -21.187  0.00  0.00    -0.034 C 
ATOM     23  C   UNL     1      35.660 -19.952 -20.631  0.00  0.00    -0.003 C 
ATOM     24  C   UNL     1      33.471 -19.039 -21.089  0.00  0.00    -0.003 C 
ATOM     25  C   UNL     1      35.072 -21.022 -19.956  0.00  0.00    +0.036 C 
ATOM     26  C   UNL     1      32.883 -20.108 -20.414  0.00  0.00    +0.036 C 
ATOM     27  C   UNL     1      33.683 -21.100 -19.848  0.00  0.00    +0.134 C 
BRANCH  27  28
ATOM     28  O   UNL     1      33.111 -22.145 -19.190  0.00  0.00    -0.506 OA
ATOM     29  H   UNL     1      32.219 -22.091 -18.908  0.00  0.00    +0.292 HD
ENDBRANCH  27  28
ENDBRANCH  21  22
BRANCH  21  30
ATOM     30  N   UNL     1      36.784 -18.170 -22.504  0.00  0.00    +0.390 N 
ATOM     31  H1  UNL     1      36.717 -18.144 -23.522  0.00  0.00    -0.088 HD
ATOM     32  H2  UNL     1      37.048 -19.109 -22.206  0.00  0.00    -0.088 HD
ATOM     33  H3  UNL     1      37.490 -17.503 -22.193  0.00  0.00    -0.088 HD
ENDBRANCH  21  30
ENDBRANCH   3  21
TORSDOF 8
ENDMDL
MODEL 6
REMARK VINA RESULT:      -8.8      3.315      5.848
REMARK  Name = 62977
REMARK  8 active torsions:
REMARK  status: ('A' for Active; 'I' for Inactive)
REMARK    1  A    between atoms: N_2  and  CA_9
REMARK    2  A    between atoms: C_3  and  CA_21
REMARK    3  A    between atoms: CA_11  and  C_18
REMARK    4  A    between atoms: C_13  and  C_14
REMARK    5  A    between atoms: C_18  and  O_19
REMARK    6  A    between atoms: CA_21  and  C_22
REMARK    7  A    between atoms: CA_21  and  N_30
REMARK    8  A    between atoms: C_27  and  O_28
REMARK                            x       y       z     vdW  Elec       q    Type
REMARK                         _______ _______ _______ _____ _____    ______ ____
ROOT
ATOM      1  O   UNL     1      34.923 -24.416 -16.283  0.00  0.00    -0.277 OA
ATOM      2  N   UNL     1      34.098 -22.503 -17.302  0.00  0.00    -0.298 N 
ATOM      3  C   UNL     1      34.266 -23.377 -16.226  0.00  0.00    +0.206 C 
ATOM      4  H   UNL     1      33.556 -21.693 -17.171  0.00  0.00    +0.150 HD
ENDROOT
BRANCH   2   9
ATOM      5  S   UNL     1      32.683 -20.938 -19.528  0.00  0.00    -0.114 S 
ATOM      6  O   UNL     1      37.098 -21.870 -18.406  0.00  0.00    -0.273 OA
ATOM      7  N   UNL     1      35.315 -21.170 -19.784  0.00  0.00    -0.242 N 
ATOM      8  C   UNL     1      34.118 -21.990 -19.837  0.00  0.00    +0.155 C 
ATOM      9  CA  UNL     1      34.694 -22.741 -18.616  0.00  0.00    +0.178 C 
ATOM     10  C   UNL     1      35.984 -21.911 -18.873  0.00  0.00    +0.251 C 
ATOM     11  CA  UNL     1      35.494 -20.043 -20.523  0.00  0.00    +0.128 C 
ATOM     12  C   UNL     1      33.000 -19.893 -20.992  0.00  0.00    +0.087 C 
ATOM     13  C   UNL     1      34.450 -19.437 -21.140  0.00  0.00    +0.009 C 
BRANCH  13  14
ATOM     14  C   UNL     1      34.566 -18.273 -21.998  0.00  0.00    -0.007 C 
ATOM     15  C   UNL     1      34.656 -18.358 -23.323  0.00  0.00    -0.026 C 
ATOM     16  C   UNL     1      34.780 -17.163 -24.210  0.00  0.00    +0.031 C 
ENDBRANCH  13  14
BRANCH  11  18
ATOM     17  OXT UNL     1      37.462 -19.256 -21.599  0.00  0.00    -0.244 OA
ATOM     18  C   UNL     1      36.863 -19.502 -20.574  0.00  0.00    +0.352 C 
BRANCH  18  19
ATOM     19  O   UNL     1      37.319 -19.332 -19.318  0.00  0.00    -0.476 OA
ATOM     20  H   UNL     1      38.008 -19.875 -18.991  0.00  0.00    +0.295 HD
ENDBRANCH  18  19
ENDBRANCH  11  18
ENDBRANCH   2   9
BRANCH   3  21
ATOM     21  CA  UNL     1      33.530 -22.923 -14.971  0.00  0.00    +0.036 C 
BRANCH  21  22
ATOM     22  C   UNL     1      32.179 -23.597 -14.862  0.00  0.00    -0.034 C 
ATOM     23  C   UNL     1      31.980 -24.555 -13.884  0.00  0.00    -0.003 C 
ATOM     24  C   UNL     1      31.174 -23.238 -15.742  0.00  0.00    -0.003 C 
ATOM     25  C   UNL     1      30.735 -25.176 -13.785  0.00  0.00    +0.036 C 
ATOM     26  C   UNL     1      29.929 -23.859 -15.642  0.00  0.00    +0.036 C 
ATOM     27  C   UNL     1      29.709 -24.828 -14.664  0.00  0.00    +0.134 C 
BRANCH  27  28
ATOM     28  O   UNL     1      28.496 -25.435 -14.566  0.00  0.00    -0.506 OA
ATOM     29  H   UNL     1      28.370 -26.294 -14.919  0.00  0.00    +0.292 HD
ENDBRANCH  27  28
ENDBRANCH  21  22
BRANCH  21  30
ATOM     30  N   UNL     1      34.391 -23.208 -13.819  0.00  0.00    +0.390 N 
ATOM     31  H1  UNL     1      33.899 -23.821 -13.170  0.00  0.00    -0.088 HD
ATOM     32  H2  UNL     1      34.629 -22.336 -13.348  0.00  0.00    -0.088 HD
ATOM     33  H3  UNL     1      35.244 -23.666 -14.138  0.00  0.00    -0.088 HD
ENDBRANCH  21  30
ENDBRANCH   3  21
TORSDOF 8
ENDMDL
MODEL 7
REMARK VINA RESULT:      -8.3      5.241      8.065
REMARK  Name = 62977
REMARK  8 active torsions:
REMARK  status: ('A' for Active; 'I' for Inactive)
REMARK    1  A    between atoms: N_2  and  CA_9
REMARK    2  A    between atoms: C_3  and  CA_21
REMARK    3  A    between atoms: CA_11  and  C_18
REMARK    4  A    between atoms: C_13  and  C_14
REMARK    5  A    between atoms: C_18  and  O_19
REMARK    6  A    between atoms: CA_21  and  C_22
REMARK    7  A    between atoms: CA_21  and  N_30
REMARK    8  A    between atoms: C_27  and  O_28
REMARK                            x       y       z     vdW  Elec       q    Type
REMARK                         _______ _______ _______ _____ _____    ______ ____
ROOT
ATOM      1  O   UNL     1      32.308 -14.115 -23.916  0.00  0.00    -0.277 OA
ATOM      2  N   UNL     1      33.988 -12.576 -23.485  0.00  0.00    -0.298 N 
ATOM      3  C   UNL     1      33.303 -13.775 -23.278  0.00  0.00    +0.206 C 
ATOM      4  H   UNL     1      34.777 -12.382 -22.929  0.00  0.00    +0.150 HD
ENDROOT
BRANCH   2   9
ATOM      5  S   UNL     1      31.782 -10.699 -22.477  0.00  0.00    -0.114 S 
ATOM      6  O   UNL     1      35.700 -10.211 -24.933  0.00  0.00    -0.273 OA
ATOM      7  N   UNL     1      33.596  -9.589 -24.066  0.00  0.00    -0.242 N 
ATOM      8  C   UNL     1      32.511 -10.552 -24.123  0.00  0.00    +0.155 C 
ATOM      9  CA  UNL     1      33.585 -11.597 -24.494  0.00  0.00    +0.178 C 
ATOM     10  C   UNL     1      34.551 -10.382 -24.600  0.00  0.00    +0.251 C 
ATOM     11  CA  UNL     1      33.461  -8.324 -23.586  0.00  0.00    +0.128 C 
ATOM     12  C   UNL     1      31.288  -8.941 -22.421  0.00  0.00    +0.087 C 
ATOM     13  C   UNL     1      32.380  -7.965 -22.851  0.00  0.00    +0.009 C 
BRANCH  13  14
ATOM     14  C   UNL     1      32.130  -6.623 -22.360  0.00  0.00    -0.007 C 
ATOM     15  C   UNL     1      31.330  -5.763 -22.985  0.00  0.00    -0.026 C 
ATOM     16  C   UNL     1      31.072  -4.379 -22.486  0.00  0.00    +0.031 C 
ENDBRANCH  13  14
BRANCH  11  18
ATOM     17  OXT UNL     1      34.579  -6.611 -24.798  0.00  0.00    -0.244 OA
ATOM     18  C   UNL     1      34.566  -7.392 -23.871  0.00  0.00    +0.352 C 
BRANCH  18  19
ATOM     19  O   UNL     1      35.533  -7.556 -22.946  0.00  0.00    -0.476 OA
ATOM     20  H   UNL     1      35.343  -7.997 -22.142  0.00  0.00    +0.295 HD
ENDBRANCH  18  19
ENDBRANCH  11  18
ENDBRANCH   2   9
BRANCH   3  21
ATOM     21  CA  UNL     1      33.902 -14.616 -22.156  0.00  0.00    +0.036 C 
BRANCH  21  22
ATOM     22  C   UNL     1      34.251 -16.005 -22.649  0.00  0.00    -0.034 C 
ATOM     23  C   UNL     1      34.550 -16.190 -23.987  0.00  0.00    -0.003 C 
ATOM     24  C   UNL     1      34.264 -17.056 -21.750  0.00  0.00    -0.003 C 
ATOM     25  C   UNL     1      34.871 -17.469 -24.440  0.00  0.00    +0.036 C 
ATOM     26  C   UNL     1      34.586 -18.334 -22.203  0.00  0.00    +0.036 C 
ATOM     27  C   UNL     1      34.889 -18.542 -23.549  0.00  0.00    +0.134 C 
BRANCH  27  28
ATOM     28  O   UNL     1      35.202 -19.790 -23.992  0.00  0.00    -0.506 OA
ATOM     29  H   UNL     1      34.644 -20.223 -24.607  0.00  0.00    +0.292 HD
ENDBRANCH  27  28
ENDBRANCH  21  22
BRANCH  21  30
ATOM     30  N   UNL     1      35.069 -13.900 -21.634  0.00  0.00    +0.390 N 
ATOM     31  H1  UNL     1      34.793 -13.343 -20.826  0.00  0.00    -0.088 HD
ATOM     32  H2  UNL     1      35.443 -13.285 -22.358  0.00  0.00    -0.088 HD
ATOM     33  H3  UNL     1      35.784 -14.571 -21.356  0.00  0.00    -0.088 HD
ENDBRANCH  21  30
ENDBRANCH   3  21
TORSDOF 8
ENDMDL
MODEL 8
REMARK VINA RESULT:      -8.2      4.554      7.284
REMARK  Name = 62977
REMARK  8 active torsions:
REMARK  status: ('A' for Active; 'I' for Inactive)
REMARK    1  A    between atoms: N_2  and  CA_9
REMARK    2  A    between atoms: C_3  and  CA_21
REMARK    3  A    between atoms: CA_11  and  C_18
REMARK    4  A    between atoms: C_13  and  C_14
REMARK    5  A    between atoms: C_18  and  O_19
REMARK    6  A    between atoms: CA_21  and  C_22
REMARK    7  A    between atoms: CA_21  and  N_30
REMARK    8  A    between atoms: C_27  and  O_28
REMARK                            x       y       z     vdW  Elec       q    Type
REMARK                         _______ _______ _______ _____ _____    ______ ____
ROOT
ATOM      1  O   UNL     1      31.569 -15.241 -21.355  0.00  0.00    -0.277 OA
ATOM      2  N   UNL     1      33.193 -13.847 -22.247  0.00  0.00    -0.298 N 
ATOM      3  C   UNL     1      32.754 -14.947 -21.507  0.00  0.00    +0.206 C 
ATOM      4  H   UNL     1      34.161 -13.684 -22.318  0.00  0.00    +0.150 HD
ENDROOT
BRANCH   2   9
ATOM      5  S   UNL     1      32.013 -11.759 -20.335  0.00  0.00    -0.114 S 
ATOM      6  O   UNL     1      33.732 -11.719 -24.656  0.00  0.00    -0.273 OA
ATOM      7  N   UNL     1      32.546 -10.897 -22.789  0.00  0.00    -0.242 N 
ATOM      8  C   UNL     1      31.632 -11.791 -22.100  0.00  0.00    +0.155 C 
ATOM      9  CA  UNL     1      32.277 -12.929 -22.921  0.00  0.00    +0.178 C 
ATOM     10  C   UNL     1      33.000 -11.790 -23.697  0.00  0.00    +0.251 C 
ATOM     11  CA  UNL     1      32.725  -9.592 -22.453  0.00  0.00    +0.128 C 
ATOM     12  C   UNL     1      31.653  -9.975 -20.180  0.00  0.00    +0.087 C 
ATOM     13  C   UNL     1      32.287  -9.108 -21.265  0.00  0.00    +0.009 C 
BRANCH  13  14
ATOM     14  C   UNL     1      32.379  -7.718 -20.860  0.00  0.00    -0.007 C 
ATOM     15  C   UNL     1      31.652  -6.753 -21.418  0.00  0.00    -0.026 C 
ATOM     16  C   UNL     1      31.746  -5.320 -21.008  0.00  0.00    +0.031 C 
ENDBRANCH  13  14
BRANCH  11  18
ATOM     17  OXT UNL     1      34.659  -8.616 -23.432  0.00  0.00    -0.244 OA
ATOM     18  C   UNL     1      33.454  -8.758 -23.424  0.00  0.00    +0.352 C 
BRANCH  18  19
ATOM     19  O   UNL     1      32.574  -8.197 -24.276  0.00  0.00    -0.476 OA
ATOM     20  H   UNL     1      31.777  -7.829 -23.952  0.00  0.00    +0.295 HD
ENDBRANCH  18  19
ENDBRANCH  11  18
ENDBRANCH   2   9
BRANCH   3  21
ATOM     21  CA  UNL     1      33.897 -15.739 -20.882  0.00  0.00    +0.036 C 
BRANCH  21  22
ATOM     22  C   UNL     1      34.283 -16.912 -21.758  0.00  0.00    -0.034 C 
ATOM     23  C   UNL     1      34.179 -18.195 -21.251  0.00  0.00    -0.003 C 
ATOM     24  C   UNL     1      34.730 -16.675 -23.045  0.00  0.00    -0.003 C 
ATOM     25  C   UNL     1      34.535 -19.276 -22.057  0.00  0.00    +0.036 C 
ATOM     26  C   UNL     1      35.086 -17.755 -23.852  0.00  0.00    +0.036 C 
ATOM     27  C   UNL     1      34.989 -19.056 -23.358  0.00  0.00    +0.134 C 
BRANCH  27  28
ATOM     28  O   UNL     1      35.336 -20.111 -24.144  0.00  0.00    -0.506 OA
ATOM     29  H   UNL     1      34.793 -20.873 -24.175  0.00  0.00    +0.292 HD
ENDBRANCH  27  28
ENDBRANCH  21  22
BRANCH  21  30
ATOM     30  N   UNL     1      35.013 -14.815 -20.662  0.00  0.00    +0.390 N 
ATOM     31  H1  UNL     1      35.393 -14.520 -21.561  0.00  0.00    -0.088 HD
ATOM     32  H2  UNL     1      35.741 -15.284 -20.124  0.00  0.00    -0.088 HD
ATOM     33  H3  UNL     1      34.682 -13.999 -20.148  0.00  0.00    -0.088 HD
ENDBRANCH  21  30
ENDBRANCH   3  21
TORSDOF 8
ENDMDL
MODEL 9
REMARK VINA RESULT:      -8.0      5.436      8.490
REMARK  Name = 62977
REMARK  8 active torsions:
REMARK  status: ('A' for Active; 'I' for Inactive)
REMARK    1  A    between atoms: N_2  and  CA_9
REMARK    2  A    between atoms: C_3  and  CA_21
REMARK    3  A    between atoms: CA_11  and  C_18
REMARK    4  A    between atoms: C_13  and  C_14
REMARK    5  A    between atoms: C_18  and  O_19
REMARK    6  A    between atoms: CA_21  and  C_22
REMARK    7  A    between atoms: CA_21  and  N_30
REMARK    8  A    between atoms: C_27  and  O_28
REMARK                            x       y       z     vdW  Elec       q    Type
REMARK                         _______ _______ _______ _____ _____    ______ ____
ROOT
ATOM      1  O   UNL     1      34.981 -23.771 -11.668  0.00  0.00    -0.277 OA
ATOM      2  N   UNL     1      35.511 -24.132 -13.897  0.00  0.00    -0.298 N 
ATOM      3  C   UNL     1      35.585 -24.408 -12.530  0.00  0.00    +0.206 C 
ATOM      4  H   UNL     1      36.028 -24.692 -14.519  0.00  0.00    +0.150 HD
ENDROOT
BRANCH   2   9
ATOM      5  S   UNL     1      37.115 -22.289 -15.751  0.00  0.00    -0.114 S 
ATOM      6  O   UNL     1      32.888 -24.224 -15.828  0.00  0.00    -0.273 OA
ATOM      7  N   UNL     1      34.598 -22.731 -16.469  0.00  0.00    -0.242 N 
ATOM      8  C   UNL     1      35.354 -22.055 -15.430  0.00  0.00    +0.155 C 
ATOM      9  CA  UNL     1      34.699 -23.046 -14.443  0.00  0.00    +0.178 C 
ATOM     10  C   UNL     1      33.820 -23.476 -15.653  0.00  0.00    +0.251 C 
ATOM     11  CA  UNL     1      34.782 -22.517 -17.799  0.00  0.00    +0.128 C 
ATOM     12  C   UNL     1      37.043 -21.439 -17.366  0.00  0.00    +0.087 C 
ATOM     13  C   UNL     1      35.887 -21.881 -18.260  0.00  0.00    +0.009 C 
BRANCH  13  14
ATOM     14  C   UNL     1      36.126 -21.555 -19.654  0.00  0.00    -0.007 C 
ATOM     15  C   UNL     1      35.642 -20.460 -20.234  0.00  0.00    -0.026 C 
ATOM     16  C   UNL     1      35.882 -20.123 -21.669  0.00  0.00    +0.031 C 
ENDBRANCH  13  14
BRANCH  11  18
ATOM     17  OXT UNL     1      33.828 -24.114 -19.279  0.00  0.00    -0.244 OA
ATOM     18  C   UNL     1      33.746 -23.051 -18.700  0.00  0.00    +0.352 C 
BRANCH  18  19
ATOM     19  O   UNL     1      32.722 -22.178 -18.766  0.00  0.00    -0.476 OA
ATOM     20  H   UNL     1      32.752 -21.382 -18.274  0.00  0.00    +0.295 HD
ENDBRANCH  18  19
ENDBRANCH  11  18
ENDBRANCH   2   9
BRANCH   3  21
ATOM     21  CA  UNL     1      36.514 -25.573 -12.208  0.00  0.00    +0.036 C 
BRANCH  21  22
ATOM     22  C   UNL     1      37.611 -25.692 -13.245  0.00  0.00    -0.034 C 
ATOM     23  C   UNL     1      38.794 -25.000 -13.057  0.00  0.00    -0.003 C 
ATOM     24  C   UNL     1      37.406 -26.492 -14.355  0.00  0.00    -0.003 C 
ATOM     25  C   UNL     1      39.804 -25.110 -14.013  0.00  0.00    +0.036 C 
ATOM     26  C   UNL     1      38.416 -26.602 -15.309  0.00  0.00    +0.036 C 
ATOM     27  C   UNL     1      39.616 -25.911 -15.139  0.00  0.00    +0.134 C 
BRANCH  27  28
ATOM     28  O   UNL     1      40.602 -26.017 -16.071  0.00  0.00    -0.506 OA
ATOM     29  H   UNL     1      40.637 -26.765 -16.634  0.00  0.00    +0.292 HD
ENDBRANCH  27  28
ENDBRANCH  21  22
BRANCH  21  30
ATOM     30  N   UNL     1      37.043 -25.363 -10.857  0.00  0.00    +0.390 N 
ATOM     31  H1  UNL     1      37.603 -24.511 -10.840  0.00  0.00    -0.088 HD
ATOM     32  H2  UNL     1      37.625 -26.158 -10.592  0.00  0.00    -0.088 HD
ATOM     33  H3  UNL     1      36.269 -25.274 -10.199  0.00  0.00    -0.088 HD
ENDBRANCH  21  30
ENDBRANCH   3  21
TORSDOF 8
ENDMDL
