MODEL 1
REMARK VINA RESULT:      -9.0      0.000      0.000
REMARK  Name = 4205
REMARK  0 active torsions:
REMARK  status: ('A' for Active; 'I' for Inactive)
REMARK                            x       y       z     vdW  Elec       q    Type
REMARK                         _______ _______ _______ _____ _____    ______ ____
ROOT
ATOM      1  N   UNL     1      32.808 -10.839 -23.137  0.00  0.00    -0.296 N 
ATOM      2  N   UNL     1      31.087 -10.876 -20.863  0.00  0.00    +0.388 N 
ATOM      3  N   UNL     1      33.466 -12.039 -25.107  0.00  0.00    -0.229 NA
ATOM      4  C   UNL     1      31.835  -9.737 -22.955  0.00  0.00    +0.076 C 
ATOM      5  C   UNL     1      31.542  -9.600 -21.439  0.00  0.00    -0.053 C 
ATOM      6  C   UNL     1      32.415 -12.116 -22.531  0.00  0.00    +0.070 C 
ATOM      7  C   UNL     1      32.108 -11.914 -21.047  0.00  0.00    -0.056 C 
ATOM      8  C   UNL     1      32.157  -8.352 -23.516  0.00  0.00    -0.010 C 
ATOM      9  C   UNL     1      33.579 -10.947 -24.302  0.00  0.00    +0.128 C 
ATOM     10  C   UNL     1      33.451  -7.870 -23.792  0.00  0.00    -0.020 C 
ATOM     11  C   UNL     1      34.659  -8.757 -23.672  0.00  0.00    +0.055 C 
ATOM     12  C   UNL     1      34.522  -9.946 -24.585  0.00  0.00    +0.014 C 
ATOM     13  C   UNL     1      30.771 -10.715 -19.444  0.00  0.00    -0.101 C 
ATOM     14  C   UNL     1      31.067  -7.479 -23.725  0.00  0.00    -0.003 C 
ATOM     15  C   UNL     1      33.625  -6.549 -24.247  0.00  0.00    -0.004 C 
ATOM     16  C   UNL     1      35.315 -10.063 -25.731  0.00  0.00    +0.000 C 
ATOM     17  C   UNL     1      31.251  -6.174 -24.180  0.00  0.00    -0.000 C 
ATOM     18  C   UNL     1      32.533  -5.707 -24.437  0.00  0.00    -0.000 C 
ATOM     19  C   UNL     1      35.182 -11.166 -26.559  0.00  0.00    +0.020 C 
ATOM     20  C   UNL     1      34.252 -12.120 -26.204  0.00  0.00    +0.100 C 
ATOM     21  H   UNL     1      30.240 -11.165 -21.350  0.00  0.00    -0.080 HD
ENDROOT
TORSDOF 0
ENDMDL
MODEL 2
REMARK VINA RESULT:      -9.0      1.441      4.692
REMARK  Name = 4205
REMARK  0 active torsions:
REMARK  status: ('A' for Active; 'I' for Inactive)
REMARK                            x       y       z     vdW  Elec       q    Type
REMARK                         _______ _______ _______ _____ _____    ______ ____
ROOT
ATOM      1  N   UNL     1      32.725 -12.357 -23.383  0.00  0.00    -0.296 N 
ATOM      2  N   UNL     1      33.692 -13.164 -25.942  0.00  0.00    +0.388 N 
ATOM      3  N   UNL     1      32.558 -12.982 -21.073  0.00  0.00    -0.229 NA
ATOM      4  C   UNL     1      33.705 -11.496 -24.084  0.00  0.00    +0.076 C 
ATOM      5  C   UNL     1      33.553 -11.738 -25.608  0.00  0.00    -0.053 C 
ATOM      6  C   UNL     1      32.796 -13.782 -23.729  0.00  0.00    +0.070 C 
ATOM      7  C   UNL     1      32.673 -13.955 -25.242  0.00  0.00    -0.056 C 
ATOM      8  C   UNL     1      33.698  -9.989 -23.827  0.00  0.00    -0.010 C 
ATOM      9  C   UNL     1      32.322 -12.084 -22.069  0.00  0.00    +0.128 C 
ATOM     10  C   UNL     1      32.596  -9.253 -23.353  0.00  0.00    -0.020 C 
ATOM     11  C   UNL     1      31.325  -9.933 -22.925  0.00  0.00    +0.055 C 
ATOM     12  C   UNL     1      31.607 -10.905 -21.811  0.00  0.00    +0.014 C 
ATOM     13  C   UNL     1      33.593 -13.365 -27.387  0.00  0.00    -0.101 C 
ATOM     14  C   UNL     1      34.882  -9.284 -24.137  0.00  0.00    -0.003 C 
ATOM     15  C   UNL     1      32.693  -7.855 -23.217  0.00  0.00    -0.004 C 
ATOM     16  C   UNL     1      31.176 -10.640 -20.506  0.00  0.00    +0.000 C 
ATOM     17  C   UNL     1      34.968  -7.899 -23.993  0.00  0.00    -0.000 C 
ATOM     18  C   UNL     1      33.870  -7.184 -23.537  0.00  0.00    -0.000 C 
ATOM     19  C   UNL     1      31.437 -11.547 -19.492  0.00  0.00    +0.020 C 
ATOM     20  C   UNL     1      32.124 -12.695 -19.825  0.00  0.00    +0.100 C 
ATOM     21  H   UNL     1      34.612 -13.478 -25.637  0.00  0.00    -0.080 HD
ENDROOT
TORSDOF 0
ENDMDL
MODEL 3
REMARK VINA RESULT:      -8.9     13.774     16.256
REMARK  Name = 4205
REMARK  0 active torsions:
REMARK  status: ('A' for Active; 'I' for Inactive)
REMARK                            x       y       z     vdW  Elec       q    Type
REMARK                         _______ _______ _______ _____ _____    ______ ____
ROOT
ATOM      1  N   UNL     1      34.638 -24.205 -15.022  0.00  0.00    -0.296 N 
ATOM      2  N   UNL     1      31.863 -23.547 -15.026  0.00  0.00    +0.388 N 
ATOM      3  N   UNL     1      36.225 -25.975 -14.696  0.00  0.00    -0.229 NA
ATOM      4  C   UNL     1      34.029 -23.668 -16.261  0.00  0.00    +0.076 C 
ATOM      5  C   UNL     1      32.814 -22.794 -15.859  0.00  0.00    -0.053 C 
ATOM      6  C   UNL     1      33.710 -24.919 -14.138  0.00  0.00    +0.070 C 
ATOM      7  C   UNL     1      32.519 -24.022 -13.802  0.00  0.00    -0.056 C 
ATOM      8  C   UNL     1      34.896 -22.875 -17.240  0.00  0.00    -0.010 C 
ATOM      9  C   UNL     1      35.958 -24.674 -15.002  0.00  0.00    +0.128 C 
ATOM     10  C   UNL     1      36.089 -22.206 -16.908  0.00  0.00    -0.020 C 
ATOM     11  C   UNL     1      36.699 -22.325 -15.539  0.00  0.00    +0.055 C 
ATOM     12  C   UNL     1      37.003 -23.767 -15.231  0.00  0.00    +0.014 C 
ATOM     13  C   UNL     1      30.702 -22.721 -14.696  0.00  0.00    -0.101 C 
ATOM     14  C   UNL     1      34.428 -22.775 -18.569  0.00  0.00    -0.003 C 
ATOM     15  C   UNL     1      36.767 -21.455 -17.887  0.00  0.00    -0.004 C 
ATOM     16  C   UNL     1      38.325 -24.223 -15.183  0.00  0.00    +0.000 C 
ATOM     17  C   UNL     1      35.110 -22.031 -19.531  0.00  0.00    -0.000 C 
ATOM     18  C   UNL     1      36.279 -21.366 -19.188  0.00  0.00    -0.000 C 
ATOM     19  C   UNL     1      38.591 -25.552 -14.892  0.00  0.00    +0.020 C 
ATOM     20  C   UNL     1      37.514 -26.380 -14.655  0.00  0.00    +0.100 C 
ATOM     21  H   UNL     1      31.541 -24.356 -15.555  0.00  0.00    -0.080 HD
ENDROOT
TORSDOF 0
ENDMDL
MODEL 4
REMARK VINA RESULT:      -8.7      2.065      4.564
REMARK  Name = 4205
REMARK  0 active torsions:
REMARK  status: ('A' for Active; 'I' for Inactive)
REMARK                            x       y       z     vdW  Elec       q    Type
REMARK                         _______ _______ _______ _____ _____    ______ ____
ROOT
ATOM      1  N   UNL     1      32.800  -7.755 -23.197  0.00  0.00    -0.296 N 
ATOM      2  N   UNL     1      31.646  -5.380 -22.119  0.00  0.00    +0.388 N 
ATOM      3  N   UNL     1      34.706  -8.653 -24.343  0.00  0.00    -0.229 NA
ATOM      4  C   UNL     1      32.474  -7.706 -21.752  0.00  0.00    +0.076 C 
ATOM      5  C   UNL     1      31.313  -6.698 -21.556  0.00  0.00    -0.053 C 
ATOM      6  C   UNL     1      33.087  -6.452 -23.809  0.00  0.00    +0.070 C 
ATOM      7  C   UNL     1      31.925  -5.492 -23.555  0.00  0.00    -0.056 C 
ATOM      8  C   UNL     1      32.123  -9.001 -21.019  0.00  0.00    -0.010 C 
ATOM      9  C   UNL     1      33.493  -8.838 -23.752  0.00  0.00    +0.128 C 
ATOM     10  C   UNL     1      31.633 -10.171 -21.629  0.00  0.00    -0.020 C 
ATOM     11  C   UNL     1      31.530 -10.291 -23.125  0.00  0.00    +0.055 C 
ATOM     12  C   UNL     1      32.884 -10.103 -23.754  0.00  0.00    +0.014 C 
ATOM     13  C   UNL     1      30.559  -4.430 -21.882  0.00  0.00    -0.101 C 
ATOM     14  C   UNL     1      32.261  -8.996 -19.613  0.00  0.00    -0.003 C 
ATOM     15  C   UNL     1      31.285 -11.282 -20.838  0.00  0.00    -0.004 C 
ATOM     16  C   UNL     1      33.559 -11.183 -24.334  0.00  0.00    +0.000 C 
ATOM     17  C   UNL     1      31.917 -10.103 -18.839  0.00  0.00    -0.000 C 
ATOM     18  C   UNL     1      31.424 -11.247 -19.453  0.00  0.00    -0.000 C 
ATOM     19  C   UNL     1      34.802 -10.994 -24.915  0.00  0.00    +0.020 C 
ATOM     20  C   UNL     1      35.327  -9.719 -24.896  0.00  0.00    +0.100 C 
ATOM     21  H   UNL     1      32.483  -5.032 -21.653  0.00  0.00    -0.080 HD
ENDROOT
TORSDOF 0
ENDMDL
MODEL 5
REMARK VINA RESULT:      -8.4     13.640     16.215
REMARK  Name = 4205
REMARK  0 active torsions:
REMARK  status: ('A' for Active; 'I' for Inactive)
REMARK                            x       y       z     vdW  Elec       q    Type
REMARK                         _______ _______ _______ _____ _____    ______ ____
ROOT
ATOM      1  N   UNL     1      34.615 -23.756 -14.811  0.00  0.00    -0.296 N 
ATOM      2  N   UNL     1      37.252 -24.510 -14.029  0.00  0.00    +0.388 N 
ATOM      3  N   UNL     1      32.521 -22.884 -14.030  0.00  0.00    -0.229 NA
ATOM      4  C   UNL     1      35.773 -23.076 -15.438  0.00  0.00    +0.076 C 
ATOM      5  C   UNL     1      36.979 -24.048 -15.399  0.00  0.00    -0.053 C 
ATOM      6  C   UNL     1      34.863 -24.278 -13.462  0.00  0.00    +0.070 C 
ATOM      7  C   UNL     1      36.081 -25.202 -13.479  0.00  0.00    -0.056 C 
ATOM      8  C   UNL     1      35.639 -22.523 -16.858  0.00  0.00    -0.010 C 
ATOM      9  C   UNL     1      33.302 -23.332 -15.052  0.00  0.00    +0.128 C 
ATOM     10  C   UNL     1      34.707 -22.966 -17.815  0.00  0.00    -0.020 C 
ATOM     11  C   UNL     1      33.643 -23.970 -17.467  0.00  0.00    +0.055 C 
ATOM     12  C   UNL     1      32.781 -23.446 -16.350  0.00  0.00    +0.014 C 
ATOM     13  C   UNL     1      38.422 -25.388 -14.006  0.00  0.00    -0.101 C 
ATOM     14  C   UNL     1      36.558 -21.522 -17.242  0.00  0.00    -0.003 C 
ATOM     15  C   UNL     1      34.723 -22.422 -19.113  0.00  0.00    -0.004 C 
ATOM     16  C   UNL     1      31.460 -23.052 -16.591  0.00  0.00    +0.000 C 
ATOM     17  C   UNL     1      36.562 -20.987 -18.529  0.00  0.00    -0.000 C 
ATOM     18  C   UNL     1      35.646 -21.441 -19.468  0.00  0.00    -0.000 C 
ATOM     19  C   UNL     1      30.676 -22.577 -15.552  0.00  0.00    +0.020 C 
ATOM     20  C   UNL     1      31.249 -22.516 -14.299  0.00  0.00    +0.100 C 
ATOM     21  H   UNL     1      37.450 -23.697 -13.448  0.00  0.00    -0.080 HD
ENDROOT
TORSDOF 0
ENDMDL
MODEL 6
REMARK VINA RESULT:      -8.3      2.304      5.285
REMARK  Name = 4205
REMARK  0 active torsions:
REMARK  status: ('A' for Active; 'I' for Inactive)
REMARK                            x       y       z     vdW  Elec       q    Type
REMARK                         _______ _______ _______ _____ _____    ______ ____
ROOT
ATOM      1  N   UNL     1      33.305 -11.442 -23.927  0.00  0.00    -0.296 N 
ATOM      2  N   UNL     1      31.832 -11.411 -21.485  0.00  0.00    +0.388 N 
ATOM      3  N   UNL     1      34.973 -10.297 -25.216  0.00  0.00    -0.229 NA
ATOM      4  C   UNL     1      33.418 -12.596 -23.006  0.00  0.00    +0.076 C 
ATOM      5  C   UNL     1      32.110 -12.679 -22.178  0.00  0.00    -0.053 C 
ATOM      6  C   UNL     1      32.976 -10.166 -23.281  0.00  0.00    +0.070 C 
ATOM      7  C   UNL     1      31.699 -10.317 -22.454  0.00  0.00    -0.056 C 
ATOM      8  C   UNL     1      33.723 -13.983 -23.574  0.00  0.00    -0.010 C 
ATOM      9  C   UNL     1      34.109 -11.339 -25.070  0.00  0.00    +0.128 C 
ATOM     10  C   UNL     1      33.469 -14.390 -24.898  0.00  0.00    -0.020 C 
ATOM     11  C   UNL     1      32.976 -13.419 -25.935  0.00  0.00    +0.055 C 
ATOM     12  C   UNL     1      33.955 -12.287 -26.094  0.00  0.00    +0.014 C 
ATOM     13  C   UNL     1      30.622 -11.524 -20.672  0.00  0.00    -0.101 C 
ATOM     14  C   UNL     1      34.257 -14.936 -22.679  0.00  0.00    -0.003 C 
ATOM     15  C   UNL     1      33.735 -15.716 -25.287  0.00  0.00    -0.004 C 
ATOM     16  C   UNL     1      34.734 -12.173 -27.250  0.00  0.00    +0.000 C 
ATOM     17  C   UNL     1      34.521 -16.246 -23.077  0.00  0.00    -0.000 C 
ATOM     18  C   UNL     1      34.255 -16.638 -24.382  0.00  0.00    -0.000 C 
ATOM     19  C   UNL     1      35.628 -11.123 -27.385  0.00  0.00    +0.020 C 
ATOM     20  C   UNL     1      35.707 -10.217 -26.349  0.00  0.00    +0.100 C 
ATOM     21  H   UNL     1      32.615 -11.202 -20.867  0.00  0.00    -0.080 HD
ENDROOT
TORSDOF 0
ENDMDL
MODEL 7
REMARK VINA RESULT:      -8.1      1.814      2.404
REMARK  Name = 4205
REMARK  0 active torsions:
REMARK  status: ('A' for Active; 'I' for Inactive)
REMARK                            x       y       z     vdW  Elec       q    Type
REMARK                         _______ _______ _______ _____ _____    ______ ____
ROOT
ATOM      1  N   UNL     1      33.022  -8.746 -22.628  0.00  0.00    -0.296 N 
ATOM      2  N   UNL     1      31.759  -7.187 -20.602  0.00  0.00    +0.388 N 
ATOM      3  N   UNL     1      33.030 -10.875 -23.733  0.00  0.00    -0.229 NA
ATOM      4  C   UNL     1      32.381  -7.464 -23.003  0.00  0.00    +0.076 C 
ATOM      5  C   UNL     1      32.394  -6.539 -21.759  0.00  0.00    -0.053 C 
ATOM      6  C   UNL     1      32.450  -9.399 -21.445  0.00  0.00    +0.070 C 
ATOM      7  C   UNL     1      32.460  -8.431 -20.262  0.00  0.00    -0.056 C 
ATOM      8  C   UNL     1      32.918  -6.678 -24.200  0.00  0.00    -0.010 C 
ATOM      9  C   UNL     1      33.534  -9.617 -23.599  0.00  0.00    +0.128 C 
ATOM     10  C   UNL     1      34.221  -6.786 -24.721  0.00  0.00    -0.020 C 
ATOM     11  C   UNL     1      35.189  -7.814 -24.204  0.00  0.00    +0.055 C 
ATOM     12  C   UNL     1      34.621  -9.197 -24.380  0.00  0.00    +0.014 C 
ATOM     13  C   UNL     1      31.738  -6.282 -19.453  0.00  0.00    -0.101 C 
ATOM     14  C   UNL     1      32.044  -5.739 -24.791  0.00  0.00    -0.003 C 
ATOM     15  C   UNL     1      34.620  -5.961 -25.790  0.00  0.00    -0.004 C 
ATOM     16  C   UNL     1      35.156 -10.073 -25.331  0.00  0.00    +0.000 C 
ATOM     17  C   UNL     1      32.448  -4.930 -25.852  0.00  0.00    -0.000 C 
ATOM     18  C   UNL     1      33.740  -5.038 -26.349  0.00  0.00    -0.000 C 
ATOM     19  C   UNL     1      34.627 -11.345 -25.479  0.00  0.00    +0.020 C 
ATOM     20  C   UNL     1      33.574 -11.696 -24.660  0.00  0.00    +0.100 C 
ATOM     21  H   UNL     1      30.796  -7.415 -20.847  0.00  0.00    -0.080 HD
ENDROOT
TORSDOF 0
ENDMDL
MODEL 8
REMARK VINA RESULT:      -8.0      2.735      4.289
REMARK  Name = 4205
REMARK  0 active torsions:
REMARK  status: ('A' for Active; 'I' for Inactive)
REMARK                            x       y       z     vdW  Elec       q    Type
REMARK                         _______ _______ _______ _____ _____    ______ ____
ROOT
ATOM      1  N   UNL     1      33.625 -14.471 -23.734  0.00  0.00    -0.296 N 
ATOM      2  N   UNL     1      34.012 -15.698 -21.189  0.00  0.00    +0.388 N 
ATOM      3  N   UNL     1      32.934 -14.850 -25.999  0.00  0.00    -0.229 NA
ATOM      4  C   UNL     1      32.872 -13.956 -22.566  0.00  0.00    +0.076 C 
ATOM      5  C   UNL     1      33.696 -14.265 -21.290  0.00  0.00    -0.053 C 
ATOM      6  C   UNL     1      34.005 -15.886 -23.648  0.00  0.00    +0.070 C 
ATOM      7  C   UNL     1      34.784 -16.136 -22.357  0.00  0.00    -0.056 C 
ATOM      8  C   UNL     1      32.455 -12.485 -22.532  0.00  0.00    -0.010 C 
ATOM      9  C   UNL     1      33.373 -14.001 -25.029  0.00  0.00    +0.128 C 
ATOM     10  C   UNL     1      33.076 -11.450 -23.255  0.00  0.00    -0.020 C 
ATOM     11  C   UNL     1      34.162 -11.735 -24.256  0.00  0.00    +0.055 C 
ATOM     12  C   UNL     1      33.650 -12.658 -25.328  0.00  0.00    +0.014 C 
ATOM     13  C   UNL     1      34.747 -15.977 -19.955  0.00  0.00    -0.101 C 
ATOM     14  C   UNL     1      31.391 -12.144 -21.668  0.00  0.00    -0.003 C 
ATOM     15  C   UNL     1      32.641 -10.121 -23.092  0.00  0.00    -0.004 C 
ATOM     16  C   UNL     1      33.428 -12.190 -26.628  0.00  0.00    +0.000 C 
ATOM     17  C   UNL     1      30.966 -10.825 -21.517  0.00  0.00    -0.000 C 
ATOM     18  C   UNL     1      31.595  -9.811 -22.227  0.00  0.00    -0.000 C 
ATOM     19  C   UNL     1      32.961 -13.052 -27.607  0.00  0.00    +0.020 C 
ATOM     20  C   UNL     1      32.734 -14.364 -27.245  0.00  0.00    +0.100 C 
ATOM     21  H   UNL     1      33.137 -16.220 -21.165  0.00  0.00    -0.080 HD
ENDROOT
TORSDOF 0
ENDMDL
MODEL 9
REMARK VINA RESULT:      -7.7      2.684      4.414
REMARK  Name = 4205
REMARK  0 active torsions:
REMARK  status: ('A' for Active; 'I' for Inactive)
REMARK                            x       y       z     vdW  Elec       q    Type
REMARK                         _______ _______ _______ _____ _____    ______ ____
ROOT
ATOM      1  N   UNL     1      32.138  -6.779 -23.520  0.00  0.00    -0.296 N 
ATOM      2  N   UNL     1      30.537  -4.490 -22.945  0.00  0.00    +0.388 N 
ATOM      3  N   UNL     1      32.149  -9.175 -23.637  0.00  0.00    -0.229 NA
ATOM      4  C   UNL     1      31.936  -5.760 -24.576  0.00  0.00    +0.076 C 
ATOM      5  C   UNL     1      31.665  -4.399 -23.885  0.00  0.00    -0.053 C 
ATOM      6  C   UNL     1      31.058  -6.865 -22.531  0.00  0.00    +0.070 C 
ATOM      7  C   UNL     1      30.814  -5.491 -21.908  0.00  0.00    -0.056 C 
ATOM      8  C   UNL     1      33.016  -5.559 -25.641  0.00  0.00    -0.010 C 
ATOM      9  C   UNL     1      32.796  -7.986 -23.788  0.00  0.00    +0.128 C 
ATOM     10  C   UNL     1      34.373  -5.901 -25.493  0.00  0.00    -0.020 C 
ATOM     11  C   UNL     1      34.868  -6.636 -24.278  0.00  0.00    +0.055 C 
ATOM     12  C   UNL     1      34.154  -7.954 -24.142  0.00  0.00    +0.014 C 
ATOM     13  C   UNL     1      30.267  -3.187 -22.339  0.00  0.00    -0.101 C 
ATOM     14  C   UNL     1      32.616  -4.937 -26.844  0.00  0.00    -0.003 C 
ATOM     15  C   UNL     1      35.286  -5.607 -26.523  0.00  0.00    -0.004 C 
ATOM     16  C   UNL     1      34.824  -9.158 -24.382  0.00  0.00    +0.000 C 
ATOM     17  C   UNL     1      33.529  -4.655 -27.860  0.00  0.00    -0.000 C 
ATOM     18  C   UNL     1      34.867  -4.987 -27.697  0.00  0.00    -0.000 C 
ATOM     19  C   UNL     1      34.156 -10.364 -24.248  0.00  0.00    +0.020 C 
ATOM     20  C   UNL     1      32.829 -10.319 -23.873  0.00  0.00    +0.100 C 
ATOM     21  H   UNL     1      29.709  -4.781 -23.462  0.00  0.00    -0.080 HD
ENDROOT
TORSDOF 0
ENDMDL
