MODEL 1
REMARK VINA RESULT:      -7.0      0.000      0.000
REMARK  Name = 6852125
REMARK  4 active torsions:
REMARK  status: ('A' for Active; 'I' for Inactive)
REMARK    1  A    between atoms: C_4  and  C_6
REMARK    2  A    between atoms: C_5  and  C_11
REMARK    3  A    between atoms: C_11  and  C_12
REMARK    4  A    between atoms: C_12  and  N_14
REMARK                            x       y       z     vdW  Elec       q    Type
REMARK                         _______ _______ _______ _____ _____    ______ ____
ROOT
ATOM      1  O   UNL     1      34.081 -16.441 -22.233  0.00  0.00    -0.417 OA
ATOM      2  N   UNL     1      35.148 -16.481 -20.267  0.00  0.00    -0.111 NA
ATOM      3  N   UNL     1      34.715 -15.187 -20.491  0.00  0.00    -0.104 NA
ATOM      4  C   UNL     1      34.747 -17.099 -21.291  0.00  0.00    +0.226 A 
ATOM      5  C   UNL     1      34.098 -15.211 -21.650  0.00  0.00    +0.283 A 
ENDROOT
BRANCH   4   6
ATOM      6  C   UNL     1      34.941 -18.603 -21.603  0.00  0.00    +0.070 C 
ATOM      7  C   UNL     1      33.774 -19.418 -21.005  0.00  0.00    +0.009 C 
ATOM      8  C   UNL     1      36.273 -19.096 -20.995  0.00  0.00    +0.009 C 
ATOM      9  C   UNL     1      34.988 -18.914 -23.115  0.00  0.00    +0.009 C 
ENDBRANCH   4   6
BRANCH   5  11
ATOM     10  O   UNL     1      32.549 -13.426 -21.791  0.00  0.00    -0.289 OA
ATOM     11  C   UNL     1      33.483 -14.110 -22.300  0.00  0.00    +0.207 C 
BRANCH  11  12
ATOM     12  C   UNL     1      33.929 -13.678 -23.730  0.00  0.00    +0.003 C 
ATOM     13  C   UNL     1      33.571 -12.218 -23.979  0.00  0.00    -0.016 C 
BRANCH  12  14
ATOM     14  N   UNL     1      33.258 -14.521 -24.722  0.00  0.00    +0.387 N 
ATOM     15  H   UNL     1      33.952 -15.078 -25.220  0.00  0.00    -0.089 HD
ATOM     16  H   UNL     1      32.754 -13.932 -25.384  0.00  0.00    -0.089 HD
ATOM     17  H   UNL     1      32.599 -15.142 -24.250  0.00  0.00    -0.089 HD
ENDBRANCH  12  14
ENDBRANCH  11  12
ENDBRANCH   5  11
TORSDOF 4
ENDMDL
MODEL 2
REMARK VINA RESULT:      -6.9      1.484      1.568
REMARK  Name = 6852125
REMARK  4 active torsions:
REMARK  status: ('A' for Active; 'I' for Inactive)
REMARK    1  A    between atoms: C_4  and  C_6
REMARK    2  A    between atoms: C_5  and  C_11
REMARK    3  A    between atoms: C_11  and  C_12
REMARK    4  A    between atoms: C_12  and  N_14
REMARK                            x       y       z     vdW  Elec       q    Type
REMARK                         _______ _______ _______ _____ _____    ______ ____
ROOT
ATOM      1  O   UNL     1      34.191 -16.524 -22.337  0.00  0.00    -0.417 OA
ATOM      2  N   UNL     1      35.144 -16.526 -20.313  0.00  0.00    -0.111 NA
ATOM      3  N   UNL     1      34.760 -15.230 -20.602  0.00  0.00    -0.104 NA
ATOM      4  C   UNL     1      34.784 -17.168 -21.339  0.00  0.00    +0.226 A 
ATOM      5  C   UNL     1      34.209 -15.277 -21.793  0.00  0.00    +0.283 A 
ENDROOT
BRANCH   4   6
ATOM      6  C   UNL     1      34.954 -18.686 -21.592  0.00  0.00    +0.070 C 
ATOM      7  C   UNL     1      33.779 -19.458 -20.957  0.00  0.00    +0.009 C 
ATOM      8  C   UNL     1      36.283 -19.174 -20.971  0.00  0.00    +0.009 C 
ATOM      9  C   UNL     1      34.989 -19.057 -23.091  0.00  0.00    +0.009 C 
ENDBRANCH   4   6
BRANCH   5  11
ATOM     10  O   UNL     1      34.186 -13.691 -23.553  0.00  0.00    -0.289 OA
ATOM     11  C   UNL     1      33.662 -14.181 -22.511  0.00  0.00    +0.207 C 
BRANCH  11  12
ATOM     12  C   UNL     1      32.350 -13.489 -22.030  0.00  0.00    +0.003 C 
ATOM     13  C   UNL     1      32.248 -12.085 -22.611  0.00  0.00    -0.016 C 
BRANCH  12  14
ATOM     14  N   UNL     1      32.351 -13.414 -20.567  0.00  0.00    +0.387 N 
ATOM     15  H   UNL     1      32.947 -12.643 -20.267  0.00  0.00    -0.089 HD
ATOM     16  H   UNL     1      32.707 -14.288 -20.181  0.00  0.00    -0.089 HD
ATOM     17  H   UNL     1      31.400 -13.258 -20.234  0.00  0.00    -0.089 HD
ENDBRANCH  12  14
ENDBRANCH  11  12
ENDBRANCH   5  11
TORSDOF 4
ENDMDL
MODEL 3
REMARK VINA RESULT:      -6.8      4.313      7.341
REMARK  Name = 6852125
REMARK  4 active torsions:
REMARK  status: ('A' for Active; 'I' for Inactive)
REMARK    1  A    between atoms: C_4  and  C_6
REMARK    2  A    between atoms: C_5  and  C_11
REMARK    3  A    between atoms: C_11  and  C_12
REMARK    4  A    between atoms: C_12  and  N_14
REMARK                            x       y       z     vdW  Elec       q    Type
REMARK                         _______ _______ _______ _____ _____    ______ ____
ROOT
ATOM      1  O   UNL     1      34.741 -20.751 -20.169  0.00  0.00    -0.417 OA
ATOM      2  N   UNL     1      32.942 -19.545 -20.732  0.00  0.00    -0.111 NA
ATOM      3  N   UNL     1      32.512 -20.639 -20.003  0.00  0.00    -0.104 NA
ATOM      4  C   UNL     1      34.195 -19.699 -20.768  0.00  0.00    +0.226 A 
ATOM      5  C   UNL     1      33.596 -21.314 -19.697  0.00  0.00    +0.283 A 
ENDROOT
BRANCH   4   6
ATOM      6  C   UNL     1      35.224 -18.770 -21.456  0.00  0.00    +0.070 C 
ATOM      7  C   UNL     1      35.131 -18.928 -22.989  0.00  0.00    +0.009 C 
ATOM      8  C   UNL     1      36.652 -19.134 -20.989  0.00  0.00    +0.009 C 
ATOM      9  C   UNL     1      35.008 -17.274 -21.136  0.00  0.00    +0.009 C 
ENDBRANCH   4   6
BRANCH   5  11
ATOM     10  O   UNL     1      34.114 -23.606 -19.405  0.00  0.00    -0.289 OA
ATOM     11  C   UNL     1      33.654 -22.520 -18.950  0.00  0.00    +0.207 C 
BRANCH  11  12
ATOM     12  C   UNL     1      33.122 -22.576 -17.486  0.00  0.00    +0.003 C 
ATOM     13  C   UNL     1      33.788 -23.714 -16.723  0.00  0.00    -0.016 C 
BRANCH  12  14
ATOM     14  N   UNL     1      31.672 -22.785 -17.506  0.00  0.00    +0.387 N 
ATOM     15  H   UNL     1      31.202 -21.946 -17.167  0.00  0.00    -0.089 HD
ATOM     16  H   UNL     1      31.433 -23.575 -16.906  0.00  0.00    -0.089 HD
ATOM     17  H   UNL     1      31.370 -22.981 -18.461  0.00  0.00    -0.089 HD
ENDBRANCH  12  14
ENDBRANCH  11  12
ENDBRANCH   5  11
TORSDOF 4
ENDMDL
MODEL 4
REMARK VINA RESULT:      -6.8      2.369      3.023
REMARK  Name = 6852125
REMARK  4 active torsions:
REMARK  status: ('A' for Active; 'I' for Inactive)
REMARK    1  A    between atoms: C_4  and  C_6
REMARK    2  A    between atoms: C_5  and  C_11
REMARK    3  A    between atoms: C_11  and  C_12
REMARK    4  A    between atoms: C_12  and  N_14
REMARK                            x       y       z     vdW  Elec       q    Type
REMARK                         _______ _______ _______ _____ _____    ______ ____
ROOT
ATOM      1  O   UNL     1      34.224 -16.431 -23.435  0.00  0.00    -0.417 OA
ATOM      2  N   UNL     1      34.993 -18.362 -24.263  0.00  0.00    -0.111 NA
ATOM      3  N   UNL     1      34.606 -17.565 -25.326  0.00  0.00    -0.104 NA
ATOM      4  C   UNL     1      34.740 -17.641 -23.258  0.00  0.00    +0.226 A 
ATOM      5  C   UNL     1      34.164 -16.449 -24.794  0.00  0.00    +0.283 A 
ENDROOT
BRANCH   4   6
ATOM      6  C   UNL     1      34.970 -18.008 -21.772  0.00  0.00    +0.070 C 
ATOM      7  C   UNL     1      34.863 -16.742 -20.896  0.00  0.00    +0.009 C 
ATOM      8  C   UNL     1      36.372 -18.634 -21.598  0.00  0.00    +0.009 C 
ATOM      9  C   UNL     1      33.945 -19.028 -21.228  0.00  0.00    +0.009 C 
ENDBRANCH   4   6
BRANCH   5  11
ATOM     10  O   UNL     1      33.472 -15.303 -26.749  0.00  0.00    -0.289 OA
ATOM     11  C   UNL     1      33.657 -15.325 -25.498  0.00  0.00    +0.207 C 
BRANCH  11  12
ATOM     12  C   UNL     1      33.302 -14.008 -24.743  0.00  0.00    +0.003 C 
ATOM     13  C   UNL     1      33.313 -12.826 -25.706  0.00  0.00    -0.016 C 
BRANCH  12  14
ATOM     14  N   UNL     1      34.284 -13.780 -23.680  0.00  0.00    +0.387 N 
ATOM     15  H   UNL     1      34.119 -14.437 -22.918  0.00  0.00    -0.089 HD
ATOM     16  H   UNL     1      34.193 -12.826 -23.331  0.00  0.00    -0.089 HD
ATOM     17  H   UNL     1      35.225 -13.918 -24.050  0.00  0.00    -0.089 HD
ENDBRANCH  12  14
ENDBRANCH  11  12
ENDBRANCH   5  11
TORSDOF 4
ENDMDL
MODEL 5
REMARK VINA RESULT:      -6.5      2.341      5.726
REMARK  Name = 6852125
REMARK  4 active torsions:
REMARK  status: ('A' for Active; 'I' for Inactive)
REMARK    1  A    between atoms: C_4  and  C_6
REMARK    2  A    between atoms: C_5  and  C_11
REMARK    3  A    between atoms: C_11  and  C_12
REMARK    4  A    between atoms: C_12  and  N_14
REMARK                            x       y       z     vdW  Elec       q    Type
REMARK                         _______ _______ _______ _____ _____    ______ ____
ROOT
ATOM      1  O   UNL     1      34.001 -17.617 -21.028  0.00  0.00    -0.417 OA
ATOM      2  N   UNL     1      35.108 -17.244 -22.937  0.00  0.00    -0.111 NA
ATOM      3  N   UNL     1      35.207 -18.592 -22.642  0.00  0.00    -0.104 NA
ATOM      4  C   UNL     1      34.419 -16.791 -21.980  0.00  0.00    +0.226 A 
ATOM      5  C   UNL     1      34.547 -18.762 -21.520  0.00  0.00    +0.283 A 
ENDROOT
BRANCH   4   6
ATOM      6  C   UNL     1      33.978 -15.323 -21.769  0.00  0.00    +0.070 C 
ATOM      7  C   UNL     1      34.324 -14.486 -23.018  0.00  0.00    +0.009 C 
ATOM      8  C   UNL     1      34.702 -14.731 -20.539  0.00  0.00    +0.009 C 
ATOM      9  C   UNL     1      32.461 -15.169 -21.521  0.00  0.00    +0.009 C 
ENDBRANCH   4   6
BRANCH   5  11
ATOM     10  O   UNL     1      33.243 -20.474 -20.530  0.00  0.00    -0.289 OA
ATOM     11  C   UNL     1      34.373 -19.987 -20.824  0.00  0.00    +0.207 C 
BRANCH  11  12
ATOM     12  C   UNL     1      35.605 -20.819 -20.354  0.00  0.00    +0.003 C 
ATOM     13  C   UNL     1      35.234 -21.687 -19.158  0.00  0.00    -0.016 C 
BRANCH  12  14
ATOM     14  N   UNL     1      36.689 -19.907 -19.979  0.00  0.00    +0.387 N 
ATOM     15  H   UNL     1      36.682 -19.097 -20.598  0.00  0.00    -0.089 HD
ATOM     16  H   UNL     1      37.583 -20.390 -20.061  0.00  0.00    -0.089 HD
ATOM     17  H   UNL     1      36.557 -19.600 -19.015  0.00  0.00    -0.089 HD
ENDBRANCH  12  14
ENDBRANCH  11  12
ENDBRANCH   5  11
TORSDOF 4
ENDMDL
MODEL 6
REMARK VINA RESULT:      -6.5      3.870      6.813
REMARK  Name = 6852125
REMARK  4 active torsions:
REMARK  status: ('A' for Active; 'I' for Inactive)
REMARK    1  A    between atoms: C_4  and  C_6
REMARK    2  A    between atoms: C_5  and  C_11
REMARK    3  A    between atoms: C_11  and  C_12
REMARK    4  A    between atoms: C_12  and  N_14
REMARK                            x       y       z     vdW  Elec       q    Type
REMARK                         _______ _______ _______ _____ _____    ______ ____
ROOT
ATOM      1  O   UNL     1      35.230 -20.336 -20.748  0.00  0.00    -0.417 OA
ATOM      2  N   UNL     1      33.139 -19.552 -20.873  0.00  0.00    -0.111 NA
ATOM      3  N   UNL     1      33.155 -20.581 -19.949  0.00  0.00    -0.104 NA
ATOM      4  C   UNL     1      34.339 -19.495 -21.259  0.00  0.00    +0.226 A 
ATOM      5  C   UNL     1      34.395 -21.008 -19.910  0.00  0.00    +0.283 A 
ENDROOT
BRANCH   4   6
ATOM      6  C   UNL     1      34.932 -18.518 -22.304  0.00  0.00    +0.070 C 
ATOM      7  C   UNL     1      34.639 -19.033 -23.729  0.00  0.00    +0.009 C 
ATOM      8  C   UNL     1      36.460 -18.404 -22.106  0.00  0.00    +0.009 C 
ATOM      9  C   UNL     1      34.352 -17.090 -22.205  0.00  0.00    +0.009 C 
ENDBRANCH   4   6
BRANCH   5  11
ATOM     10  O   UNL     1      34.272 -23.136 -18.878  0.00  0.00    -0.289 OA
ATOM     11  C   UNL     1      34.898 -22.060 -19.101  0.00  0.00    +0.207 C 
BRANCH  11  12
ATOM     12  C   UNL     1      36.289 -21.937 -18.408  0.00  0.00    +0.003 C 
ATOM     13  C   UNL     1      36.174 -22.265 -16.924  0.00  0.00    -0.016 C 
BRANCH  12  14
ATOM     14  N   UNL     1      36.790 -20.569 -18.567  0.00  0.00    +0.387 N 
ATOM     15  H   UNL     1      36.499 -20.005 -17.769  0.00  0.00    -0.089 HD
ATOM     16  H   UNL     1      36.411 -20.166 -19.424  0.00  0.00    -0.089 HD
ATOM     17  H   UNL     1      37.809 -20.584 -18.620  0.00  0.00    -0.089 HD
ENDBRANCH  12  14
ENDBRANCH  11  12
ENDBRANCH   5  11
TORSDOF 4
ENDMDL
MODEL 7
REMARK VINA RESULT:      -6.4      6.651      9.022
REMARK  Name = 6852125
REMARK  4 active torsions:
REMARK  status: ('A' for Active; 'I' for Inactive)
REMARK    1  A    between atoms: C_4  and  C_6
REMARK    2  A    between atoms: C_5  and  C_11
REMARK    3  A    between atoms: C_11  and  C_12
REMARK    4  A    between atoms: C_12  and  N_14
REMARK                            x       y       z     vdW  Elec       q    Type
REMARK                         _______ _______ _______ _____ _____    ______ ____
ROOT
ATOM      1  O   UNL     1      32.048 -23.033 -17.578  0.00  0.00    -0.417 OA
ATOM      2  N   UNL     1      33.114 -23.616 -15.699  0.00  0.00    -0.111 NA
ATOM      3  N   UNL     1      34.064 -23.412 -16.684  0.00  0.00    -0.104 NA
ATOM      4  C   UNL     1      32.027 -23.380 -16.296  0.00  0.00    +0.226 A 
ATOM      5  C   UNL     1      33.395 -23.074 -17.762  0.00  0.00    +0.283 A 
ENDROOT
BRANCH   4   6
ATOM      6  C   UNL     1      30.603 -23.446 -15.692  0.00  0.00    +0.070 C 
ATOM      7  C   UNL     1      30.616 -22.880 -14.256  0.00  0.00    +0.009 C 
ATOM      8  C   UNL     1      30.116 -24.912 -15.660  0.00  0.00    +0.009 C 
ATOM      9  C   UNL     1      29.560 -22.636 -16.493  0.00  0.00    +0.009 C 
ENDBRANCH   4   6
BRANCH   5  11
ATOM     10  O   UNL     1      34.174 -23.631 -19.929  0.00  0.00    -0.289 OA
ATOM     11  C   UNL     1      33.947 -22.767 -19.033  0.00  0.00    +0.207 C 
BRANCH  11  12
ATOM     12  C   UNL     1      34.331 -21.301 -19.401  0.00  0.00    +0.003 C 
ATOM     13  C   UNL     1      33.226 -20.656 -20.229  0.00  0.00    -0.016 C 
BRANCH  12  14
ATOM     14  N   UNL     1      35.578 -21.306 -20.170  0.00  0.00    +0.387 N 
ATOM     15  H   UNL     1      35.565 -22.080 -20.834  0.00  0.00    -0.089 HD
ATOM     16  H   UNL     1      36.368 -21.416 -19.535  0.00  0.00    -0.089 HD
ATOM     17  H   UNL     1      35.669 -20.425 -20.676  0.00  0.00    -0.089 HD
ENDBRANCH  12  14
ENDBRANCH  11  12
ENDBRANCH   5  11
TORSDOF 4
ENDMDL
MODEL 8
REMARK VINA RESULT:      -6.3     10.880     12.811
REMARK  Name = 6852125
REMARK  4 active torsions:
REMARK  status: ('A' for Active; 'I' for Inactive)
REMARK    1  A    between atoms: C_4  and  C_6
REMARK    2  A    between atoms: C_5  and  C_11
REMARK    3  A    between atoms: C_11  and  C_12
REMARK    4  A    between atoms: C_12  and  N_14
REMARK                            x       y       z     vdW  Elec       q    Type
REMARK                         _______ _______ _______ _____ _____    ______ ____
ROOT
ATOM      1  O   UNL     1      33.714 -24.242 -12.898  0.00  0.00    -0.417 OA
ATOM      2  N   UNL     1      34.459 -24.361 -15.004  0.00  0.00    -0.111 NA
ATOM      3  N   UNL     1      35.529 -24.593 -14.159  0.00  0.00    -0.104 NA
ATOM      4  C   UNL     1      33.498 -24.177 -14.206  0.00  0.00    +0.226 A 
ATOM      5  C   UNL     1      35.047 -24.512 -12.940  0.00  0.00    +0.283 A 
ENDROOT
BRANCH   4   6
ATOM      6  C   UNL     1      32.027 -23.873 -14.580  0.00  0.00    +0.070 C 
ATOM      7  C   UNL     1      31.144 -25.103 -14.282  0.00  0.00    +0.009 C 
ATOM      8  C   UNL     1      31.930 -23.525 -16.082  0.00  0.00    +0.009 C 
ATOM      9  C   UNL     1      31.431 -22.682 -13.798  0.00  0.00    +0.009 C 
ENDBRANCH   4   6
BRANCH   5  11
ATOM     10  O   UNL     1      35.268 -25.115 -10.660  0.00  0.00    -0.289 OA
ATOM     11  C   UNL     1      35.776 -24.679 -11.734  0.00  0.00    +0.207 C 
BRANCH  11  12
ATOM     12  C   UNL     1      37.288 -24.308 -11.659  0.00  0.00    +0.003 C 
ATOM     13  C   UNL     1      37.477 -22.811 -11.872  0.00  0.00    -0.016 C 
BRANCH  12  14
ATOM     14  N   UNL     1      38.019 -25.045 -12.693  0.00  0.00    +0.387 N 
ATOM     15  H   UNL     1      37.719 -26.019 -12.692  0.00  0.00    -0.089 HD
ATOM     16  H   UNL     1      39.019 -24.997 -12.502  0.00  0.00    -0.089 HD
ATOM     17  H   UNL     1      37.827 -24.631 -13.606  0.00  0.00    -0.089 HD
ENDBRANCH  12  14
ENDBRANCH  11  12
ENDBRANCH   5  11
TORSDOF 4
ENDMDL
MODEL 9
REMARK VINA RESULT:      -6.3      9.844     11.450
REMARK  Name = 6852125
REMARK  4 active torsions:
REMARK  status: ('A' for Active; 'I' for Inactive)
REMARK    1  A    between atoms: C_4  and  C_6
REMARK    2  A    between atoms: C_5  and  C_11
REMARK    3  A    between atoms: C_11  and  C_12
REMARK    4  A    between atoms: C_12  and  N_14
REMARK                            x       y       z     vdW  Elec       q    Type
REMARK                         _______ _______ _______ _____ _____    ______ ____
ROOT
ATOM      1  O   UNL     1      36.078 -24.407 -14.506  0.00  0.00    -0.417 OA
ATOM      2  N   UNL     1      37.944 -23.448 -15.284  0.00  0.00    -0.111 NA
ATOM      3  N   UNL     1      36.893 -23.058 -16.094  0.00  0.00    -0.104 NA
ATOM      4  C   UNL     1      37.387 -24.196 -14.433  0.00  0.00    +0.226 A 
ATOM      5  C   UNL     1      35.825 -23.642 -15.602  0.00  0.00    +0.283 A 
ENDROOT
BRANCH   4   6
ATOM      6  C   UNL     1      38.071 -24.933 -13.256  0.00  0.00    +0.070 C 
ATOM      7  C   UNL     1      39.482 -25.396 -13.676  0.00  0.00    +0.009 C 
ATOM      8  C   UNL     1      37.229 -26.163 -12.848  0.00  0.00    +0.009 C 
ATOM      9  C   UNL     1      38.235 -24.054 -11.996  0.00  0.00    +0.009 C 
ENDBRANCH   4   6
BRANCH   5  11
ATOM     10  O   UNL     1      34.225 -23.211 -17.295  0.00  0.00    -0.289 OA
ATOM     11  C   UNL     1      34.502 -23.537 -16.105  0.00  0.00    +0.207 C 
BRANCH  11  12
ATOM     12  C   UNL     1      33.275 -23.811 -15.182  0.00  0.00    +0.003 C 
ATOM     13  C   UNL     1      32.000 -23.277 -15.821  0.00  0.00    -0.016 C 
BRANCH  12  14
ATOM     14  N   UNL     1      33.486 -23.155 -13.889  0.00  0.00    +0.387 N 
ATOM     15  H   UNL     1      33.332 -22.152 -13.988  0.00  0.00    -0.089 HD
ATOM     16  H   UNL     1      34.441 -23.323 -13.574  0.00  0.00    -0.089 HD
ATOM     17  H   UNL     1      32.830 -23.533 -13.205  0.00  0.00    -0.089 HD
ENDBRANCH  12  14
ENDBRANCH  11  12
ENDBRANCH   5  11
TORSDOF 4
ENDMDL
