MODEL 1
REMARK VINA RESULT:      -8.5      0.000      0.000
REMARK  Name = 118984411
REMARK  6 active torsions:
REMARK  status: ('A' for Active; 'I' for Inactive)
REMARK    1  A    between atoms: C_2  and  O_3
REMARK    2  A    between atoms: C_2  and  C_17
REMARK    3  A    between atoms: O_3  and  C_12
REMARK    4  A    between atoms: C_17  and  C_19
REMARK    5  A    between atoms: C_17  and  C_24
REMARK    6  A    between atoms: C_17  and  O_28
REMARK                            x       y       z     vdW  Elec       q    Type
REMARK                         _______ _______ _______ _____ _____    ______ ____
ROOT
ATOM      1  O   UNL     1      33.544 -12.538 -24.916  0.00  0.00    -0.247 OA
ATOM      2  C   UNL     1      33.367 -12.253 -23.738  0.00  0.00    +0.350 C 
ENDROOT
BRANCH   2   3
ATOM      3  O   UNL     1      33.772 -11.078 -23.154  0.00  0.00    -0.450 OA
BRANCH   3  12
ATOM      4  N   UNL     1      33.641  -7.234 -22.854  0.00  0.00    +0.388 N 
ATOM      5  C   UNL     1      32.450  -7.731 -23.557  0.00  0.00    -0.054 C 
ATOM      6  C   UNL     1      31.721  -6.484 -24.027  0.00  0.00    -0.017 C 
ATOM      7  C   UNL     1      34.693  -7.442 -23.816  0.00  0.00    -0.054 C 
ATOM      8  C   UNL     1      32.895  -5.674 -24.783  0.00  0.00    -0.004 C 
ATOM      9  C   UNL     1      32.207  -9.184 -23.263  0.00  0.00    +0.023 C 
ATOM     10  C   UNL     1      34.246  -6.525 -25.036  0.00  0.00    -0.021 C 
ATOM     11  C   UNL     1      34.799  -9.000 -24.043  0.00  0.00    +0.023 C 
ATOM     12  C   UNL     1      33.480  -9.890 -23.880  0.00  0.00    +0.165 C 
ATOM     13  C   UNL     1      31.134  -5.659 -22.874  0.00  0.00    -0.002 C 
ATOM     14  C   UNL     1      30.585  -6.823 -25.008  0.00  0.00    -0.002 C 
ATOM     15  C   UNL     1      33.897  -7.660 -21.495  0.00  0.00    -0.100 C 
ATOM     16  H   UNL     1      33.517  -6.254 -22.593  0.00  0.00    -0.080 HD
ENDBRANCH   3  12
ENDBRANCH   2   3
BRANCH   2  17
ATOM     17  C   UNL     1      32.633 -13.135 -22.725  0.00  0.00    +0.227 C 
BRANCH  17  19
ATOM     18  S   UNL     1      30.627 -11.393 -21.835  0.00  0.00    -0.088 S 
ATOM     19  C   UNL     1      32.012 -12.361 -21.560  0.00  0.00    +0.046 C 
ATOM     20  C   UNL     1      32.419 -12.320 -20.244  0.00  0.00    +0.006 C 
ATOM     21  C   UNL     1      31.583 -11.480 -19.452  0.00  0.00    +0.007 C 
ATOM     22  C   UNL     1      30.568 -10.914 -20.192  0.00  0.00    +0.035 C 
ENDBRANCH  17  19
BRANCH  17  24
ATOM     23  S   UNL     1      34.234 -15.351 -23.339  0.00  0.00    -0.088 S 
ATOM     24  C   UNL     1      33.493 -14.292 -22.215  0.00  0.00    +0.046 C 
ATOM     25  C   UNL     1      33.782 -14.637 -20.913  0.00  0.00    +0.006 C 
ATOM     26  C   UNL     1      34.623 -15.785 -20.837  0.00  0.00    +0.007 C 
ATOM     27  C   UNL     1      34.945 -16.274 -22.083  0.00  0.00    +0.035 C 
ENDBRANCH  17  24
BRANCH  17  28
ATOM     28  O   UNL     1      31.598 -13.646 -23.591  0.00  0.00    -0.369 OA
ATOM     29  H   UNL     1      31.042 -14.271 -23.098  0.00  0.00    +0.212 HD
ENDBRANCH  17  28
ENDBRANCH   2  17
TORSDOF 6
ENDMDL
MODEL 2
REMARK VINA RESULT:      -8.3      1.724      2.972
REMARK  Name = 118984411
REMARK  6 active torsions:
REMARK  status: ('A' for Active; 'I' for Inactive)
REMARK    1  A    between atoms: C_2  and  O_3
REMARK    2  A    between atoms: C_2  and  C_17
REMARK    3  A    between atoms: O_3  and  C_12
REMARK    4  A    between atoms: C_17  and  C_19
REMARK    5  A    between atoms: C_17  and  C_24
REMARK    6  A    between atoms: C_17  and  O_28
REMARK                            x       y       z     vdW  Elec       q    Type
REMARK                         _______ _______ _______ _____ _____    ______ ____
ROOT
ATOM      1  O   UNL     1      31.148 -12.210 -22.836  0.00  0.00    -0.247 OA
ATOM      2  C   UNL     1      32.359 -12.030 -22.876  0.00  0.00    +0.350 C 
ENDROOT
BRANCH   2   3
ATOM      3  O   UNL     1      32.987 -10.880 -22.464  0.00  0.00    -0.450 OA
BRANCH   3  12
ATOM      4  N   UNL     1      33.302  -7.037 -22.600  0.00  0.00    +0.388 N 
ATOM      5  C   UNL     1      32.087  -7.475 -23.302  0.00  0.00    -0.054 C 
ATOM      6  C   UNL     1      31.528  -6.216 -23.943  0.00  0.00    -0.017 C 
ATOM      7  C   UNL     1      34.356  -7.474 -23.480  0.00  0.00    -0.054 C 
ATOM      8  C   UNL     1      32.817  -5.638 -24.725  0.00  0.00    -0.004 C 
ATOM      9  C   UNL     1      31.662  -8.846 -22.860  0.00  0.00    +0.023 C 
ATOM     10  C   UNL     1      34.065  -6.660 -24.814  0.00  0.00    -0.021 C 
ATOM     11  C   UNL     1      34.285  -9.050 -23.526  0.00  0.00    +0.023 C 
ATOM     12  C   UNL     1      32.864  -9.759 -23.331  0.00  0.00    +0.165 C 
ATOM     13  C   UNL     1      31.001  -5.201 -22.919  0.00  0.00    -0.002 C 
ATOM     14  C   UNL     1      30.396  -6.535 -24.935  0.00  0.00    -0.002 C 
ATOM     15  C   UNL     1      33.456  -7.329 -21.191  0.00  0.00    -0.100 C 
ATOM     16  H   UNL     1      33.286  -6.027 -22.457  0.00  0.00    -0.080 HD
ENDBRANCH   3  12
ENDBRANCH   2   3
BRANCH   2  17
ATOM     17  C   UNL     1      33.382 -13.065 -23.350  0.00  0.00    +0.227 C 
BRANCH  17  19
ATOM     18  S   UNL     1      33.753 -12.277 -26.013  0.00  0.00    -0.088 S 
ATOM     19  C   UNL     1      33.267 -13.420 -24.834  0.00  0.00    +0.046 C 
ATOM     20  C   UNL     1      32.805 -14.586 -25.404  0.00  0.00    +0.006 C 
ATOM     21  C   UNL     1      32.850 -14.541 -26.828  0.00  0.00    +0.007 C 
ATOM     22  C   UNL     1      33.345 -13.341 -27.292  0.00  0.00    +0.035 C 
ENDBRANCH  17  19
BRANCH  17  24
ATOM     23  S   UNL     1      34.635 -15.483 -22.692  0.00  0.00    -0.088 S 
ATOM     24  C   UNL     1      33.389 -14.327 -22.486  0.00  0.00    +0.046 C 
ATOM     25  C   UNL     1      32.493 -14.703 -21.510  0.00  0.00    +0.006 C 
ATOM     26  C   UNL     1      32.834 -15.956 -20.923  0.00  0.00    +0.007 C 
ATOM     27  C   UNL     1      33.978 -16.490 -21.472  0.00  0.00    +0.035 C 
ENDBRANCH  17  24
BRANCH  17  28
ATOM     28  O   UNL     1      34.586 -12.308 -23.111  0.00  0.00    -0.369 OA
ATOM     29  H   UNL     1      34.437 -11.379 -23.351  0.00  0.00    +0.212 HD
ENDBRANCH  17  28
ENDBRANCH   2  17
TORSDOF 6
ENDMDL
MODEL 3
REMARK VINA RESULT:      -8.1      2.054      3.949
REMARK  Name = 118984411
REMARK  6 active torsions:
REMARK  status: ('A' for Active; 'I' for Inactive)
REMARK    1  A    between atoms: C_2  and  O_3
REMARK    2  A    between atoms: C_2  and  C_17
REMARK    3  A    between atoms: O_3  and  C_12
REMARK    4  A    between atoms: C_17  and  C_19
REMARK    5  A    between atoms: C_17  and  C_24
REMARK    6  A    between atoms: C_17  and  O_28
REMARK                            x       y       z     vdW  Elec       q    Type
REMARK                         _______ _______ _______ _____ _____    ______ ____
ROOT
ATOM      1  O   UNL     1      32.001 -14.192 -21.703  0.00  0.00    -0.247 OA
ATOM      2  C   UNL     1      32.428 -13.545 -22.651  0.00  0.00    +0.350 C 
ENDROOT
BRANCH   2   3
ATOM      3  O   UNL     1      31.907 -12.345 -23.069  0.00  0.00    -0.450 OA
BRANCH   3  12
ATOM      4  N   UNL     1      31.430  -8.559 -22.498  0.00  0.00    +0.388 N 
ATOM      5  C   UNL     1      32.760  -8.826 -23.064  0.00  0.00    -0.054 C 
ATOM      6  C   UNL     1      33.474  -7.485 -23.041  0.00  0.00    -0.017 C 
ATOM      7  C   UNL     1      31.543  -9.071 -21.156  0.00  0.00    -0.054 C 
ATOM      8  C   UNL     1      33.264  -7.021 -21.509  0.00  0.00    -0.004 C 
ATOM      9  C   UNL     1      32.805 -10.159 -23.753  0.00  0.00    +0.023 C 
ATOM     10  C   UNL     1      32.693  -8.171 -20.528  0.00  0.00    -0.021 C 
ATOM     11  C   UNL     1      31.785 -10.625 -21.282  0.00  0.00    +0.023 C 
ATOM     12  C   UNL     1      32.553 -11.179 -22.572  0.00  0.00    +0.165 C 
ATOM     13  C   UNL     1      32.870  -6.464 -24.016  0.00  0.00    -0.002 C 
ATOM     14  C   UNL     1      34.972  -7.631 -23.358  0.00  0.00    -0.002 C 
ATOM     15  C   UNL     1      30.248  -8.929 -23.247  0.00  0.00    -0.100 C 
ATOM     16  H   UNL     1      31.221  -7.560 -22.535  0.00  0.00    -0.080 HD
ENDBRANCH   3  12
ENDBRANCH   2   3
BRANCH   2  17
ATOM     17  C   UNL     1      33.635 -13.938 -23.505  0.00  0.00    +0.227 C 
BRANCH  17  19
ATOM     18  S   UNL     1      33.998 -12.480 -25.871  0.00  0.00    -0.088 S 
ATOM     19  C   UNL     1      33.392 -13.832 -25.013  0.00  0.00    +0.046 C 
ATOM     20  C   UNL     1      32.721 -14.709 -25.837  0.00  0.00    +0.006 C 
ATOM     21  C   UNL     1      32.704 -14.264 -27.191  0.00  0.00    +0.007 C 
ATOM     22  C   UNL     1      33.363 -13.065 -27.350  0.00  0.00    +0.035 C 
ENDBRANCH  17  19
BRANCH  17  24
ATOM     23  S   UNL     1      34.607 -15.648 -21.510  0.00  0.00    -0.088 S 
ATOM     24  C   UNL     1      34.197 -15.312 -23.138  0.00  0.00    +0.046 C 
ATOM     25  C   UNL     1      34.440 -16.388 -23.964  0.00  0.00    +0.006 C 
ATOM     26  C   UNL     1      34.970 -17.501 -23.250  0.00  0.00    +0.007 C 
ATOM     27  C   UNL     1      35.111 -17.235 -21.906  0.00  0.00    +0.035 C 
ENDBRANCH  17  24
BRANCH  17  28
ATOM     28  O   UNL     1      34.551 -12.909 -23.075  0.00  0.00    -0.369 OA
ATOM     29  H   UNL     1      34.641 -12.242 -23.775  0.00  0.00    +0.212 HD
ENDBRANCH  17  28
ENDBRANCH   2  17
TORSDOF 6
ENDMDL
MODEL 4
REMARK VINA RESULT:      -7.9      1.363      1.754
REMARK  Name = 118984411
REMARK  6 active torsions:
REMARK  status: ('A' for Active; 'I' for Inactive)
REMARK    1  A    between atoms: C_2  and  O_3
REMARK    2  A    between atoms: C_2  and  C_17
REMARK    3  A    between atoms: O_3  and  C_12
REMARK    4  A    between atoms: C_17  and  C_19
REMARK    5  A    between atoms: C_17  and  C_24
REMARK    6  A    between atoms: C_17  and  O_28
REMARK                            x       y       z     vdW  Elec       q    Type
REMARK                         _______ _______ _______ _____ _____    ______ ____
ROOT
ATOM      1  O   UNL     1      34.186 -12.247 -25.454  0.00  0.00    -0.247 OA
ATOM      2  C   UNL     1      33.632 -12.337 -24.365  0.00  0.00    +0.350 C 
ENDROOT
BRANCH   2   3
ATOM      3  O   UNL     1      33.481 -11.296 -23.483  0.00  0.00    -0.450 OA
BRANCH   3  12
ATOM      4  N   UNL     1      33.384  -7.522 -22.685  0.00  0.00    +0.388 N 
ATOM      5  C   UNL     1      32.240  -7.895 -23.528  0.00  0.00    -0.054 C 
ATOM      6  C   UNL     1      31.562  -6.580 -23.877  0.00  0.00    -0.017 C 
ATOM      7  C   UNL     1      34.498  -7.626 -23.593  0.00  0.00    -0.054 C 
ATOM      8  C   UNL     1      32.799  -5.706 -24.438  0.00  0.00    -0.004 C 
ATOM      9  C   UNL     1      31.955  -9.367 -23.446  0.00  0.00    +0.023 C 
ATOM     10  C   UNL     1      34.152  -6.547 -24.708  0.00  0.00    -0.021 C 
ATOM     11  C   UNL     1      34.599  -9.143 -24.016  0.00  0.00    +0.023 C 
ATOM     12  C   UNL     1      33.258 -10.016 -24.063  0.00  0.00    +0.165 C 
ATOM     13  C   UNL     1      30.907  -5.900 -22.667  0.00  0.00    -0.002 C 
ATOM     14  C   UNL     1      30.494  -6.760 -24.969  0.00  0.00    -0.002 C 
ATOM     15  C   UNL     1      33.538  -8.129 -21.380  0.00  0.00    -0.100 C 
ATOM     16  H   UNL     1      33.257  -6.582 -22.307  0.00  0.00    -0.080 HD
ENDBRANCH   3  12
ENDBRANCH   2   3
BRANCH   2  17
ATOM     17  C   UNL     1      32.978 -13.608 -23.818  0.00  0.00    +0.227 C 
BRANCH  17  19
ATOM     18  S   UNL     1      32.933 -14.905 -21.335  0.00  0.00    -0.088 S 
ATOM     19  C   UNL     1      32.637 -13.541 -22.327  0.00  0.00    +0.046 C 
ATOM     20  C   UNL     1      32.098 -12.492 -21.617  0.00  0.00    +0.006 C 
ATOM     21  C   UNL     1      31.924 -12.812 -20.239  0.00  0.00    +0.007 C 
ATOM     22  C   UNL     1      32.337 -14.093 -19.949  0.00  0.00    +0.035 C 
ENDBRANCH  17  19
BRANCH  17  24
ATOM     23  S   UNL     1      33.483 -15.710 -25.601  0.00  0.00    -0.088 S 
ATOM     24  C   UNL     1      33.781 -14.870 -24.139  0.00  0.00    +0.046 C 
ATOM     25  C   UNL     1      34.765 -15.474 -23.387  0.00  0.00    +0.006 C 
ATOM     26  C   UNL     1      35.281 -16.641 -24.021  0.00  0.00    +0.007 C 
ATOM     27  C   UNL     1      34.673 -16.885 -25.232  0.00  0.00    +0.035 C 
ENDBRANCH  17  24
BRANCH  17  28
ATOM     28  O   UNL     1      31.770 -13.589 -24.607  0.00  0.00    -0.369 OA
ATOM     29  H   UNL     1      31.165 -14.277 -24.288  0.00  0.00    +0.212 HD
ENDBRANCH  17  28
ENDBRANCH   2  17
TORSDOF 6
ENDMDL
MODEL 5
REMARK VINA RESULT:      -7.7      1.798      3.118
REMARK  Name = 118984411
REMARK  6 active torsions:
REMARK  status: ('A' for Active; 'I' for Inactive)
REMARK    1  A    between atoms: C_2  and  O_3
REMARK    2  A    between atoms: C_2  and  C_17
REMARK    3  A    between atoms: O_3  and  C_12
REMARK    4  A    between atoms: C_17  and  C_19
REMARK    5  A    between atoms: C_17  and  C_24
REMARK    6  A    between atoms: C_17  and  O_28
REMARK                            x       y       z     vdW  Elec       q    Type
REMARK                         _______ _______ _______ _____ _____    ______ ____
ROOT
ATOM      1  O   UNL     1      34.752 -11.486 -23.282  0.00  0.00    -0.247 OA
ATOM      2  C   UNL     1      33.570 -11.800 -23.223  0.00  0.00    +0.350 C 
ENDROOT
BRANCH   2   3
ATOM      3  O   UNL     1      32.549 -10.930 -22.928  0.00  0.00    -0.450 OA
BRANCH   3  12
ATOM      4  N   UNL     1      33.213  -7.147 -22.558  0.00  0.00    +0.388 N 
ATOM      5  C   UNL     1      31.984  -7.376 -23.330  0.00  0.00    -0.054 C 
ATOM      6  C   UNL     1      31.559  -5.999 -23.811  0.00  0.00    -0.017 C 
ATOM      7  C   UNL     1      34.248  -7.564 -23.469  0.00  0.00    -0.054 C 
ATOM      8  C   UNL     1      32.916  -5.449 -24.491  0.00  0.00    -0.004 C 
ATOM      9  C   UNL     1      31.425  -8.747 -23.078  0.00  0.00    +0.023 C 
ATOM     10  C   UNL     1      34.070  -6.563 -24.691  0.00  0.00    -0.021 C 
ATOM     11  C   UNL     1      34.037  -9.107 -23.721  0.00  0.00    +0.023 C 
ATOM     12  C   UNL     1      32.553  -9.700 -23.643  0.00  0.00    +0.165 C 
ATOM     13  C   UNL     1      31.097  -5.079 -22.673  0.00  0.00    -0.002 C 
ATOM     14  C   UNL     1      30.432  -6.082 -24.855  0.00  0.00    -0.002 C 
ATOM     15  C   UNL     1      33.301  -7.631 -21.196  0.00  0.00    -0.100 C 
ATOM     16  H   UNL     1      33.284  -6.166 -22.284  0.00  0.00    -0.080 HD
ENDBRANCH   3  12
ENDBRANCH   2   3
BRANCH   2  17
ATOM     17  C   UNL     1      33.022 -13.201 -23.507  0.00  0.00    +0.227 C 
BRANCH  17  19
ATOM     18  S   UNL     1      33.092 -14.499 -21.025  0.00  0.00    -0.088 S 
ATOM     19  C   UNL     1      33.637 -14.299 -22.636  0.00  0.00    +0.046 C 
ATOM     20  C   UNL     1      34.620 -15.205 -22.966  0.00  0.00    +0.006 C 
ATOM     21  C   UNL     1      34.931 -16.076 -21.881  0.00  0.00    +0.007 C 
ATOM     22  C   UNL     1      34.173 -15.802 -20.764  0.00  0.00    +0.035 C 
ENDBRANCH  17  19
BRANCH  17  24
ATOM     23  S   UNL     1      33.546 -12.387 -26.136  0.00  0.00    -0.088 S 
ATOM     24  C   UNL     1      33.095 -13.575 -24.988  0.00  0.00    +0.046 C 
ATOM     25  C   UNL     1      32.837 -14.792 -25.579  0.00  0.00    +0.006 C 
ATOM     26  C   UNL     1      33.012 -14.749 -26.992  0.00  0.00    +0.007 C 
ATOM     27  C   UNL     1      33.398 -13.501 -27.428  0.00  0.00    +0.035 C 
ENDBRANCH  17  24
BRANCH  17  28
ATOM     28  O   UNL     1      31.647 -12.978 -23.130  0.00  0.00    -0.369 OA
ATOM     29  H   UNL     1      31.085 -13.013 -23.921  0.00  0.00    +0.212 HD
ENDBRANCH  17  28
ENDBRANCH   2  17
TORSDOF 6
ENDMDL
MODEL 6
REMARK VINA RESULT:      -7.6     13.597     16.721
REMARK  Name = 118984411
REMARK  6 active torsions:
REMARK  status: ('A' for Active; 'I' for Inactive)
REMARK    1  A    between atoms: C_2  and  O_3
REMARK    2  A    between atoms: C_2  and  C_17
REMARK    3  A    between atoms: O_3  and  C_12
REMARK    4  A    between atoms: C_17  and  C_19
REMARK    5  A    between atoms: C_17  and  C_24
REMARK    6  A    between atoms: C_17  and  O_28
REMARK                            x       y       z     vdW  Elec       q    Type
REMARK                         _______ _______ _______ _____ _____    ______ ____
ROOT
ATOM      1  O   UNL     1      32.194 -25.490 -14.060  0.00  0.00    -0.247 OA
ATOM      2  C   UNL     1      32.472 -24.298 -14.070  0.00  0.00    +0.350 C 
ENDROOT
BRANCH   2   3
ATOM      3  O   UNL     1      33.389 -23.707 -13.236  0.00  0.00    -0.450 OA
BRANCH   3  12
ATOM      4  N   UNL     1      37.232 -23.562 -13.544  0.00  0.00    +0.388 N 
ATOM      5  C   UNL     1      36.733 -24.869 -13.994  0.00  0.00    -0.054 C 
ATOM      6  C   UNL     1      37.980 -25.700 -14.250  0.00  0.00    -0.017 C 
ATOM      7  C   UNL     1      37.029 -23.614 -12.119  0.00  0.00    -0.054 C 
ATOM      8  C   UNL     1      38.794 -25.515 -12.868  0.00  0.00    -0.004 C 
ATOM      9  C   UNL     1      35.280 -24.803 -14.365  0.00  0.00    +0.023 C 
ATOM     10  C   UNL     1      37.948 -24.833 -11.673  0.00  0.00    -0.021 C 
ATOM     11  C   UNL     1      35.472 -23.718 -11.885  0.00  0.00    +0.023 C 
ATOM     12  C   UNL     1      34.578 -24.449 -12.993  0.00  0.00    +0.165 C 
ATOM     13  C   UNL     1      38.801 -25.201 -15.447  0.00  0.00    -0.002 C 
ATOM     14  C   UNL     1      37.641 -27.182 -14.479  0.00  0.00    -0.002 C 
ATOM     15  C   UNL     1      36.803 -22.361 -14.228  0.00  0.00    -0.100 C 
ATOM     16  H   UNL     1      38.210 -23.444 -13.810  0.00  0.00    -0.080 HD
ENDBRANCH   3  12
ENDBRANCH   2   3
BRANCH   2  17
ATOM     17  C   UNL     1      31.880 -23.270 -15.038  0.00  0.00    +0.227 C 
BRANCH  17  19
ATOM     18  S   UNL     1      29.238 -22.348 -15.191  0.00  0.00    -0.088 S 
ATOM     19  C   UNL     1      30.430 -23.553 -15.437  0.00  0.00    +0.046 C 
ATOM     20  C   UNL     1      29.902 -24.696 -15.997  0.00  0.00    +0.006 C 
ATOM     21  C   UNL     1      28.500 -24.581 -16.227  0.00  0.00    +0.007 C 
ATOM     22  C   UNL     1      28.010 -23.354 -15.834  0.00  0.00    +0.035 C 
ENDBRANCH  17  19
BRANCH  17  24
ATOM     23  S   UNL     1      32.050 -22.423 -17.704  0.00  0.00    -0.088 S 
ATOM     24  C   UNL     1      32.753 -23.052 -16.275  0.00  0.00    +0.046 C 
ATOM     25  C   UNL     1      34.100 -23.298 -16.428  0.00  0.00    +0.006 C 
ATOM     26  C   UNL     1      34.559 -22.967 -17.735  0.00  0.00    +0.007 C 
ATOM     27  C   UNL     1      33.548 -22.478 -18.531  0.00  0.00    +0.035 C 
ENDBRANCH  17  24
BRANCH  17  28
ATOM     28  O   UNL     1      31.945 -22.106 -14.188  0.00  0.00    -0.369 OA
ATOM     29  H   UNL     1      31.195 -22.114 -13.571  0.00  0.00    +0.212 HD
ENDBRANCH  17  28
ENDBRANCH   2  17
TORSDOF 6
ENDMDL
MODEL 7
REMARK VINA RESULT:      -7.1     14.055     16.439
REMARK  Name = 118984411
REMARK  6 active torsions:
REMARK  status: ('A' for Active; 'I' for Inactive)
REMARK    1  A    between atoms: C_2  and  O_3
REMARK    2  A    between atoms: C_2  and  C_17
REMARK    3  A    between atoms: O_3  and  C_12
REMARK    4  A    between atoms: C_17  and  C_19
REMARK    5  A    between atoms: C_17  and  C_24
REMARK    6  A    between atoms: C_17  and  O_28
REMARK                            x       y       z     vdW  Elec       q    Type
REMARK                         _______ _______ _______ _____ _____    ______ ____
ROOT
ATOM      1  O   UNL     1      34.345 -24.554 -12.215  0.00  0.00    -0.247 OA
ATOM      2  C   UNL     1      34.475 -24.097 -13.344  0.00  0.00    +0.350 C 
ENDROOT
BRANCH   2   3
ATOM      3  O   UNL     1      33.677 -23.117 -13.882  0.00  0.00    -0.450 OA
BRANCH   3  12
ATOM      4  N   UNL     1      30.726 -24.194 -16.123  0.00  0.00    +0.388 N 
ATOM      5  C   UNL     1      30.331 -23.069 -15.263  0.00  0.00    -0.054 C 
ATOM      6  C   UNL     1      28.841 -22.895 -15.505  0.00  0.00    -0.017 C 
ATOM      7  C   UNL     1      30.834 -25.288 -15.191  0.00  0.00    -0.054 C 
ATOM      8  C   UNL     1      28.287 -24.394 -15.275  0.00  0.00    -0.004 C 
ATOM      9  C   UNL     1      31.528 -22.311 -14.766  0.00  0.00    +0.023 C 
ATOM     10  C   UNL     1      29.356 -25.414 -14.619  0.00  0.00    -0.021 C 
ATOM     11  C   UNL     1      32.000 -24.921 -14.193  0.00  0.00    +0.023 C 
ATOM     12  C   UNL     1      32.279 -23.379 -13.874  0.00  0.00    +0.165 C 
ATOM     13  C   UNL     1      28.513 -22.395 -16.918  0.00  0.00    -0.002 C 
ATOM     14  C   UNL     1      28.208 -21.927 -14.490  0.00  0.00    -0.002 C 
ATOM     15  C   UNL     1      31.811 -24.024 -17.067  0.00  0.00    -0.100 C 
ATOM     16  H   UNL     1      30.028 -24.349 -16.851  0.00  0.00    -0.080 HD
ENDBRANCH   3  12
ENDBRANCH   2   3
BRANCH   2  17
ATOM     17  C   UNL     1      35.569 -24.507 -14.333  0.00  0.00    +0.227 C 
BRANCH  17  19
ATOM     18  S   UNL     1      37.981 -25.933 -14.328  0.00  0.00    -0.088 S 
ATOM     19  C   UNL     1      36.938 -24.735 -13.688  0.00  0.00    +0.046 C 
ATOM     20  C   UNL     1      37.495 -24.089 -12.607  0.00  0.00    +0.006 C 
ATOM     21  C   UNL     1      38.797 -24.584 -12.299  0.00  0.00    +0.007 C 
ATOM     22  C   UNL     1      39.183 -25.590 -13.158  0.00  0.00    +0.035 C 
ENDBRANCH  17  19
BRANCH  17  24
ATOM     23  S   UNL     1      37.089 -22.595 -15.708  0.00  0.00    -0.088 S 
ATOM     24  C   UNL     1      35.679 -23.550 -15.522  0.00  0.00    +0.046 C 
ATOM     25  C   UNL     1      34.765 -23.321 -16.526  0.00  0.00    +0.006 C 
ATOM     26  C   UNL     1      35.228 -22.350 -17.460  0.00  0.00    +0.007 C 
ATOM     27  C   UNL     1      36.478 -21.874 -17.135  0.00  0.00    +0.035 C 
ENDBRANCH  17  24
BRANCH  17  28
ATOM     28  O   UNL     1      35.009 -25.762 -14.772  0.00  0.00    -0.369 OA
ATOM     29  H   UNL     1      34.532 -26.178 -14.036  0.00  0.00    +0.212 HD
ENDBRANCH  17  28
ENDBRANCH   2  17
TORSDOF 6
ENDMDL
MODEL 8
REMARK VINA RESULT:      -6.9      1.801      3.245
REMARK  Name = 118984411
REMARK  6 active torsions:
REMARK  status: ('A' for Active; 'I' for Inactive)
REMARK    1  A    between atoms: C_2  and  O_3
REMARK    2  A    between atoms: C_2  and  C_17
REMARK    3  A    between atoms: O_3  and  C_12
REMARK    4  A    between atoms: C_17  and  C_19
REMARK    5  A    between atoms: C_17  and  C_24
REMARK    6  A    between atoms: C_17  and  O_28
REMARK                            x       y       z     vdW  Elec       q    Type
REMARK                         _______ _______ _______ _____ _____    ______ ____
ROOT
ATOM      1  O   UNL     1      31.088 -12.363 -22.589  0.00  0.00    -0.247 OA
ATOM      2  C   UNL     1      32.249 -11.974 -22.617  0.00  0.00    +0.350 C 
ENDROOT
BRANCH   2   3
ATOM      3  O   UNL     1      32.680 -10.780 -22.094  0.00  0.00    -0.450 OA
BRANCH   3  12
ATOM      4  N   UNL     1      32.998  -7.141 -23.336  0.00  0.00    +0.388 N 
ATOM      5  C   UNL     1      31.999  -7.228 -22.262  0.00  0.00    -0.054 C 
ATOM      6  C   UNL     1      31.375  -5.845 -22.192  0.00  0.00    -0.017 C 
ATOM      7  C   UNL     1      32.343  -7.797 -24.439  0.00  0.00    -0.054 C 
ATOM      8  C   UNL     1      30.966  -5.584 -23.732  0.00  0.00    -0.004 C 
ATOM      9  C   UNL     1      32.196  -8.462 -21.429  0.00  0.00    +0.023 C 
ATOM     10  C   UNL     1      31.063  -6.886 -24.685  0.00  0.00    -0.021 C 
ATOM     11  C   UNL     1      32.126  -9.300 -24.009  0.00  0.00    +0.023 C 
ATOM     12  C   UNL     1      31.923  -9.632 -22.457  0.00  0.00    +0.165 C 
ATOM     13  C   UNL     1      32.347  -4.769 -21.688  0.00  0.00    -0.002 C 
ATOM     14  C   UNL     1      30.126  -5.827 -21.295  0.00  0.00    -0.002 C 
ATOM     15  C   UNL     1      34.370  -7.517 -23.068  0.00  0.00    -0.100 C 
ATOM     16  H   UNL     1      33.233  -6.166 -23.527  0.00  0.00    -0.080 HD
ENDBRANCH   3  12
ENDBRANCH   2   3
BRANCH   2  17
ATOM     17  C   UNL     1      33.423 -12.766 -23.199  0.00  0.00    +0.227 C 
BRANCH  17  19
ATOM     18  S   UNL     1      33.811 -12.114 -25.896  0.00  0.00    -0.088 S 
ATOM     19  C   UNL     1      33.242 -13.161 -24.666  0.00  0.00    +0.046 C 
ATOM     20  C   UNL     1      32.657 -14.296 -25.183  0.00  0.00    +0.006 C 
ATOM     21  C   UNL     1      32.676 -14.306 -26.609  0.00  0.00    +0.007 C 
ATOM     22  C   UNL     1      33.274 -13.178 -27.126  0.00  0.00    +0.035 C 
ENDBRANCH  17  19
BRANCH  17  24
ATOM     23  S   UNL     1      34.715 -15.247 -23.044  0.00  0.00    -0.088 S 
ATOM     24  C   UNL     1      33.795 -13.982 -22.348  0.00  0.00    +0.046 C 
ATOM     25  C   UNL     1      33.485 -14.233 -21.030  0.00  0.00    +0.006 C 
ATOM     26  C   UNL     1      34.010 -15.481 -20.586  0.00  0.00    +0.007 C 
ATOM     27  C   UNL     1      34.702 -16.136 -21.580  0.00  0.00    +0.035 C 
ENDBRANCH  17  24
BRANCH  17  28
ATOM     28  O   UNL     1      34.448 -11.758 -23.077  0.00  0.00    -0.369 OA
ATOM     29  H   UNL     1      35.211 -12.128 -22.605  0.00  0.00    +0.212 HD
ENDBRANCH  17  28
ENDBRANCH   2  17
TORSDOF 6
ENDMDL
MODEL 9
REMARK VINA RESULT:      -6.8     13.834     16.179
REMARK  Name = 118984411
REMARK  6 active torsions:
REMARK  status: ('A' for Active; 'I' for Inactive)
REMARK    1  A    between atoms: C_2  and  O_3
REMARK    2  A    between atoms: C_2  and  C_17
REMARK    3  A    between atoms: O_3  and  C_12
REMARK    4  A    between atoms: C_17  and  C_19
REMARK    5  A    between atoms: C_17  and  C_24
REMARK    6  A    between atoms: C_17  and  O_28
REMARK                            x       y       z     vdW  Elec       q    Type
REMARK                         _______ _______ _______ _____ _____    ______ ____
ROOT
ATOM      1  O   UNL     1      34.059 -25.366 -14.399  0.00  0.00    -0.247 OA
ATOM      2  C   UNL     1      34.384 -24.220 -14.115  0.00  0.00    +0.350 C 
ENDROOT
BRANCH   2   3
ATOM      3  O   UNL     1      33.574 -23.323 -13.464  0.00  0.00    -0.450 OA
BRANCH   3  12
ATOM      4  N   UNL     1      30.818 -24.234 -16.006  0.00  0.00    +0.388 N 
ATOM      5  C   UNL     1      30.377 -23.123 -15.151  0.00  0.00    -0.054 C 
ATOM      6  C   UNL     1      28.922 -22.893 -15.525  0.00  0.00    -0.017 C 
ATOM      7  C   UNL     1      30.803 -25.358 -15.105  0.00  0.00    -0.054 C 
ATOM      8  C   UNL     1      28.304 -24.379 -15.397  0.00  0.00    -0.004 C 
ATOM      9  C   UNL     1      31.544 -22.420 -14.519  0.00  0.00    +0.023 C 
ATOM     10  C   UNL     1      29.275 -25.453 -14.678  0.00  0.00    -0.021 C 
ATOM     11  C   UNL     1      31.881 -25.060 -13.990  0.00  0.00    +0.023 C 
ATOM     12  C   UNL     1      32.174 -23.538 -13.596  0.00  0.00    +0.165 C 
ATOM     13  C   UNL     1      28.745 -22.340 -16.945  0.00  0.00    -0.002 C 
ATOM     14  C   UNL     1      28.225 -21.935 -14.542  0.00  0.00    -0.002 C 
ATOM     15  C   UNL     1      31.991 -24.072 -16.838  0.00  0.00    -0.100 C 
ATOM     16  H   UNL     1      30.187 -24.344 -16.801  0.00  0.00    -0.080 HD
ENDBRANCH   3  12
ENDBRANCH   2   3
BRANCH   2  17
ATOM     17  C   UNL     1      35.757 -23.604 -14.397  0.00  0.00    +0.227 C 
BRANCH  17  19
ATOM     18  S   UNL     1      37.321 -22.135 -16.199  0.00  0.00    -0.088 S 
ATOM     19  C   UNL     1      35.871 -22.939 -15.770  0.00  0.00    +0.046 C 
ATOM     20  C   UNL     1      34.931 -22.882 -16.776  0.00  0.00    +0.006 C 
ATOM     21  C   UNL     1      35.409 -22.168 -17.915  0.00  0.00    +0.007 C 
ATOM     22  C   UNL     1      36.694 -21.707 -17.734  0.00  0.00    +0.035 C 
ENDBRANCH  17  19
BRANCH  17  24
ATOM     23  S   UNL     1      37.903 -24.423 -12.791  0.00  0.00    -0.088 S 
ATOM     24  C   UNL     1      36.904 -24.591 -14.172  0.00  0.00    +0.046 C 
ATOM     25  C   UNL     1      37.283 -25.658 -14.956  0.00  0.00    +0.006 C 
ATOM     26  C   UNL     1      38.408 -26.346 -14.416  0.00  0.00    +0.007 C 
ATOM     27  C   UNL     1      38.845 -25.780 -13.240  0.00  0.00    +0.035 C 
ENDBRANCH  17  24
BRANCH  17  28
ATOM     28  O   UNL     1      35.766 -22.605 -13.356  0.00  0.00    -0.369 OA
ATOM     29  H   UNL     1      34.863 -22.472 -13.028  0.00  0.00    +0.212 HD
ENDBRANCH  17  28
ENDBRANCH   2  17
TORSDOF 6
ENDMDL
