MODEL 1
REMARK VINA RESULT:      -8.2      0.000      0.000
REMARK  Name = 68704
REMARK  5 active torsions:
REMARK  status: ('A' for Active; 'I' for Inactive)
REMARK    1  A    between atoms: C_1  and  C_15
REMARK    2  A    between atoms: C_2  and  C_7
REMARK    3  A    between atoms: C_7  and  C_11
REMARK    4  A    between atoms: N_10  and  O_13
REMARK    5  A    between atoms: C_15  and  C_16
REMARK                            x       y       z     vdW  Elec       q    Type
REMARK                         _______ _______ _______ _____ _____    ______ ____
ROOT
ATOM      1  C   UNL     1      34.219 -21.735 -19.512  0.00  0.00    -0.022 C 
ATOM      2  C   UNL     1      35.161 -19.546 -20.927  0.00  0.00    -0.014 C 
ATOM      3  C   UNL     1      33.314 -20.860 -20.092  0.00  0.00    -0.005 C 
ATOM      4  C   UNL     1      35.586 -21.536 -19.626  0.00  0.00    -0.005 C 
ATOM      5  C   UNL     1      33.788 -19.758 -20.804  0.00  0.00    -0.004 C 
ATOM      6  C   UNL     1      36.060 -20.435 -20.338  0.00  0.00    -0.004 C 
ENDROOT
BRANCH   2   7
ATOM      7  C   UNL     1      35.669 -18.368 -21.689  0.00  0.00    +0.101 C 
ATOM      8  C   UNL     1      35.521 -18.550 -23.212  0.00  0.00    +0.014 C 
BRANCH   7  11
ATOM      9  O   UNL     1      35.173 -16.535 -20.161  0.00  0.00    -0.273 OA
ATOM     10  N   UNL     1      34.143 -16.571 -22.226  0.00  0.00    -0.197 N 
ATOM     11  C   UNL     1      34.988 -17.058 -21.258  0.00  0.00    +0.248 C 
ATOM     12  H   UNL     1      34.025 -17.022 -23.093  0.00  0.00    +0.182 HD
BRANCH  10  13
ATOM     13  O   UNL     1      33.463 -15.389 -21.902  0.00  0.00    -0.295 OA
ATOM     14  H   UNL     1      34.104 -14.708 -21.643  0.00  0.00    +0.241 HD
ENDBRANCH  10  13
ENDBRANCH   7  11
ENDBRANCH   2   7
BRANCH   1  15
ATOM     15  C   UNL     1      33.705 -22.927 -18.743  0.00  0.00    +0.026 C 
BRANCH  15  16
ATOM     16  C   UNL     1      33.417 -22.633 -17.257  0.00  0.00    +0.004 C 
ATOM     17  C   UNL     1      32.082 -23.227 -16.803  0.00  0.00    +0.000 C 
ATOM     18  C   UNL     1      34.550 -23.191 -16.391  0.00  0.00    +0.000 C 
ENDBRANCH  15  16
ENDBRANCH   1  15
TORSDOF 5
ENDMDL
MODEL 2
REMARK VINA RESULT:      -8.0      3.289      6.775
REMARK  Name = 68704
REMARK  5 active torsions:
REMARK  status: ('A' for Active; 'I' for Inactive)
REMARK    1  A    between atoms: C_1  and  C_15
REMARK    2  A    between atoms: C_2  and  C_7
REMARK    3  A    between atoms: C_7  and  C_11
REMARK    4  A    between atoms: N_10  and  O_13
REMARK    5  A    between atoms: C_15  and  C_16
REMARK                            x       y       z     vdW  Elec       q    Type
REMARK                         _______ _______ _______ _____ _____    ______ ____
ROOT
ATOM      1  C   UNL     1      34.930 -16.971 -23.086  0.00  0.00    -0.022 C 
ATOM      2  C   UNL     1      34.924 -19.333 -21.636  0.00  0.00    -0.014 C 
ATOM      3  C   UNL     1      35.057 -16.921 -21.707  0.00  0.00    -0.005 C 
ATOM      4  C   UNL     1      34.799 -18.178 -23.754  0.00  0.00    -0.005 C 
ATOM      5  C   UNL     1      35.055 -18.110 -20.977  0.00  0.00    -0.004 C 
ATOM      6  C   UNL     1      34.797 -19.366 -23.024  0.00  0.00    -0.004 C 
ENDROOT
BRANCH   2   7
ATOM      7  C   UNL     1      34.921 -20.604 -20.855  0.00  0.00    +0.101 C 
ATOM      8  C   UNL     1      36.070 -20.663 -19.831  0.00  0.00    +0.014 C 
BRANCH   7  11
ATOM      9  O   UNL     1      32.578 -20.167 -20.350  0.00  0.00    -0.273 OA
ATOM     10  N   UNL     1      33.653 -21.881 -19.241  0.00  0.00    -0.197 N 
ATOM     11  C   UNL     1      33.581 -20.846 -20.142  0.00  0.00    +0.248 C 
ATOM     12  H   UNL     1      34.479 -22.401 -19.105  0.00  0.00    +0.182 HD
BRANCH  10  13
ATOM     13  O   UNL     1      32.477 -22.153 -18.528  0.00  0.00    -0.295 OA
ATOM     14  H   UNL     1      31.745 -22.283 -19.152  0.00  0.00    +0.241 HD
ENDBRANCH  10  13
ENDBRANCH   7  11
ENDBRANCH   2   7
BRANCH   1  15
ATOM     15  C   UNL     1      34.934 -15.684 -23.875  0.00  0.00    +0.026 C 
BRANCH  15  16
ATOM     16  C   UNL     1      33.531 -15.209 -24.301  0.00  0.00    +0.004 C 
ATOM     17  C   UNL     1      33.260 -13.765 -23.872  0.00  0.00    +0.000 C 
ATOM     18  C   UNL     1      33.382 -15.333 -25.819  0.00  0.00    +0.000 C 
ENDBRANCH  15  16
ENDBRANCH   1  15
TORSDOF 5
ENDMDL
MODEL 3
REMARK VINA RESULT:      -8.0      5.110      7.442
REMARK  Name = 68704
REMARK  5 active torsions:
REMARK  status: ('A' for Active; 'I' for Inactive)
REMARK    1  A    between atoms: C_1  and  C_15
REMARK    2  A    between atoms: C_2  and  C_7
REMARK    3  A    between atoms: C_7  and  C_11
REMARK    4  A    between atoms: N_10  and  O_13
REMARK    5  A    between atoms: C_15  and  C_16
REMARK                            x       y       z     vdW  Elec       q    Type
REMARK                         _______ _______ _______ _____ _____    ______ ____
ROOT
ATOM      1  C   UNL     1      35.222 -22.018 -18.711  0.00  0.00    -0.022 C 
ATOM      2  C   UNL     1      35.880 -22.761 -16.123  0.00  0.00    -0.014 C 
ATOM      3  C   UNL     1      34.294 -22.705 -17.944  0.00  0.00    -0.005 C 
ATOM      4  C   UNL     1      36.472 -21.696 -18.209  0.00  0.00    -0.005 C 
ATOM      5  C   UNL     1      34.625 -23.079 -16.642  0.00  0.00    -0.004 C 
ATOM      6  C   UNL     1      36.803 -22.069 -16.907  0.00  0.00    -0.004 C 
ENDROOT
BRANCH   2   7
ATOM      7  C   UNL     1      36.235 -23.159 -14.730  0.00  0.00    +0.101 C 
ATOM      8  C   UNL     1      35.038 -23.768 -13.975  0.00  0.00    +0.014 C 
BRANCH   7  11
ATOM      9  O   UNL     1      38.485 -23.875 -14.129  0.00  0.00    -0.273 OA
ATOM     10  N   UNL     1      37.157 -25.302 -15.364  0.00  0.00    -0.197 N 
ATOM     11  C   UNL     1      37.422 -24.136 -14.688  0.00  0.00    +0.248 C 
ATOM     12  H   UNL     1      36.289 -25.471 -15.798  0.00  0.00    +0.182 HD
BRANCH  10  13
ATOM     13  O   UNL     1      38.199 -26.239 -15.394  0.00  0.00    -0.295 OA
ATOM     14  H   UNL     1      38.607 -26.297 -14.516  0.00  0.00    +0.241 HD
ENDBRANCH  10  13
ENDBRANCH   7  11
ENDBRANCH   2   7
BRANCH   1  15
ATOM     15  C   UNL     1      34.862 -21.614 -20.120  0.00  0.00    +0.026 C 
BRANCH  15  16
ATOM     16  C   UNL     1      34.383 -20.155 -20.246  0.00  0.00    +0.004 C 
ATOM     17  C   UNL     1      35.123 -19.401 -21.354  0.00  0.00    +0.000 C 
ATOM     18  C   UNL     1      32.877 -20.127 -20.521  0.00  0.00    +0.000 C 
ENDBRANCH  15  16
ENDBRANCH   1  15
TORSDOF 5
ENDMDL
MODEL 4
REMARK VINA RESULT:      -8.0      3.638      6.441
REMARK  Name = 68704
REMARK  5 active torsions:
REMARK  status: ('A' for Active; 'I' for Inactive)
REMARK    1  A    between atoms: C_1  and  C_15
REMARK    2  A    between atoms: C_2  and  C_7
REMARK    3  A    between atoms: C_7  and  C_11
REMARK    4  A    between atoms: N_10  and  O_13
REMARK    5  A    between atoms: C_15  and  C_16
REMARK                            x       y       z     vdW  Elec       q    Type
REMARK                         _______ _______ _______ _____ _____    ______ ____
ROOT
ATOM      1  C   UNL     1      34.861 -18.660 -21.490  0.00  0.00    -0.022 C 
ATOM      2  C   UNL     1      35.380 -20.872 -19.903  0.00  0.00    -0.014 C 
ATOM      3  C   UNL     1      36.172 -18.972 -21.168  0.00  0.00    -0.005 C 
ATOM      4  C   UNL     1      33.805 -19.432 -21.034  0.00  0.00    -0.005 C 
ATOM      5  C   UNL     1      36.434 -20.085 -20.369  0.00  0.00    -0.004 C 
ATOM      6  C   UNL     1      34.066 -20.545 -20.235  0.00  0.00    -0.004 C 
ENDROOT
BRANCH   2   7
ATOM      7  C   UNL     1      35.660 -22.063 -19.048  0.00  0.00    +0.101 C 
ATOM      8  C   UNL     1      36.346 -21.683 -17.723  0.00  0.00    +0.014 C 
BRANCH   7  11
ATOM      9  O   UNL     1      33.826 -23.569 -19.604  0.00  0.00    -0.273 OA
ATOM     10  N   UNL     1      33.961 -22.724 -17.460  0.00  0.00    -0.197 N 
ATOM     11  C   UNL     1      34.390 -22.880 -18.756  0.00  0.00    +0.248 C 
ATOM     12  H   UNL     1      34.445 -22.162 -16.812  0.00  0.00    +0.182 HD
BRANCH  10  13
ATOM     13  O   UNL     1      32.793 -23.418 -17.117  0.00  0.00    -0.295 OA
ATOM     14  H   UNL     1      33.001 -24.357 -16.988  0.00  0.00    +0.241 HD
ENDBRANCH  10  13
ENDBRANCH   7  11
ENDBRANCH   2   7
BRANCH   1  15
ATOM     15  C   UNL     1      34.579 -17.456 -22.355  0.00  0.00    +0.026 C 
BRANCH  15  16
ATOM     16  C   UNL     1      35.062 -17.608 -23.811  0.00  0.00    +0.004 C 
ATOM     17  C   UNL     1      34.602 -18.927 -24.434  0.00  0.00    +0.000 C 
ATOM     18  C   UNL     1      34.550 -16.435 -24.651  0.00  0.00    +0.000 C 
ENDBRANCH  15  16
ENDBRANCH   1  15
TORSDOF 5
ENDMDL
MODEL 5
REMARK VINA RESULT:      -7.9      3.419      6.322
REMARK  Name = 68704
REMARK  5 active torsions:
REMARK  status: ('A' for Active; 'I' for Inactive)
REMARK    1  A    between atoms: C_1  and  C_15
REMARK    2  A    between atoms: C_2  and  C_7
REMARK    3  A    between atoms: C_7  and  C_11
REMARK    4  A    between atoms: N_10  and  O_13
REMARK    5  A    between atoms: C_15  and  C_16
REMARK                            x       y       z     vdW  Elec       q    Type
REMARK                         _______ _______ _______ _____ _____    ______ ____
ROOT
ATOM      1  C   UNL     1      35.025 -18.266 -21.566  0.00  0.00    -0.022 C 
ATOM      2  C   UNL     1      35.294 -20.630 -20.144  0.00  0.00    -0.014 C 
ATOM      3  C   UNL     1      36.291 -18.711 -21.222  0.00  0.00    -0.005 C 
ATOM      4  C   UNL     1      33.891 -18.979 -21.212  0.00  0.00    -0.005 C 
ATOM      5  C   UNL     1      36.427 -19.901 -20.506  0.00  0.00    -0.004 C 
ATOM      6  C   UNL     1      34.027 -20.169 -20.496  0.00  0.00    -0.004 C 
ENDROOT
BRANCH   2   7
ATOM      7  C   UNL     1      35.439 -21.903 -19.379  0.00  0.00    +0.101 C 
ATOM      8  C   UNL     1      36.383 -21.753 -18.171  0.00  0.00    +0.014 C 
BRANCH   7  11
ATOM      9  O   UNL     1      33.111 -22.568 -19.653  0.00  0.00    -0.273 OA
ATOM     10  N   UNL     1      34.090 -22.780 -17.574  0.00  0.00    -0.197 N 
ATOM     11  C   UNL     1      34.083 -22.456 -18.909  0.00  0.00    +0.248 C 
ATOM     12  H   UNL     1      34.894 -22.676 -17.014  0.00  0.00    +0.182 HD
BRANCH  10  13
ATOM     13  O   UNL     1      32.883 -23.272 -17.059  0.00  0.00    -0.295 OA
ATOM     14  H   UNL     1      32.827 -23.063 -16.114  0.00  0.00    +0.241 HD
ENDBRANCH  10  13
ENDBRANCH   7  11
ENDBRANCH   2   7
BRANCH   1  15
ATOM     15  C   UNL     1      34.879 -16.979 -22.341  0.00  0.00    +0.026 C 
BRANCH  15  16
ATOM     16  C   UNL     1      33.887 -15.981 -21.712  0.00  0.00    +0.004 C 
ATOM     17  C   UNL     1      34.473 -15.290 -20.478  0.00  0.00    +0.000 C 
ATOM     18  C   UNL     1      33.484 -14.930 -22.749  0.00  0.00    +0.000 C 
ENDBRANCH  15  16
ENDBRANCH   1  15
TORSDOF 5
ENDMDL
MODEL 6
REMARK VINA RESULT:      -7.9      3.827      5.966
REMARK  Name = 68704
REMARK  5 active torsions:
REMARK  status: ('A' for Active; 'I' for Inactive)
REMARK    1  A    between atoms: C_1  and  C_15
REMARK    2  A    between atoms: C_2  and  C_7
REMARK    3  A    between atoms: C_7  and  C_11
REMARK    4  A    between atoms: N_10  and  O_13
REMARK    5  A    between atoms: C_15  and  C_16
REMARK                            x       y       z     vdW  Elec       q    Type
REMARK                         _______ _______ _______ _____ _____    ______ ____
ROOT
ATOM      1  C   UNL     1      35.128 -17.024 -22.816  0.00  0.00    -0.022 C 
ATOM      2  C   UNL     1      33.622 -14.793 -23.477  0.00  0.00    -0.014 C 
ATOM      3  C   UNL     1      34.714 -16.847 -24.127  0.00  0.00    -0.005 C 
ATOM      4  C   UNL     1      34.803 -16.107 -21.829  0.00  0.00    -0.005 C 
ATOM      5  C   UNL     1      33.956 -15.724 -24.460  0.00  0.00    -0.004 C 
ATOM      6  C   UNL     1      34.045 -14.984 -22.162  0.00  0.00    -0.004 C 
ENDROOT
BRANCH   2   7
ATOM      7  C   UNL     1      32.812 -13.591 -23.832  0.00  0.00    +0.101 C 
ATOM      8  C   UNL     1      32.284 -12.854 -22.586  0.00  0.00    +0.014 C 
BRANCH   7  11
ATOM      9  O   UNL     1      33.567 -12.653 -25.950  0.00  0.00    -0.273 OA
ATOM     10  N   UNL     1      34.318 -11.706 -23.984  0.00  0.00    -0.197 N 
ATOM     11  C   UNL     1      33.590 -12.608 -24.722  0.00  0.00    +0.248 C 
ATOM     12  H   UNL     1      34.307 -11.704 -23.000  0.00  0.00    +0.182 HD
BRANCH  10  13
ATOM     13  O   UNL     1      35.077 -10.786 -24.722  0.00  0.00    -0.295 OA
ATOM     14  H   UNL     1      36.003 -11.073 -24.740  0.00  0.00    +0.241 HD
ENDBRANCH  10  13
ENDBRANCH   7  11
ENDBRANCH   2   7
BRANCH   1  15
ATOM     15  C   UNL     1      35.948 -18.239 -22.458  0.00  0.00    +0.026 C 
BRANCH  15  16
ATOM     16  C   UNL     1      35.610 -18.835 -21.077  0.00  0.00    +0.004 C 
ATOM     17  C   UNL     1      34.364 -19.722 -21.124  0.00  0.00    +0.000 C 
ATOM     18  C   UNL     1      36.800 -19.645 -20.558  0.00  0.00    +0.000 C 
ENDBRANCH  15  16
ENDBRANCH   1  15
TORSDOF 5
ENDMDL
MODEL 7
REMARK VINA RESULT:      -7.8      3.809      5.974
REMARK  Name = 68704
REMARK  5 active torsions:
REMARK  status: ('A' for Active; 'I' for Inactive)
REMARK    1  A    between atoms: C_1  and  C_15
REMARK    2  A    between atoms: C_2  and  C_7
REMARK    3  A    between atoms: C_7  and  C_11
REMARK    4  A    between atoms: N_10  and  O_13
REMARK    5  A    between atoms: C_15  and  C_16
REMARK                            x       y       z     vdW  Elec       q    Type
REMARK                         _______ _______ _______ _____ _____    ______ ____
ROOT
ATOM      1  C   UNL     1      35.115 -17.049 -22.835  0.00  0.00    -0.022 C 
ATOM      2  C   UNL     1      33.619 -14.804 -23.469  0.00  0.00    -0.014 C 
ATOM      3  C   UNL     1      34.782 -16.150 -21.834  0.00  0.00    -0.005 C 
ATOM      4  C   UNL     1      34.715 -16.847 -24.146  0.00  0.00    -0.005 C 
ATOM      5  C   UNL     1      34.029 -15.020 -22.153  0.00  0.00    -0.004 C 
ATOM      6  C   UNL     1      33.962 -15.718 -24.465  0.00  0.00    -0.004 C 
ENDROOT
BRANCH   2   7
ATOM      7  C   UNL     1      32.812 -13.596 -23.811  0.00  0.00    +0.101 C 
ATOM      8  C   UNL     1      32.298 -12.864 -22.557  0.00  0.00    +0.014 C 
BRANCH   7  11
ATOM      9  O   UNL     1      33.565 -12.658 -25.930  0.00  0.00    -0.273 OA
ATOM     10  N   UNL     1      34.315 -11.709 -23.965  0.00  0.00    -0.197 N 
ATOM     11  C   UNL     1      33.588 -12.612 -24.702  0.00  0.00    +0.248 C 
ATOM     12  H   UNL     1      34.305 -11.707 -22.980  0.00  0.00    +0.182 HD
BRANCH  10  13
ATOM     13  O   UNL     1      35.072 -10.788 -24.703  0.00  0.00    -0.295 OA
ATOM     14  H   UNL     1      36.009 -10.878 -24.467  0.00  0.00    +0.241 HD
ENDBRANCH  10  13
ENDBRANCH   7  11
ENDBRANCH   2   7
BRANCH   1  15
ATOM     15  C   UNL     1      35.930 -18.271 -22.489  0.00  0.00    +0.026 C 
BRANCH  15  16
ATOM     16  C   UNL     1      35.627 -18.847 -21.091  0.00  0.00    +0.004 C 
ATOM     17  C   UNL     1      34.403 -19.766 -21.102  0.00  0.00    +0.000 C 
ATOM     18  C   UNL     1      36.845 -19.616 -20.574  0.00  0.00    +0.000 C 
ENDBRANCH  15  16
ENDBRANCH   1  15
TORSDOF 5
ENDMDL
MODEL 8
REMARK VINA RESULT:      -7.8      2.149      3.786
REMARK  Name = 68704
REMARK  5 active torsions:
REMARK  status: ('A' for Active; 'I' for Inactive)
REMARK    1  A    between atoms: C_1  and  C_15
REMARK    2  A    between atoms: C_2  and  C_7
REMARK    3  A    between atoms: C_7  and  C_11
REMARK    4  A    between atoms: N_10  and  O_13
REMARK    5  A    between atoms: C_15  and  C_16
REMARK                            x       y       z     vdW  Elec       q    Type
REMARK                         _______ _______ _______ _____ _____    ______ ____
ROOT
ATOM      1  C   UNL     1      35.184 -19.044 -21.706  0.00  0.00    -0.022 C 
ATOM      2  C   UNL     1      34.753 -16.810 -23.288  0.00  0.00    -0.014 C 
ATOM      3  C   UNL     1      34.929 -19.209 -23.059  0.00  0.00    -0.005 C 
ATOM      4  C   UNL     1      35.228 -17.785 -21.130  0.00  0.00    -0.005 C 
ATOM      5  C   UNL     1      34.712 -18.084 -23.855  0.00  0.00    -0.004 C 
ATOM      6  C   UNL     1      35.011 -16.661 -21.926  0.00  0.00    -0.004 C 
ENDROOT
BRANCH   2   7
ATOM      7  C   UNL     1      34.522 -15.607 -24.140  0.00  0.00    +0.101 C 
ATOM      8  C   UNL     1      33.880 -15.964 -25.494  0.00  0.00    +0.014 C 
BRANCH   7  11
ATOM      9  O   UNL     1      32.714 -14.827 -22.704  0.00  0.00    -0.273 OA
ATOM     10  N   UNL     1      34.079 -13.268 -23.718  0.00  0.00    -0.197 N 
ATOM     11  C   UNL     1      33.667 -14.546 -23.428  0.00  0.00    +0.248 C 
ATOM     12  H   UNL     1      34.851 -13.086 -24.303  0.00  0.00    +0.182 HD
BRANCH  10  13
ATOM     13  O   UNL     1      33.336 -12.238 -23.125  0.00  0.00    -0.295 OA
ATOM     14  H   UNL     1      33.916 -11.709 -22.554  0.00  0.00    +0.241 HD
ENDBRANCH  10  13
ENDBRANCH   7  11
ENDBRANCH   2   7
BRANCH   1  15
ATOM     15  C   UNL     1      35.420 -20.262 -20.846  0.00  0.00    +0.026 C 
BRANCH  15  16
ATOM     16  C   UNL     1      34.252 -20.588 -19.895  0.00  0.00    +0.004 C 
ATOM     17  C   UNL     1      32.892 -20.423 -20.577  0.00  0.00    +0.000 C 
ATOM     18  C   UNL     1      34.395 -22.020 -19.372  0.00  0.00    +0.000 C 
ENDBRANCH  15  16
ENDBRANCH   1  15
TORSDOF 5
ENDMDL
MODEL 9
REMARK VINA RESULT:      -7.8      7.025      8.370
REMARK  Name = 68704
REMARK  5 active torsions:
REMARK  status: ('A' for Active; 'I' for Inactive)
REMARK    1  A    between atoms: C_1  and  C_15
REMARK    2  A    between atoms: C_2  and  C_7
REMARK    3  A    between atoms: C_7  and  C_11
REMARK    4  A    between atoms: N_10  and  O_13
REMARK    5  A    between atoms: C_15  and  C_16
REMARK                            x       y       z     vdW  Elec       q    Type
REMARK                         _______ _______ _______ _____ _____    ______ ____
ROOT
ATOM      1  C   UNL     1      31.760 -23.236 -15.475  0.00  0.00    -0.022 C 
ATOM      2  C   UNL     1      34.471 -23.798 -15.354  0.00  0.00    -0.014 C 
ATOM      3  C   UNL     1      32.331 -23.568 -14.257  0.00  0.00    -0.005 C 
ATOM      4  C   UNL     1      32.518 -23.181 -16.634  0.00  0.00    -0.005 C 
ATOM      5  C   UNL     1      33.696 -23.851 -14.196  0.00  0.00    -0.004 C 
ATOM      6  C   UNL     1      33.882 -23.464 -16.573  0.00  0.00    -0.004 C 
ENDROOT
BRANCH   2   7
ATOM      7  C   UNL     1      35.931 -24.100 -15.289  0.00  0.00    +0.101 C 
ATOM      8  C   UNL     1      36.675 -23.176 -14.306  0.00  0.00    +0.014 C 
BRANCH   7  11
ATOM      9  O   UNL     1      36.114 -26.488 -15.736  0.00  0.00    -0.273 OA
ATOM     10  N   UNL     1      36.537 -25.721 -13.601  0.00  0.00    -0.197 N 
ATOM     11  C   UNL     1      36.206 -25.569 -14.926  0.00  0.00    +0.248 C 
ATOM     12  H   UNL     1      36.600 -24.955 -12.985  0.00  0.00    +0.182 HD
BRANCH  10  13
ATOM     13  O   UNL     1      36.781 -27.036 -13.181  0.00  0.00    -0.295 OA
ATOM     14  H   UNL     1      37.701 -27.113 -12.882  0.00  0.00    +0.241 HD
ENDBRANCH  10  13
ENDBRANCH   7  11
ENDBRANCH   2   7
BRANCH   1  15
ATOM     15  C   UNL     1      30.284 -22.930 -15.540  0.00  0.00    +0.026 C 
BRANCH  15  16
ATOM     16  C   UNL     1      29.422 -24.112 -16.027  0.00  0.00    +0.004 C 
ATOM     17  C   UNL     1      28.965 -25.003 -14.870  0.00  0.00    +0.000 C 
ATOM     18  C   UNL     1      28.202 -23.584 -16.785  0.00  0.00    +0.000 C 
ENDBRANCH  15  16
ENDBRANCH   1  15
TORSDOF 5
ENDMDL
