MODEL 1
REMARK VINA RESULT:     -10.1      0.000      0.000
REMARK  Name = 5745207
REMARK  7 active torsions:
REMARK  status: ('A' for Active; 'I' for Inactive)
REMARK    1  A    between atoms: C_1  and  C_16
REMARK    2  A    between atoms: C_4  and  O_7
REMARK    3  A    between atoms: O_7  and  C_8
REMARK    4  A    between atoms: C_8  and  C_10
REMARK    5  A    between atoms: C_16  and  N_17
REMARK    6  A    between atoms: N_17  and  C_20
REMARK    7  A    between atoms: C_20  and  C_24
REMARK                            x       y       z     vdW  Elec       q    Type
REMARK                         _______ _______ _______ _____ _____    ______ ____
ROOT
ATOM      1  C   UNL     1      34.960 -19.610 -20.991  0.00  0.00    -0.044 C 
ATOM      2  C   UNL     1      33.577 -19.499 -20.970  0.00  0.00    -0.003 C 
ATOM      3  C   UNL     1      35.607 -20.610 -20.277  0.00  0.00    -0.003 C 
ATOM      4  C   UNL     1      33.466 -21.412 -19.499  0.00  0.00    +0.139 C 
ATOM      5  C   UNL     1      32.825 -20.404 -20.221  0.00  0.00    +0.037 C 
ATOM      6  C   UNL     1      34.856 -21.514 -19.527  0.00  0.00    +0.037 C 
ENDROOT
BRANCH   4   7
ATOM      7  O   UNL     1      32.732 -22.295 -18.767  0.00  0.00    -0.471 OA
BRANCH   7   8
ATOM      8  C   UNL     1      33.438 -23.108 -17.831  0.00  0.00    +0.234 C 
BRANCH   8  10
ATOM      9  F   UNL     1      34.606 -23.771 -15.346  0.00  0.00    -0.204 F 
ATOM     10  C   UNL     1      32.651 -23.182 -16.556  0.00  0.00    +0.049 C 
ATOM     11  C   UNL     1      33.290 -23.514 -15.367  0.00  0.00    +0.140 C 
ATOM     12  C   UNL     1      31.286 -22.917 -16.576  0.00  0.00    +0.002 C 
ATOM     13  C   UNL     1      32.556 -23.582 -14.184  0.00  0.00    +0.029 C 
ATOM     14  C   UNL     1      30.551 -22.986 -15.392  0.00  0.00    -0.000 C 
ATOM     15  C   UNL     1      31.186 -23.319 -14.196  0.00  0.00    +0.002 C 
ENDBRANCH   8  10
ENDBRANCH   7   8
ENDBRANCH   4   7
BRANCH   1  16
ATOM     16  C   UNL     1      35.771 -18.633 -21.799  0.00  0.00    -0.054 C 
BRANCH  16  17
ATOM     17  N   UNL     1      34.897 -17.765 -22.575  0.00  0.00    +0.393 N 
ATOM     18  H   UNL     1      35.042 -16.799 -22.283  0.00  0.00    -0.083 HD
ATOM     19  H   UNL     1      33.930 -18.044 -22.412  0.00  0.00    -0.083 HD
BRANCH  17  20
ATOM     20  C   UNL     1      35.185 -17.883 -24.002  0.00  0.00    +0.017 C 
ATOM     21  C   UNL     1      34.501 -19.117 -24.577  0.00  0.00    -0.014 C 
BRANCH  20  24
ATOM     22  O   UNL     1      34.600 -16.503 -25.916  0.00  0.00    -0.278 OA
ATOM     23  N   UNL     1      34.300 -15.643 -23.810  0.00  0.00    -0.330 N 
ATOM     24  C   UNL     1      34.679 -16.628 -24.696  0.00  0.00    +0.199 C 
ATOM     25  H   UNL     1      33.956 -14.783 -24.145  0.00  0.00    +0.145 HD
ATOM     26  H   UNL     1      34.375 -15.797 -22.840  0.00  0.00    +0.145 HD
ENDBRANCH  20  24
ENDBRANCH  17  20
ENDBRANCH  16  17
ENDBRANCH   1  16
TORSDOF 7
ENDMDL
MODEL 2
REMARK VINA RESULT:     -10.1      4.085      6.208
REMARK  Name = 5745207
REMARK  7 active torsions:
REMARK  status: ('A' for Active; 'I' for Inactive)
REMARK    1  A    between atoms: C_1  and  C_16
REMARK    2  A    between atoms: C_4  and  O_7
REMARK    3  A    between atoms: O_7  and  C_8
REMARK    4  A    between atoms: C_8  and  C_10
REMARK    5  A    between atoms: C_16  and  N_17
REMARK    6  A    between atoms: N_17  and  C_20
REMARK    7  A    between atoms: C_20  and  C_24
REMARK                            x       y       z     vdW  Elec       q    Type
REMARK                         _______ _______ _______ _____ _____    ______ ____
ROOT
ATOM      1  C   UNL     1      33.786 -14.276 -22.659  0.00  0.00    -0.044 C 
ATOM      2  C   UNL     1      34.429 -15.247 -23.414  0.00  0.00    -0.003 C 
ATOM      3  C   UNL     1      33.708 -14.385 -21.276  0.00  0.00    -0.003 C 
ATOM      4  C   UNL     1      34.932 -16.464 -21.390  0.00  0.00    +0.139 C 
ATOM      5  C   UNL     1      35.005 -16.346 -22.778  0.00  0.00    +0.037 C 
ATOM      6  C   UNL     1      34.284 -15.484 -20.639  0.00  0.00    +0.037 C 
ENDROOT
BRANCH   4   7
ATOM      7  O   UNL     1      35.494 -17.537 -20.769  0.00  0.00    -0.471 OA
BRANCH   7   8
ATOM      8  C   UNL     1      35.560 -18.755 -21.510  0.00  0.00    +0.234 C 
BRANCH   8  10
ATOM      9  F   UNL     1      36.968 -20.795 -20.153  0.00  0.00    -0.204 F 
ATOM     10  C   UNL     1      34.874 -19.839 -20.731  0.00  0.00    +0.049 C 
ATOM     11  C   UNL     1      35.629 -20.811 -20.087  0.00  0.00    +0.140 C 
ATOM     12  C   UNL     1      33.485 -19.859 -20.662  0.00  0.00    +0.002 C 
ATOM     13  C   UNL     1      34.988 -21.818 -19.364  0.00  0.00    +0.029 C 
ATOM     14  C   UNL     1      32.844 -20.865 -19.940  0.00  0.00    -0.000 C 
ATOM     15  C   UNL     1      33.595 -21.845 -19.291  0.00  0.00    +0.002 C 
ENDBRANCH   8  10
ENDBRANCH   7   8
ENDBRANCH   4   7
BRANCH   1  16
ATOM     16  C   UNL     1      33.164 -13.091 -23.345  0.00  0.00    -0.054 C 
BRANCH  16  17
ATOM     17  N   UNL     1      34.193 -12.242 -23.927  0.00  0.00    +0.393 N 
ATOM     18  H   UNL     1      34.546 -12.680 -24.777  0.00  0.00    -0.083 HD
ATOM     19  H   UNL     1      34.945 -12.127 -23.248  0.00  0.00    -0.083 HD
BRANCH  17  20
ATOM     20  C   UNL     1      33.653 -10.925 -24.255  0.00  0.00    +0.017 C 
ATOM     21  C   UNL     1      32.756 -10.428 -23.128  0.00  0.00    -0.014 C 
BRANCH  20  24
ATOM     22  O   UNL     1      35.021  -8.975 -23.769  0.00  0.00    -0.278 OA
ATOM     23  N   UNL     1      35.638 -10.344 -25.504  0.00  0.00    -0.330 N 
ATOM     24  C   UNL     1      34.818  -9.969 -24.461  0.00  0.00    +0.199 C 
ATOM     25  H   UNL     1      36.426  -9.800 -25.732  0.00  0.00    +0.145 HD
ATOM     26  H   UNL     1      35.435 -11.156 -26.023  0.00  0.00    +0.145 HD
ENDBRANCH  20  24
ENDBRANCH  17  20
ENDBRANCH  16  17
ENDBRANCH   1  16
TORSDOF 7
ENDMDL
MODEL 3
REMARK VINA RESULT:     -10.0      4.211      6.399
REMARK  Name = 5745207
REMARK  7 active torsions:
REMARK  status: ('A' for Active; 'I' for Inactive)
REMARK    1  A    between atoms: C_1  and  C_16
REMARK    2  A    between atoms: C_4  and  O_7
REMARK    3  A    between atoms: O_7  and  C_8
REMARK    4  A    between atoms: C_8  and  C_10
REMARK    5  A    between atoms: C_16  and  N_17
REMARK    6  A    between atoms: N_17  and  C_20
REMARK    7  A    between atoms: C_20  and  C_24
REMARK                            x       y       z     vdW  Elec       q    Type
REMARK                         _______ _______ _______ _____ _____    ______ ____
ROOT
ATOM      1  C   UNL     1      33.721 -14.210 -22.634  0.00  0.00    -0.044 C 
ATOM      2  C   UNL     1      34.406 -15.161 -23.377  0.00  0.00    -0.003 C 
ATOM      3  C   UNL     1      33.579 -14.347 -21.259  0.00  0.00    -0.003 C 
ATOM      4  C   UNL     1      34.822 -16.415 -21.355  0.00  0.00    +0.139 C 
ATOM      5  C   UNL     1      34.960 -16.269 -22.736  0.00  0.00    +0.037 C 
ATOM      6  C   UNL     1      34.132 -15.454 -20.617  0.00  0.00    +0.037 C 
ENDROOT
BRANCH   4   7
ATOM      7  O   UNL     1      35.363 -17.497 -20.730  0.00  0.00    -0.471 OA
BRANCH   7   8
ATOM      8  C   UNL     1      35.525 -18.683 -21.506  0.00  0.00    +0.234 C 
BRANCH   8  10
ATOM      9  F   UNL     1      32.839 -19.405 -21.007  0.00  0.00    -0.204 F 
ATOM     10  C   UNL     1      35.143 -19.870 -20.672  0.00  0.00    +0.049 C 
ATOM     11  C   UNL     1      33.801 -20.169 -20.468  0.00  0.00    +0.140 C 
ATOM     12  C   UNL     1      36.138 -20.662 -20.111  0.00  0.00    +0.002 C 
ATOM     13  C   UNL     1      33.449 -21.273 -19.693  0.00  0.00    +0.029 C 
ATOM     14  C   UNL     1      35.786 -21.767 -19.336  0.00  0.00    -0.000 C 
ATOM     15  C   UNL     1      34.442 -22.072 -19.126  0.00  0.00    +0.002 C 
ENDBRANCH   8  10
ENDBRANCH   7   8
ENDBRANCH   4   7
BRANCH   1  16
ATOM     16  C   UNL     1      33.123 -13.016 -23.325  0.00  0.00    -0.054 C 
BRANCH  16  17
ATOM     17  N   UNL     1      34.165 -12.220 -23.959  0.00  0.00    +0.393 N 
ATOM     18  H   UNL     1      34.471 -12.689 -24.810  0.00  0.00    -0.083 HD
ATOM     19  H   UNL     1      34.943 -12.122 -23.307  0.00  0.00    -0.083 HD
BRANCH  17  20
ATOM     20  C   UNL     1      33.666 -10.890 -24.297  0.00  0.00    +0.017 C 
ATOM     21  C   UNL     1      32.762 -10.367 -23.187  0.00  0.00    -0.014 C 
BRANCH  20  24
ATOM     22  O   UNL     1      35.083  -8.982 -23.782  0.00  0.00    -0.278 OA
ATOM     23  N   UNL     1      35.680 -10.356 -25.521  0.00  0.00    -0.330 N 
ATOM     24  C   UNL     1      34.859  -9.966 -24.484  0.00  0.00    +0.199 C 
ATOM     25  H   UNL     1      36.486  -9.833 -25.736  0.00  0.00    +0.145 HD
ATOM     26  H   UNL     1      35.461 -11.159 -26.048  0.00  0.00    +0.145 HD
ENDBRANCH  20  24
ENDBRANCH  17  20
ENDBRANCH  16  17
ENDBRANCH   1  16
TORSDOF 7
ENDMDL
MODEL 4
REMARK VINA RESULT:      -9.9      3.933      8.830
REMARK  Name = 5745207
REMARK  7 active torsions:
REMARK  status: ('A' for Active; 'I' for Inactive)
REMARK    1  A    between atoms: C_1  and  C_16
REMARK    2  A    between atoms: C_4  and  O_7
REMARK    3  A    between atoms: O_7  and  C_8
REMARK    4  A    between atoms: C_8  and  C_10
REMARK    5  A    between atoms: C_16  and  N_17
REMARK    6  A    between atoms: N_17  and  C_20
REMARK    7  A    between atoms: C_20  and  C_24
REMARK                            x       y       z     vdW  Elec       q    Type
REMARK                         _______ _______ _______ _____ _____    ______ ____
ROOT
ATOM      1  C   UNL     1      34.107 -22.028 -18.899  0.00  0.00    -0.044 C 
ATOM      2  C   UNL     1      35.492 -21.947 -18.946  0.00  0.00    -0.003 C 
ATOM      3  C   UNL     1      33.317 -21.187 -19.671  0.00  0.00    -0.003 C 
ATOM      4  C   UNL     1      35.313 -20.157 -20.558  0.00  0.00    +0.139 C 
ATOM      5  C   UNL     1      36.099 -21.007 -19.779  0.00  0.00    +0.037 C 
ATOM      6  C   UNL     1      33.922 -20.247 -20.503  0.00  0.00    +0.037 C 
ENDROOT
BRANCH   4   7
ATOM      7  O   UNL     1      35.905 -19.240 -21.371  0.00  0.00    -0.471 OA
BRANCH   7   8
ATOM      8  C   UNL     1      35.415 -17.901 -21.306  0.00  0.00    +0.234 C 
BRANCH   8  10
ATOM      9  F   UNL     1      34.798 -15.215 -21.926  0.00  0.00    -0.204 F 
ATOM     10  C   UNL     1      35.039 -17.450 -22.687  0.00  0.00    +0.049 C 
ATOM     11  C   UNL     1      34.748 -16.111 -22.922  0.00  0.00    +0.140 C 
ATOM     12  C   UNL     1      34.986 -18.379 -23.721  0.00  0.00    +0.002 C 
ATOM     13  C   UNL     1      34.399 -15.695 -24.207  0.00  0.00    +0.029 C 
ATOM     14  C   UNL     1      34.637 -17.962 -25.006  0.00  0.00    -0.000 C 
ATOM     15  C   UNL     1      34.343 -16.621 -25.248  0.00  0.00    +0.002 C 
ENDBRANCH   8  10
ENDBRANCH   7   8
ENDBRANCH   4   7
BRANCH   1  16
ATOM     16  C   UNL     1      33.453 -23.042 -18.000  0.00  0.00    -0.054 C 
BRANCH  16  17
ATOM     17  N   UNL     1      32.095 -22.632 -17.674  0.00  0.00    +0.393 N 
ATOM     18  H   UNL     1      31.486 -22.835 -18.465  0.00  0.00    -0.083 HD
ATOM     19  H   UNL     1      32.095 -21.632 -17.472  0.00  0.00    -0.083 HD
BRANCH  17  20
ATOM     20  C   UNL     1      31.607 -23.347 -16.498  0.00  0.00    +0.017 C 
ATOM     21  C   UNL     1      32.504 -23.064 -15.298  0.00  0.00    -0.014 C 
BRANCH  20  24
ATOM     22  O   UNL     1      29.428 -22.431 -17.068  0.00  0.00    -0.278 OA
ATOM     23  N   UNL     1      29.826 -23.046 -14.893  0.00  0.00    -0.330 N 
ATOM     24  C   UNL     1      30.186 -22.886 -16.214  0.00  0.00    +0.199 C 
ATOM     25  H   UNL     1      28.927 -22.781 -14.591  0.00  0.00    +0.145 HD
ATOM     26  H   UNL     1      30.469 -23.424 -14.249  0.00  0.00    +0.145 HD
ENDBRANCH  20  24
ENDBRANCH  17  20
ENDBRANCH  16  17
ENDBRANCH   1  16
TORSDOF 7
ENDMDL
MODEL 5
REMARK VINA RESULT:      -9.8      1.659      1.860
REMARK  Name = 5745207
REMARK  7 active torsions:
REMARK  status: ('A' for Active; 'I' for Inactive)
REMARK    1  A    between atoms: C_1  and  C_16
REMARK    2  A    between atoms: C_4  and  O_7
REMARK    3  A    between atoms: O_7  and  C_8
REMARK    4  A    between atoms: C_8  and  C_10
REMARK    5  A    between atoms: C_16  and  N_17
REMARK    6  A    between atoms: N_17  and  C_20
REMARK    7  A    between atoms: C_20  and  C_24
REMARK                            x       y       z     vdW  Elec       q    Type
REMARK                         _______ _______ _______ _____ _____    ______ ____
ROOT
ATOM      1  C   UNL     1      34.967 -19.639 -21.006  0.00  0.00    -0.044 C 
ATOM      2  C   UNL     1      33.582 -19.549 -20.988  0.00  0.00    -0.003 C 
ATOM      3  C   UNL     1      35.626 -20.627 -20.284  0.00  0.00    -0.003 C 
ATOM      4  C   UNL     1      33.495 -21.455 -19.507  0.00  0.00    +0.139 C 
ATOM      5  C   UNL     1      32.842 -20.460 -20.235  0.00  0.00    +0.037 C 
ATOM      6  C   UNL     1      34.887 -21.538 -19.532  0.00  0.00    +0.037 C 
ENDROOT
BRANCH   4   7
ATOM      7  O   UNL     1      32.772 -22.345 -18.773  0.00  0.00    -0.471 OA
BRANCH   7   8
ATOM      8  C   UNL     1      33.495 -23.182 -17.872  0.00  0.00    +0.234 C 
BRANCH   8  10
ATOM      9  F   UNL     1      34.775 -23.840 -15.440  0.00  0.00    -0.204 F 
ATOM     10  C   UNL     1      32.773 -23.225 -16.557  0.00  0.00    +0.049 C 
ATOM     11  C   UNL     1      33.465 -23.555 -15.398  0.00  0.00    +0.140 C 
ATOM     12  C   UNL     1      31.414 -22.932 -16.511  0.00  0.00    +0.002 C 
ATOM     13  C   UNL     1      32.791 -23.594 -14.178  0.00  0.00    +0.029 C 
ATOM     14  C   UNL     1      30.740 -22.971 -15.291  0.00  0.00    -0.000 C 
ATOM     15  C   UNL     1      31.428 -23.302 -14.124  0.00  0.00    +0.002 C 
ENDBRANCH   8  10
ENDBRANCH   7   8
ENDBRANCH   4   7
BRANCH   1  16
ATOM     16  C   UNL     1      35.765 -18.656 -21.817  0.00  0.00    -0.054 C 
BRANCH  16  17
ATOM     17  N   UNL     1      34.882 -17.813 -22.610  0.00  0.00    +0.393 N 
ATOM     18  H   UNL     1      33.915 -18.017 -22.361  0.00  0.00    -0.083 HD
ATOM     19  H   UNL     1      35.044 -18.009 -23.598  0.00  0.00    -0.083 HD
BRANCH  17  20
ATOM     20  C   UNL     1      35.153 -16.400 -22.361  0.00  0.00    +0.017 C 
ATOM     21  C   UNL     1      34.664 -15.555 -23.531  0.00  0.00    -0.014 C 
BRANCH  20  24
ATOM     22  O   UNL     1      34.997 -15.864 -19.995  0.00  0.00    -0.278 OA
ATOM     23  N   UNL     1      33.091 -15.771 -21.271  0.00  0.00    -0.330 N 
ATOM     24  C   UNL     1      34.438 -15.994 -21.082  0.00  0.00    +0.199 C 
ATOM     25  H   UNL     1      32.524 -15.503 -20.511  0.00  0.00    +0.145 HD
ATOM     26  H   UNL     1      32.694 -15.881 -22.165  0.00  0.00    +0.145 HD
ENDBRANCH  20  24
ENDBRANCH  17  20
ENDBRANCH  16  17
ENDBRANCH   1  16
TORSDOF 7
ENDMDL
MODEL 6
REMARK VINA RESULT:      -9.6      4.341      8.763
REMARK  Name = 5745207
REMARK  7 active torsions:
REMARK  status: ('A' for Active; 'I' for Inactive)
REMARK    1  A    between atoms: C_1  and  C_16
REMARK    2  A    between atoms: C_4  and  O_7
REMARK    3  A    between atoms: O_7  and  C_8
REMARK    4  A    between atoms: C_8  and  C_10
REMARK    5  A    between atoms: C_16  and  N_17
REMARK    6  A    between atoms: N_17  and  C_20
REMARK    7  A    between atoms: C_20  and  C_24
REMARK                            x       y       z     vdW  Elec       q    Type
REMARK                         _______ _______ _______ _____ _____    ______ ____
ROOT
ATOM      1  C   UNL     1      33.992 -21.499 -19.508  0.00  0.00    -0.044 C 
ATOM      2  C   UNL     1      35.298 -21.195 -19.867  0.00  0.00    -0.003 C 
ATOM      3  C   UNL     1      32.930 -20.725 -19.957  0.00  0.00    -0.003 C 
ATOM      4  C   UNL     1      34.488 -19.312 -21.145  0.00  0.00    +0.139 C 
ATOM      5  C   UNL     1      35.548 -20.096 -20.689  0.00  0.00    +0.037 C 
ATOM      6  C   UNL     1      33.179 -19.627 -20.779  0.00  0.00    +0.037 C 
ENDROOT
BRANCH   4   7
ATOM      7  O   UNL     1      34.732 -18.240 -21.948  0.00  0.00    -0.471 OA
BRANCH   7   8
ATOM      8  C   UNL     1      35.176 -17.041 -21.314  0.00  0.00    +0.234 C 
BRANCH   8  10
ATOM      9  F   UNL     1      35.360 -15.755 -23.823  0.00  0.00    -0.204 F 
ATOM     10  C   UNL     1      34.275 -15.911 -21.717  0.00  0.00    +0.049 C 
ATOM     11  C   UNL     1      34.420 -15.324 -22.969  0.00  0.00    +0.140 C 
ATOM     12  C   UNL     1      33.300 -15.462 -20.833  0.00  0.00    +0.002 C 
ATOM     13  C   UNL     1      33.581 -14.274 -23.341  0.00  0.00    +0.029 C 
ATOM     14  C   UNL     1      32.461 -14.412 -21.205  0.00  0.00    -0.000 C 
ATOM     15  C   UNL     1      32.602 -13.818 -22.459  0.00  0.00    +0.002 C 
ENDBRANCH   8  10
ENDBRANCH   7   8
ENDBRANCH   4   7
BRANCH   1  16
ATOM     16  C   UNL     1      33.723 -22.684 -18.621  0.00  0.00    -0.054 C 
BRANCH  16  17
ATOM     17  N   UNL     1      32.413 -22.567 -17.997  0.00  0.00    +0.393 N 
ATOM     18  H   UNL     1      31.697 -22.819 -18.677  0.00  0.00    -0.083 HD
ATOM     19  H   UNL     1      32.284 -21.603 -17.686  0.00  0.00    -0.083 HD
BRANCH  17  20
ATOM     20  C   UNL     1      32.309 -23.451 -16.840  0.00  0.00    +0.017 C 
ATOM     21  C   UNL     1      33.389 -23.112 -15.819  0.00  0.00    -0.014 C 
BRANCH  20  24
ATOM     22  O   UNL     1      30.027 -22.619 -16.743  0.00  0.00    -0.278 OA
ATOM     23  N   UNL     1      30.788 -23.941 -15.028  0.00  0.00    -0.330 N 
ATOM     24  C   UNL     1      30.929 -23.274 -16.226  0.00  0.00    +0.199 C 
ATOM     25  H   UNL     1      29.935 -23.899 -14.538  0.00  0.00    +0.145 HD
ATOM     26  H   UNL     1      31.540 -24.460 -14.662  0.00  0.00    +0.145 HD
ENDBRANCH  20  24
ENDBRANCH  17  20
ENDBRANCH  16  17
ENDBRANCH   1  16
TORSDOF 7
ENDMDL
MODEL 7
REMARK VINA RESULT:      -9.6      4.347      8.932
REMARK  Name = 5745207
REMARK  7 active torsions:
REMARK  status: ('A' for Active; 'I' for Inactive)
REMARK    1  A    between atoms: C_1  and  C_16
REMARK    2  A    between atoms: C_4  and  O_7
REMARK    3  A    between atoms: O_7  and  C_8
REMARK    4  A    between atoms: C_8  and  C_10
REMARK    5  A    between atoms: C_16  and  N_17
REMARK    6  A    between atoms: N_17  and  C_20
REMARK    7  A    between atoms: C_20  and  C_24
REMARK                            x       y       z     vdW  Elec       q    Type
REMARK                         _______ _______ _______ _____ _____    ______ ____
ROOT
ATOM      1  C   UNL     1      33.950 -21.903 -18.975  0.00  0.00    -0.044 C 
ATOM      2  C   UNL     1      35.262 -21.718 -19.390  0.00  0.00    -0.003 C 
ATOM      3  C   UNL     1      32.915 -21.163 -19.533  0.00  0.00    -0.003 C 
ATOM      4  C   UNL     1      34.512 -20.028 -20.945  0.00  0.00    +0.139 C 
ATOM      5  C   UNL     1      35.545 -20.776 -20.379  0.00  0.00    +0.037 C 
ATOM      6  C   UNL     1      33.198 -20.221 -20.522  0.00  0.00    +0.037 C 
ENDROOT
BRANCH   4   7
ATOM      7  O   UNL     1      34.789 -19.109 -21.910  0.00  0.00    -0.471 OA
BRANCH   7   8
ATOM      8  C   UNL     1      35.743 -18.098 -21.590  0.00  0.00    +0.234 C 
BRANCH   8  10
ATOM      9  F   UNL     1      35.393 -17.027 -24.182  0.00  0.00    -0.204 F 
ATOM     10  C   UNL     1      35.130 -16.751 -21.839  0.00  0.00    +0.049 C 
ATOM     11  C   UNL     1      34.988 -16.286 -23.141  0.00  0.00    +0.140 C 
ATOM     12  C   UNL     1      34.710 -15.979 -20.761  0.00  0.00    +0.002 C 
ATOM     13  C   UNL     1      34.418 -15.033 -23.368  0.00  0.00    +0.029 C 
ATOM     14  C   UNL     1      34.141 -14.727 -20.988  0.00  0.00    -0.000 C 
ATOM     15  C   UNL     1      33.995 -14.253 -22.292  0.00  0.00    +0.002 C 
ENDBRANCH   8  10
ENDBRANCH   7   8
ENDBRANCH   4   7
BRANCH   1  16
ATOM     16  C   UNL     1      33.645 -22.918 -17.908  0.00  0.00    -0.054 C 
BRANCH  16  17
ATOM     17  N   UNL     1      34.664 -22.887 -16.869  0.00  0.00    +0.393 N 
ATOM     18  H   UNL     1      35.086 -21.960 -16.842  0.00  0.00    -0.083 HD
ATOM     19  H   UNL     1      35.370 -23.592 -17.083  0.00  0.00    -0.083 HD
BRANCH  17  20
ATOM     20  C   UNL     1      34.083 -23.188 -15.564  0.00  0.00    +0.017 C 
ATOM     21  C   UNL     1      32.578 -23.392 -15.692  0.00  0.00    -0.014 C 
BRANCH  20  24
ATOM     22  O   UNL     1      35.605 -25.083 -15.630  0.00  0.00    -0.278 OA
ATOM     23  N   UNL     1      34.279 -24.803 -13.778  0.00  0.00    -0.330 N 
ATOM     24  C   UNL     1      34.742 -24.449 -15.027  0.00  0.00    +0.199 C 
ATOM     25  H   UNL     1      34.634 -25.604 -13.328  0.00  0.00    +0.145 HD
ATOM     26  H   UNL     1      33.592 -24.255 -13.333  0.00  0.00    +0.145 HD
ENDBRANCH  20  24
ENDBRANCH  17  20
ENDBRANCH  16  17
ENDBRANCH   1  16
TORSDOF 7
ENDMDL
MODEL 8
REMARK VINA RESULT:      -9.5      4.835      9.407
REMARK  Name = 5745207
REMARK  7 active torsions:
REMARK  status: ('A' for Active; 'I' for Inactive)
REMARK    1  A    between atoms: C_1  and  C_16
REMARK    2  A    between atoms: C_4  and  O_7
REMARK    3  A    between atoms: O_7  and  C_8
REMARK    4  A    between atoms: C_8  and  C_10
REMARK    5  A    between atoms: C_16  and  N_17
REMARK    6  A    between atoms: N_17  and  C_20
REMARK    7  A    between atoms: C_20  and  C_24
REMARK                            x       y       z     vdW  Elec       q    Type
REMARK                         _______ _______ _______ _____ _____    ______ ____
ROOT
ATOM      1  C   UNL     1      33.686 -23.703 -14.713  0.00  0.00    -0.044 C 
ATOM      2  C   UNL     1      32.368 -23.605 -15.136  0.00  0.00    -0.003 C 
ATOM      3  C   UNL     1      34.735 -23.416 -15.577  0.00  0.00    -0.003 C 
ATOM      4  C   UNL     1      33.139 -22.923 -17.321  0.00  0.00    +0.139 C 
ATOM      5  C   UNL     1      32.092 -23.214 -16.445  0.00  0.00    +0.037 C 
ATOM      6  C   UNL     1      34.460 -23.024 -16.886  0.00  0.00    +0.037 C 
ENDROOT
BRANCH   4   7
ATOM      7  O   UNL     1      32.869 -22.541 -18.599  0.00  0.00    -0.471 OA
BRANCH   7   8
ATOM      8  C   UNL     1      33.945 -22.595 -19.534  0.00  0.00    +0.234 C 
BRANCH   8  10
ATOM      9  F   UNL     1      36.527 -21.570 -20.048  0.00  0.00    -0.204 F 
ATOM     10  C   UNL     1      34.180 -21.222 -20.092  0.00  0.00    +0.049 C 
ATOM     11  C   UNL     1      35.478 -20.782 -20.322  0.00  0.00    +0.140 C 
ATOM     12  C   UNL     1      33.093 -20.403 -20.375  0.00  0.00    +0.002 C 
ATOM     13  C   UNL     1      35.692 -19.505 -20.840  0.00  0.00    +0.029 C 
ATOM     14  C   UNL     1      33.307 -19.126 -20.894  0.00  0.00    -0.000 C 
ATOM     15  C   UNL     1      34.607 -18.676 -21.126  0.00  0.00    +0.002 C 
ENDBRANCH   8  10
ENDBRANCH   7   8
ENDBRANCH   4   7
BRANCH   1  16
ATOM     16  C   UNL     1      33.984 -24.126 -13.300  0.00  0.00    -0.054 C 
BRANCH  16  17
ATOM     17  N   UNL     1      35.405 -23.992 -13.017  0.00  0.00    +0.393 N 
ATOM     18  H   UNL     1      35.587 -23.054 -12.661  0.00  0.00    -0.083 HD
ATOM     19  H   UNL     1      35.927 -24.153 -13.878  0.00  0.00    -0.083 HD
BRANCH  17  20
ATOM     20  C   UNL     1      35.829 -24.973 -12.022  0.00  0.00    +0.017 C 
ATOM     21  C   UNL     1      37.146 -25.616 -12.442  0.00  0.00    -0.014 C 
BRANCH  20  24
ATOM     22  O   UNL     1      35.348 -24.536  -9.679  0.00  0.00    -0.278 OA
ATOM     23  N   UNL     1      36.957 -23.276 -10.723  0.00  0.00    -0.330 N 
ATOM     24  C   UNL     1      35.993 -24.261 -10.688  0.00  0.00    +0.199 C 
ATOM     25  H   UNL     1      37.150 -22.746  -9.916  0.00  0.00    +0.145 HD
ATOM     26  H   UNL     1      37.452 -23.100 -11.556  0.00  0.00    +0.145 HD
ENDBRANCH  20  24
ENDBRANCH  17  20
ENDBRANCH  16  17
ENDBRANCH   1  16
TORSDOF 7
ENDMDL
MODEL 9
REMARK VINA RESULT:      -9.4      5.190      7.252
REMARK  Name = 5745207
REMARK  7 active torsions:
REMARK  status: ('A' for Active; 'I' for Inactive)
REMARK    1  A    between atoms: C_1  and  C_16
REMARK    2  A    between atoms: C_4  and  O_7
REMARK    3  A    between atoms: O_7  and  C_8
REMARK    4  A    between atoms: C_8  and  C_10
REMARK    5  A    between atoms: C_16  and  N_17
REMARK    6  A    between atoms: N_17  and  C_20
REMARK    7  A    between atoms: C_20  and  C_24
REMARK                            x       y       z     vdW  Elec       q    Type
REMARK                         _______ _______ _______ _____ _____    ______ ____
ROOT
ATOM      1  C   UNL     1      32.754 -13.616 -22.117  0.00  0.00    -0.044 C 
ATOM      2  C   UNL     1      32.672 -14.247 -20.884  0.00  0.00    -0.003 C 
ATOM      3  C   UNL     1      33.664 -14.042 -23.077  0.00  0.00    -0.003 C 
ATOM      4  C   UNL     1      34.432 -15.757 -21.560  0.00  0.00    +0.139 C 
ATOM      5  C   UNL     1      33.514 -15.323 -20.603  0.00  0.00    +0.037 C 
ATOM      6  C   UNL     1      34.507 -15.117 -22.796  0.00  0.00    +0.037 C 
ENDROOT
BRANCH   4   7
ATOM      7  O   UNL     1      35.254 -16.807 -21.286  0.00  0.00    -0.471 OA
BRANCH   7   8
ATOM      8  C   UNL     1      35.118 -17.969 -22.103  0.00  0.00    +0.234 C 
BRANCH   8  10
ATOM      9  F   UNL     1      37.108 -19.517 -20.826  0.00  0.00    -0.204 F 
ATOM     10  C   UNL     1      34.798 -19.147 -21.230  0.00  0.00    +0.049 C 
ATOM     11  C   UNL     1      35.827 -19.864 -20.632  0.00  0.00    +0.140 C 
ATOM     12  C   UNL     1      33.471 -19.509 -21.028  0.00  0.00    +0.002 C 
ATOM     13  C   UNL     1      35.526 -20.958 -19.821  0.00  0.00    +0.029 C 
ATOM     14  C   UNL     1      33.170 -20.604 -20.218  0.00  0.00    -0.000 C 
ATOM     15  C   UNL     1      34.198 -21.329 -19.615  0.00  0.00    +0.002 C 
ENDBRANCH   8  10
ENDBRANCH   7   8
ENDBRANCH   4   7
BRANCH   1  16
ATOM     16  C   UNL     1      31.846 -12.456 -22.420  0.00  0.00    -0.054 C 
BRANCH  16  17
ATOM     17  N   UNL     1      32.455 -11.206 -21.989  0.00  0.00    +0.393 N 
ATOM     18  H   UNL     1      32.737 -10.672 -22.809  0.00  0.00    -0.083 HD
ATOM     19  H   UNL     1      33.266 -11.421 -21.408  0.00  0.00    -0.083 HD
BRANCH  17  20
ATOM     20  C   UNL     1      31.512 -10.415 -21.202  0.00  0.00    +0.017 C 
ATOM     21  C   UNL     1      31.240 -11.094 -19.866  0.00  0.00    -0.014 C 
BRANCH  20  24
ATOM     22  O   UNL     1      32.522  -8.632 -19.893  0.00  0.00    -0.278 OA
ATOM     23  N   UNL     1      32.172  -8.286 -22.135  0.00  0.00    -0.330 N 
ATOM     24  C   UNL     1      32.115  -9.036 -20.980  0.00  0.00    +0.199 C 
ATOM     25  H   UNL     1      32.543  -7.374 -22.113  0.00  0.00    +0.145 HD
ATOM     26  H   UNL     1      31.840  -8.660 -22.983  0.00  0.00    +0.145 HD
ENDBRANCH  20  24
ENDBRANCH  17  20
ENDBRANCH  16  17
ENDBRANCH   1  16
TORSDOF 7
ENDMDL
