MODEL 1
REMARK VINA RESULT:      -8.3      0.000      0.000
REMARK  Name = 36920
REMARK  7 active torsions:
REMARK  status: ('A' for Active; 'I' for Inactive)
REMARK    1  A    between atoms: C_1  and  O_2
REMARK    2  A    between atoms: C_1  and  C_13
REMARK    3  A    between atoms: O_2  and  C_9
REMARK    4  A    between atoms: C_13  and  O_14
REMARK    5  A    between atoms: C_13  and  C_16
REMARK    6  A    between atoms: C_16  and  N_17
REMARK    7  A    between atoms: N_17  and  C_20
REMARK                            x       y       z     vdW  Elec       q    Type
REMARK                         _______ _______ _______ _____ _____    ______ ____
ROOT
ATOM      1  C   UNL     1      33.536 -12.649 -23.679  0.00  0.00    +0.232 C 
ENDROOT
BRANCH   1   2
ATOM      2  O   UNL     1      34.028 -13.929 -24.066  0.00  0.00    -0.472 OA
BRANCH   2   9
ATOM      3  S   UNL     1      34.371 -16.699 -25.053  0.00  0.00    -0.111 S 
ATOM      4  C   UNL     1      34.858 -18.572 -22.448  0.00  0.00    +0.028 C 
ATOM      5  C   UNL     1      35.297 -18.993 -23.846  0.00  0.00    +0.017 C 
ATOM      6  C   UNL     1      34.669 -17.087 -22.269  0.00  0.00    -0.014 C 
ATOM      7  C   UNL     1      34.429 -16.203 -23.334  0.00  0.00    +0.055 C 
ATOM      8  C   UNL     1      34.322 -18.506 -24.902  0.00  0.00    +0.063 C 
ATOM      9  C   UNL     1      34.243 -14.836 -23.067  0.00  0.00    +0.144 C 
ATOM     10  C   UNL     1      34.687 -16.583 -20.955  0.00  0.00    -0.004 C 
ATOM     11  C   UNL     1      34.276 -14.351 -21.759  0.00  0.00    +0.037 C 
ATOM     12  C   UNL     1      34.495 -15.225 -20.702  0.00  0.00    +0.003 C 
ENDBRANCH   2   9
ENDBRANCH   1   2
BRANCH   1  13
ATOM     13  C   UNL     1      34.198 -11.582 -24.548  0.00  0.00    +0.133 C 
BRANCH  13  14
ATOM     14  O   UNL     1      33.738 -11.738 -25.894  0.00  0.00    -0.383 OA
ATOM     15  H   UNL     1      33.870 -10.910 -26.380  0.00  0.00    +0.210 HD
ENDBRANCH  13  14
BRANCH  13  16
ATOM     16  C   UNL     1      33.882 -10.154 -24.099  0.00  0.00    -0.048 C 
BRANCH  16  17
ATOM     17  N   UNL     1      32.737 -10.103 -23.200  0.00  0.00    +0.388 N 
ATOM     18  H   UNL     1      31.903 -10.405 -23.705  0.00  0.00    -0.084 HD
ATOM     19  H   UNL     1      32.917 -10.721 -22.408  0.00  0.00    -0.084 HD
BRANCH  17  20
ATOM     20  C   UNL     1      32.527  -8.752 -22.699  0.00  0.00    -0.046 C 
ATOM     21  C   UNL     1      31.321  -8.144 -23.424  0.00  0.00    -0.022 C 
ATOM     22  C   UNL     1      32.252  -8.828 -21.193  0.00  0.00    -0.022 C 
ATOM     23  C   UNL     1      33.781  -7.911 -22.964  0.00  0.00    -0.022 C 
ENDBRANCH  17  20
ENDBRANCH  16  17
ENDBRANCH  13  16
ENDBRANCH   1  13
TORSDOF 7
ENDMDL
MODEL 2
REMARK VINA RESULT:      -8.2      2.906      7.409
REMARK  Name = 36920
REMARK  7 active torsions:
REMARK  status: ('A' for Active; 'I' for Inactive)
REMARK    1  A    between atoms: C_1  and  O_2
REMARK    2  A    between atoms: C_1  and  C_13
REMARK    3  A    between atoms: O_2  and  C_9
REMARK    4  A    between atoms: C_13  and  O_14
REMARK    5  A    between atoms: C_13  and  C_16
REMARK    6  A    between atoms: C_16  and  N_17
REMARK    7  A    between atoms: N_17  and  C_20
REMARK                            x       y       z     vdW  Elec       q    Type
REMARK                         _______ _______ _______ _____ _____    ______ ____
ROOT
ATOM      1  C   UNL     1      32.228 -13.001 -22.898  0.00  0.00    +0.232 C 
ENDROOT
BRANCH   1   2
ATOM      2  O   UNL     1      32.022 -11.592 -22.950  0.00  0.00    -0.472 OA
BRANCH   2   9
ATOM      3  S   UNL     1      32.581  -8.692 -23.155  0.00  0.00    -0.111 S 
ATOM      4  C   UNL     1      32.265  -7.460 -20.169  0.00  0.00    +0.028 C 
ATOM      5  C   UNL     1      32.154  -6.597 -21.421  0.00  0.00    +0.017 C 
ATOM      6  C   UNL     1      32.018  -8.930 -20.395  0.00  0.00    -0.014 C 
ATOM      7  C   UNL     1      32.154  -9.555 -21.646  0.00  0.00    +0.055 C 
ATOM      8  C   UNL     1      33.096  -7.077 -22.509  0.00  0.00    +0.063 C 
ATOM      9  C   UNL     1      31.924 -10.937 -21.755  0.00  0.00    +0.144 C 
ATOM     10  C   UNL     1      31.683  -9.713 -19.275  0.00  0.00    -0.004 C 
ATOM     11  C   UNL     1      31.581 -11.696 -20.635  0.00  0.00    +0.037 C 
ATOM     12  C   UNL     1      31.463 -11.085 -19.394  0.00  0.00    +0.003 C 
ENDBRANCH   2   9
ENDBRANCH   1   2
BRANCH   1  13
ATOM     13  C   UNL     1      33.462 -13.350 -23.727  0.00  0.00    +0.133 C 
BRANCH  13  14
ATOM     14  O   UNL     1      34.236 -12.162 -23.920  0.00  0.00    -0.383 OA
ATOM     15  H   UNL     1      35.056 -12.223 -23.407  0.00  0.00    +0.210 HD
ENDBRANCH  13  14
BRANCH  13  16
ATOM     16  C   UNL     1      34.357 -14.401 -23.067  0.00  0.00    -0.048 C 
BRANCH  16  17
ATOM     17  N   UNL     1      33.627 -15.620 -22.747  0.00  0.00    +0.388 N 
ATOM     18  H   UNL     1      32.639 -15.483 -22.964  0.00  0.00    -0.084 HD
ATOM     19  H   UNL     1      34.011 -16.385 -23.303  0.00  0.00    -0.084 HD
BRANCH  17  20
ATOM     20  C   UNL     1      33.763 -15.954 -21.337  0.00  0.00    -0.046 C 
ATOM     21  C   UNL     1      32.365 -16.026 -20.714  0.00  0.00    -0.022 C 
ATOM     22  C   UNL     1      34.460 -17.315 -21.223  0.00  0.00    -0.022 C 
ATOM     23  C   UNL     1      34.598 -14.875 -20.637  0.00  0.00    -0.022 C 
ENDBRANCH  17  20
ENDBRANCH  16  17
ENDBRANCH  13  16
ENDBRANCH   1  13
TORSDOF 7
ENDMDL
MODEL 3
REMARK VINA RESULT:      -8.2      3.612      5.501
REMARK  Name = 36920
REMARK  7 active torsions:
REMARK  status: ('A' for Active; 'I' for Inactive)
REMARK    1  A    between atoms: C_1  and  O_2
REMARK    2  A    between atoms: C_1  and  C_13
REMARK    3  A    between atoms: O_2  and  C_9
REMARK    4  A    between atoms: C_13  and  O_14
REMARK    5  A    between atoms: C_13  and  C_16
REMARK    6  A    between atoms: C_16  and  N_17
REMARK    7  A    between atoms: N_17  and  C_20
REMARK                            x       y       z     vdW  Elec       q    Type
REMARK                         _______ _______ _______ _____ _____    ______ ____
ROOT
ATOM      1  C   UNL     1      34.631 -18.059 -23.811  0.00  0.00    +0.232 C 
ENDROOT
BRANCH   1   2
ATOM      2  O   UNL     1      34.374 -18.086 -22.409  0.00  0.00    -0.472 OA
BRANCH   2   9
ATOM      3  S   UNL     1      32.944 -20.086 -20.761  0.00  0.00    -0.111 S 
ATOM      4  C   UNL     1      35.200 -21.710 -19.085  0.00  0.00    +0.028 C 
ATOM      5  C   UNL     1      33.813 -22.285 -19.350  0.00  0.00    +0.017 C 
ATOM      6  C   UNL     1      35.624 -20.626 -20.043  0.00  0.00    -0.014 C 
ATOM      7  C   UNL     1      34.719 -19.856 -20.791  0.00  0.00    +0.055 C 
ATOM      8  C   UNL     1      32.753 -21.199 -19.340  0.00  0.00    +0.063 C 
ATOM      9  C   UNL     1      35.208 -18.851 -21.643  0.00  0.00    +0.144 C 
ATOM     10  C   UNL     1      37.000 -20.350 -20.144  0.00  0.00    -0.004 C 
ATOM     11  C   UNL     1      36.577 -18.598 -21.740  0.00  0.00    +0.037 C 
ATOM     12  C   UNL     1      37.474 -19.346 -20.988  0.00  0.00    +0.003 C 
ENDBRANCH   2   9
ENDBRANCH   1   2
BRANCH   1  13
ATOM     13  C   UNL     1      34.798 -16.608 -24.254  0.00  0.00    +0.133 C 
BRANCH  13  14
ATOM     14  O   UNL     1      33.783 -16.303 -25.215  0.00  0.00    -0.383 OA
ATOM     15  H   UNL     1      32.958 -16.747 -24.968  0.00  0.00    +0.210 HD
ENDBRANCH  13  14
BRANCH  13  16
ATOM     16  C   UNL     1      34.682 -15.606 -23.103  0.00  0.00    -0.048 C 
BRANCH  16  17
ATOM     17  N   UNL     1      33.297 -15.246 -22.828  0.00  0.00    +0.388 N 
ATOM     18  H   UNL     1      33.037 -14.450 -23.412  0.00  0.00    -0.084 HD
ATOM     19  H   UNL     1      32.704 -16.050 -23.038  0.00  0.00    -0.084 HD
BRANCH  17  20
ATOM     20  C   UNL     1      33.120 -14.888 -21.429  0.00  0.00    -0.046 C 
ATOM     21  C   UNL     1      34.497 -14.844 -20.757  0.00  0.00    -0.022 C 
ATOM     22  C   UNL     1      32.456 -13.508 -21.358  0.00  0.00    -0.022 C 
ATOM     23  C   UNL     1      32.233 -15.935 -20.744  0.00  0.00    -0.022 C 
ENDBRANCH  17  20
ENDBRANCH  16  17
ENDBRANCH  13  16
ENDBRANCH   1  13
TORSDOF 7
ENDMDL
MODEL 4
REMARK VINA RESULT:      -8.2      8.745     12.585
REMARK  Name = 36920
REMARK  7 active torsions:
REMARK  status: ('A' for Active; 'I' for Inactive)
REMARK    1  A    between atoms: C_1  and  O_2
REMARK    2  A    between atoms: C_1  and  C_13
REMARK    3  A    between atoms: O_2  and  C_9
REMARK    4  A    between atoms: C_13  and  O_14
REMARK    5  A    between atoms: C_13  and  C_16
REMARK    6  A    between atoms: C_16  and  N_17
REMARK    7  A    between atoms: N_17  and  C_20
REMARK                            x       y       z     vdW  Elec       q    Type
REMARK                         _______ _______ _______ _____ _____    ______ ____
ROOT
ATOM      1  C   UNL     1      37.008 -21.778 -16.789  0.00  0.00    +0.232 C 
ENDROOT
BRANCH   1   2
ATOM      2  O   UNL     1      36.804 -22.083 -18.166  0.00  0.00    -0.472 OA
BRANCH   2   9
ATOM      3  S   UNL     1      36.860 -20.028 -20.296  0.00  0.00    -0.111 S 
ATOM      4  C   UNL     1      33.799 -19.621 -21.292  0.00  0.00    +0.028 C 
ATOM      5  C   UNL     1      34.993 -19.241 -22.160  0.00  0.00    +0.017 C 
ATOM      6  C   UNL     1      34.100 -20.632 -20.215  0.00  0.00    -0.014 C 
ATOM      7  C   UNL     1      35.390 -20.858 -19.705  0.00  0.00    +0.055 C 
ATOM      8  C   UNL     1      36.142 -18.714 -21.320  0.00  0.00    +0.063 C 
ATOM      9  C   UNL     1      35.570 -21.807 -18.683  0.00  0.00    +0.144 C 
ATOM     10  C   UNL     1      33.016 -21.341 -19.666  0.00  0.00    -0.004 C 
ATOM     11  C   UNL     1      34.485 -22.510 -18.159  0.00  0.00    +0.037 C 
ATOM     12  C   UNL     1      33.206 -22.275 -18.649  0.00  0.00    +0.003 C 
ENDBRANCH   2   9
ENDBRANCH   1   2
BRANCH   1  13
ATOM     13  C   UNL     1      37.206 -23.082 -16.019  0.00  0.00    +0.133 C 
BRANCH  13  14
ATOM     14  O   UNL     1      38.609 -23.322 -15.878  0.00  0.00    -0.383 OA
ATOM     15  H   UNL     1      38.903 -23.027 -15.003  0.00  0.00    +0.210 HD
ENDBRANCH  13  14
BRANCH  13  16
ATOM     16  C   UNL     1      36.584 -23.060 -14.621  0.00  0.00    -0.048 C 
BRANCH  16  17
ATOM     17  N   UNL     1      36.457 -24.397 -14.057  0.00  0.00    +0.388 N 
ATOM     18  H   UNL     1      35.498 -24.724 -14.184  0.00  0.00    -0.084 HD
ATOM     19  H   UNL     1      37.111 -25.016 -14.537  0.00  0.00    -0.084 HD
BRANCH  17  20
ATOM     20  C   UNL     1      36.775 -24.395 -12.636  0.00  0.00    -0.046 C 
ATOM     21  C   UNL     1      35.473 -24.557 -11.844  0.00  0.00    -0.022 C 
ATOM     22  C   UNL     1      37.716 -25.570 -12.346  0.00  0.00    -0.022 C 
ATOM     23  C   UNL     1      37.455 -23.072 -12.269  0.00  0.00    -0.022 C 
ENDBRANCH  17  20
ENDBRANCH  16  17
ENDBRANCH  13  16
ENDBRANCH   1  13
TORSDOF 7
ENDMDL
MODEL 5
REMARK VINA RESULT:      -8.0     13.002     15.486
REMARK  Name = 36920
REMARK  7 active torsions:
REMARK  status: ('A' for Active; 'I' for Inactive)
REMARK    1  A    between atoms: C_1  and  O_2
REMARK    2  A    between atoms: C_1  and  C_13
REMARK    3  A    between atoms: O_2  and  C_9
REMARK    4  A    between atoms: C_13  and  O_14
REMARK    5  A    between atoms: C_13  and  C_16
REMARK    6  A    between atoms: C_16  and  N_17
REMARK    7  A    between atoms: N_17  and  C_20
REMARK                            x       y       z     vdW  Elec       q    Type
REMARK                         _______ _______ _______ _____ _____    ______ ____
ROOT
ATOM      1  C   UNL     1      35.315 -23.714 -12.643  0.00  0.00    +0.232 C 
ENDROOT
BRANCH   1   2
ATOM      2  O   UNL     1      34.408 -24.550 -13.357  0.00  0.00    -0.472 OA
BRANCH   2   9
ATOM      3  S   UNL     1      31.452 -24.620 -13.504  0.00  0.00    -0.111 S 
ATOM      4  C   UNL     1      30.625 -23.401 -16.396  0.00  0.00    +0.028 C 
ATOM      5  C   UNL     1      29.655 -23.435 -15.220  0.00  0.00    +0.017 C 
ATOM      6  C   UNL     1      32.081 -23.478 -16.012  0.00  0.00    -0.014 C 
ATOM      7  C   UNL     1      32.533 -24.011 -14.794  0.00  0.00    +0.055 C 
ATOM      8  C   UNL     1      29.858 -24.675 -14.370  0.00  0.00    +0.063 C 
ATOM      9  C   UNL     1      33.913 -24.061 -14.534  0.00  0.00    +0.144 C 
ATOM     10  C   UNL     1      33.026 -23.034 -16.955  0.00  0.00    -0.004 C 
ATOM     11  C   UNL     1      34.837 -23.606 -15.475  0.00  0.00    +0.037 C 
ATOM     12  C   UNL     1      34.393 -23.094 -16.688  0.00  0.00    +0.003 C 
ENDBRANCH   2   9
ENDBRANCH   1   2
BRANCH   1  13
ATOM     13  C   UNL     1      36.164 -24.584 -11.718  0.00  0.00    +0.133 C 
BRANCH  13  14
ATOM     14  O   UNL     1      35.306 -25.201 -10.754  0.00  0.00    -0.383 OA
ATOM     15  H   UNL     1      35.179 -24.601 -10.003  0.00  0.00    +0.210 HD
ENDBRANCH  13  14
BRANCH  13  16
ATOM     16  C   UNL     1      36.923 -25.689 -12.457  0.00  0.00    -0.048 C 
BRANCH  16  17
ATOM     17  N   UNL     1      38.280 -25.285 -12.801  0.00  0.00    +0.388 N 
ATOM     18  H   UNL     1      38.397 -24.294 -12.587  0.00  0.00    -0.084 HD
ATOM     19  H   UNL     1      38.935 -25.847 -12.257  0.00  0.00    -0.084 HD
BRANCH  17  20
ATOM     20  C   UNL     1      38.544 -25.501 -14.216  0.00  0.00    -0.046 C 
ATOM     21  C   UNL     1      37.626 -26.621 -14.720  0.00  0.00    -0.022 C 
ATOM     22  C   UNL     1      38.248 -24.200 -14.971  0.00  0.00    -0.022 C 
ATOM     23  C   UNL     1      40.012 -25.898 -14.405  0.00  0.00    -0.022 C 
ENDBRANCH  17  20
ENDBRANCH  16  17
ENDBRANCH  13  16
ENDBRANCH   1  13
TORSDOF 7
ENDMDL
MODEL 6
REMARK VINA RESULT:      -8.0      1.787      2.891
REMARK  Name = 36920
REMARK  7 active torsions:
REMARK  status: ('A' for Active; 'I' for Inactive)
REMARK    1  A    between atoms: C_1  and  O_2
REMARK    2  A    between atoms: C_1  and  C_13
REMARK    3  A    between atoms: O_2  and  C_9
REMARK    4  A    between atoms: C_13  and  O_14
REMARK    5  A    between atoms: C_13  and  C_16
REMARK    6  A    between atoms: C_16  and  N_17
REMARK    7  A    between atoms: N_17  and  C_20
REMARK                            x       y       z     vdW  Elec       q    Type
REMARK                         _______ _______ _______ _____ _____    ______ ____
ROOT
ATOM      1  C   UNL     1      33.040 -12.923 -23.009  0.00  0.00    +0.232 C 
ENDROOT
BRANCH   1   2
ATOM      2  O   UNL     1      33.541 -14.147 -22.477  0.00  0.00    -0.472 OA
BRANCH   2   9
ATOM      3  S   UNL     1      34.708 -16.560 -21.220  0.00  0.00    -0.111 S 
ATOM      4  C   UNL     1      35.250 -18.694 -23.604  0.00  0.00    +0.028 C 
ATOM      5  C   UNL     1      35.109 -19.121 -22.147  0.00  0.00    +0.017 C 
ATOM      6  C   UNL     1      34.632 -17.358 -23.930  0.00  0.00    -0.014 C 
ATOM      7  C   UNL     1      34.383 -16.365 -22.969  0.00  0.00    +0.055 C 
ATOM      8  C   UNL     1      35.694 -18.083 -21.207  0.00  0.00    +0.063 C 
ATOM      9  C   UNL     1      33.823 -15.140 -23.372  0.00  0.00    +0.144 C 
ATOM     10  C   UNL     1      34.340 -17.089 -25.280  0.00  0.00    -0.004 C 
ATOM     11  C   UNL     1      33.530 -14.894 -24.714  0.00  0.00    +0.037 C 
ATOM     12  C   UNL     1      33.791 -15.868 -25.670  0.00  0.00    +0.003 C 
ENDBRANCH   2   9
ENDBRANCH   1   2
BRANCH   1  13
ATOM     13  C   UNL     1      31.891 -12.436 -22.129  0.00  0.00    +0.133 C 
BRANCH  13  14
ATOM     14  O   UNL     1      32.157 -12.817 -20.776  0.00  0.00    -0.383 OA
ATOM     15  H   UNL     1      31.405 -13.319 -20.426  0.00  0.00    +0.210 HD
ENDBRANCH  13  14
BRANCH  13  16
ATOM     16  C   UNL     1      31.701 -10.918 -22.168  0.00  0.00    -0.048 C 
BRANCH  16  17
ATOM     17  N   UNL     1      32.678 -10.266 -23.029  0.00  0.00    +0.388 N 
ATOM     18  H   UNL     1      33.608 -10.626 -22.812  0.00  0.00    -0.084 HD
ATOM     19  H   UNL     1      32.438 -10.464 -24.002  0.00  0.00    -0.084 HD
BRANCH  17  20
ATOM     20  C   UNL     1      32.667  -8.824 -22.831  0.00  0.00    -0.046 C 
ATOM     21  C   UNL     1      32.576  -8.538 -21.328  0.00  0.00    -0.022 C 
ATOM     22  C   UNL     1      33.967  -8.243 -23.398  0.00  0.00    -0.022 C 
ATOM     23  C   UNL     1      31.459  -8.220 -23.557  0.00  0.00    -0.022 C 
ENDBRANCH  17  20
ENDBRANCH  16  17
ENDBRANCH  13  16
ENDBRANCH   1  13
TORSDOF 7
ENDMDL
MODEL 7
REMARK VINA RESULT:      -7.9      8.104     10.834
REMARK  Name = 36920
REMARK  7 active torsions:
REMARK  status: ('A' for Active; 'I' for Inactive)
REMARK    1  A    between atoms: C_1  and  O_2
REMARK    2  A    between atoms: C_1  and  C_13
REMARK    3  A    between atoms: O_2  and  C_9
REMARK    4  A    between atoms: C_13  and  O_14
REMARK    5  A    between atoms: C_13  and  C_16
REMARK    6  A    between atoms: C_16  and  N_17
REMARK    7  A    between atoms: N_17  and  C_20
REMARK                            x       y       z     vdW  Elec       q    Type
REMARK                         _______ _______ _______ _____ _____    ______ ____
ROOT
ATOM      1  C   UNL     1      33.788 -22.339 -18.797  0.00  0.00    +0.232 C 
ENDROOT
BRANCH   1   2
ATOM      2  O   UNL     1      32.628 -22.630 -18.022  0.00  0.00    -0.472 OA
BRANCH   2   9
ATOM      3  S   UNL     1      30.116 -23.328 -16.620  0.00  0.00    -0.111 S 
ATOM      4  C   UNL     1      30.958 -24.593 -13.753  0.00  0.00    +0.028 C 
ATOM      5  C   UNL     1      29.603 -24.864 -14.394  0.00  0.00    +0.017 C 
ATOM      6  C   UNL     1      32.033 -24.156 -14.715  0.00  0.00    -0.014 C 
ATOM      7  C   UNL     1      31.763 -23.576 -15.966  0.00  0.00    +0.055 C 
ATOM      8  C   UNL     1      29.097 -23.652 -15.154  0.00  0.00    +0.063 C 
ATOM      9  C   UNL     1      32.833 -23.179 -16.787  0.00  0.00    +0.144 C 
ATOM     10  C   UNL     1      33.371 -24.296 -14.303  0.00  0.00    -0.004 C 
ATOM     11  C   UNL     1      34.154 -23.336 -16.368  0.00  0.00    +0.037 C 
ATOM     12  C   UNL     1      34.424 -23.892 -15.124  0.00  0.00    +0.003 C 
ENDBRANCH   2   9
ENDBRANCH   1   2
BRANCH   1  13
ATOM     13  C   UNL     1      33.401 -21.381 -19.922  0.00  0.00    +0.133 C 
BRANCH  13  14
ATOM     14  O   UNL     1      32.308 -20.572 -19.480  0.00  0.00    -0.383 OA
ATOM     15  H   UNL     1      32.040 -20.848 -18.590  0.00  0.00    +0.210 HD
ENDBRANCH  13  14
BRANCH  13  16
ATOM     16  C   UNL     1      34.543 -20.453 -20.345  0.00  0.00    -0.048 C 
BRANCH  16  17
ATOM     17  N   UNL     1      34.055 -19.263 -21.030  0.00  0.00    +0.388 N 
ATOM     18  H   UNL     1      33.446 -19.547 -21.799  0.00  0.00    -0.084 HD
ATOM     19  H   UNL     1      33.540 -18.690 -20.361  0.00  0.00    -0.084 HD
BRANCH  17  20
ATOM     20  C   UNL     1      35.160 -18.479 -21.562  0.00  0.00    -0.046 C 
ATOM     21  C   UNL     1      34.976 -17.020 -21.130  0.00  0.00    -0.022 C 
ATOM     22  C   UNL     1      36.470 -19.034 -20.992  0.00  0.00    -0.022 C 
ATOM     23  C   UNL     1      35.166 -18.579 -23.091  0.00  0.00    -0.022 C 
ENDBRANCH  17  20
ENDBRANCH  16  17
ENDBRANCH  13  16
ENDBRANCH   1  13
TORSDOF 7
ENDMDL
MODEL 8
REMARK VINA RESULT:      -7.9      2.855      7.852
REMARK  Name = 36920
REMARK  7 active torsions:
REMARK  status: ('A' for Active; 'I' for Inactive)
REMARK    1  A    between atoms: C_1  and  O_2
REMARK    2  A    between atoms: C_1  and  C_13
REMARK    3  A    between atoms: O_2  and  C_9
REMARK    4  A    between atoms: C_13  and  O_14
REMARK    5  A    between atoms: C_13  and  C_16
REMARK    6  A    between atoms: C_16  and  N_17
REMARK    7  A    between atoms: N_17  and  C_20
REMARK                            x       y       z     vdW  Elec       q    Type
REMARK                         _______ _______ _______ _____ _____    ______ ____
ROOT
ATOM      1  C   UNL     1      34.044 -15.142 -23.250  0.00  0.00    +0.232 C 
ENDROOT
BRANCH   1   2
ATOM      2  O   UNL     1      32.902 -14.315 -23.047  0.00  0.00    -0.472 OA
BRANCH   2   9
ATOM      3  S   UNL     1      31.655 -12.499 -21.069  0.00  0.00    -0.111 S 
ATOM      4  C   UNL     1      32.140  -9.472 -22.134  0.00  0.00    +0.028 C 
ATOM      5  C   UNL     1      31.849  -9.782 -20.670  0.00  0.00    +0.017 C 
ATOM      6  C   UNL     1      32.685 -10.633 -22.926  0.00  0.00    -0.014 C 
ATOM      7  C   UNL     1      32.504 -11.976 -22.555  0.00  0.00    +0.055 C 
ATOM      8  C   UNL     1      30.885 -10.946 -20.532  0.00  0.00    +0.063 C 
ATOM      9  C   UNL     1      33.030 -12.993 -23.370  0.00  0.00    +0.144 C 
ATOM     10  C   UNL     1      33.365 -10.342 -24.123  0.00  0.00    -0.004 C 
ATOM     11  C   UNL     1      33.712 -12.686 -24.548  0.00  0.00    +0.037 C 
ATOM     12  C   UNL     1      33.878 -11.360 -24.926  0.00  0.00    +0.003 C 
ENDBRANCH   2   9
ENDBRANCH   1   2
BRANCH   1  13
ATOM     13  C   UNL     1      34.477 -15.724 -21.907  0.00  0.00    +0.133 C 
BRANCH  13  14
ATOM     14  O   UNL     1      33.313 -15.946 -21.106  0.00  0.00    -0.383 OA
ATOM     15  H   UNL     1      33.088 -15.132 -20.628  0.00  0.00    +0.210 HD
ENDBRANCH  13  14
BRANCH  13  16
ATOM     16  C   UNL     1      35.227 -17.052 -22.037  0.00  0.00    -0.048 C 
BRANCH  16  17
ATOM     17  N   UNL     1      35.042 -17.902 -20.868  0.00  0.00    +0.388 N 
ATOM     18  H   UNL     1      35.904 -17.910 -20.322  0.00  0.00    -0.084 HD
ATOM     19  H   UNL     1      34.272 -17.527 -20.312  0.00  0.00    -0.084 HD
BRANCH  17  20
ATOM     20  C   UNL     1      34.713 -19.264 -21.261  0.00  0.00    -0.046 C 
ATOM     21  C   UNL     1      34.827 -19.375 -22.785  0.00  0.00    -0.022 C 
ATOM     22  C   UNL     1      35.707 -20.219 -20.589  0.00  0.00    -0.022 C 
ATOM     23  C   UNL     1      33.284 -19.592 -20.813  0.00  0.00    -0.022 C 
ENDBRANCH  17  20
ENDBRANCH  16  17
ENDBRANCH  13  16
ENDBRANCH   1  13
TORSDOF 7
ENDMDL
MODEL 9
REMARK VINA RESULT:      -7.8      2.035      2.564
REMARK  Name = 36920
REMARK  7 active torsions:
REMARK  status: ('A' for Active; 'I' for Inactive)
REMARK    1  A    between atoms: C_1  and  O_2
REMARK    2  A    between atoms: C_1  and  C_13
REMARK    3  A    between atoms: O_2  and  C_9
REMARK    4  A    between atoms: C_13  and  O_14
REMARK    5  A    between atoms: C_13  and  C_16
REMARK    6  A    between atoms: C_16  and  N_17
REMARK    7  A    between atoms: N_17  and  C_20
REMARK                            x       y       z     vdW  Elec       q    Type
REMARK                         _______ _______ _______ _____ _____    ______ ____
ROOT
ATOM      1  C   UNL     1      32.480 -11.711 -22.687  0.00  0.00    +0.232 C 
ENDROOT
BRANCH   1   2
ATOM      2  O   UNL     1      31.973 -13.030 -22.870  0.00  0.00    -0.472 OA
BRANCH   2   9
ATOM      3  S   UNL     1      33.195 -14.781 -24.921  0.00  0.00    -0.111 S 
ATOM      4  C   UNL     1      34.849 -17.078 -23.333  0.00  0.00    +0.028 C 
ATOM      5  C   UNL     1      35.155 -16.709 -24.780  0.00  0.00    +0.017 C 
ATOM      6  C   UNL     1      34.125 -16.010 -22.552  0.00  0.00    -0.014 C 
ATOM      7  C   UNL     1      33.366 -14.992 -23.152  0.00  0.00    +0.055 C 
ATOM      8  C   UNL     1      33.892 -16.339 -25.536  0.00  0.00    +0.063 C 
ATOM      9  C   UNL     1      32.708 -14.053 -22.339  0.00  0.00    +0.144 C 
ATOM     10  C   UNL     1      34.182 -16.081 -21.147  0.00  0.00    -0.004 C 
ATOM     11  C   UNL     1      32.784 -14.131 -20.949  0.00  0.00    +0.037 C 
ATOM     12  C   UNL     1      33.520 -15.147 -20.351  0.00  0.00    +0.003 C 
ENDBRANCH   2   9
ENDBRANCH   1   2
BRANCH   1  13
ATOM     13  C   UNL     1      31.325 -10.787 -22.305  0.00  0.00    +0.133 C 
BRANCH  13  14
ATOM     14  O   UNL     1      30.399 -11.521 -21.499  0.00  0.00    -0.383 OA
ATOM     15  H   UNL     1      29.537 -11.550 -21.942  0.00  0.00    +0.210 HD
ENDBRANCH  13  14
BRANCH  13  16
ATOM     16  C   UNL     1      31.772  -9.554 -21.515  0.00  0.00    -0.048 C 
BRANCH  16  17
ATOM     17  N   UNL     1      31.578  -8.322 -22.268  0.00  0.00    +0.388 N 
ATOM     18  H   UNL     1      31.684  -8.519 -23.264  0.00  0.00    -0.084 HD
ATOM     19  H   UNL     1      30.642  -7.966 -22.073  0.00  0.00    -0.084 HD
BRANCH  17  20
ATOM     20  C   UNL     1      32.552  -7.314 -21.876  0.00  0.00    -0.046 C 
ATOM     21  C   UNL     1      32.837  -7.465 -20.378  0.00  0.00    -0.022 C 
ATOM     22  C   UNL     1      33.838  -7.538 -22.680  0.00  0.00    -0.022 C 
ATOM     23  C   UNL     1      31.985  -5.919 -22.167  0.00  0.00    -0.022 C 
ENDBRANCH  17  20
ENDBRANCH  16  17
ENDBRANCH  13  16
ENDBRANCH   1  13
TORSDOF 7
ENDMDL
