MODEL 1
REMARK VINA RESULT:      -8.3      0.000      0.000
REMARK  Name = 20055352
REMARK  3 active torsions:
REMARK  status: ('A' for Active; 'I' for Inactive)
REMARK    1  A    between atoms: C_7  and  C_26
REMARK    2  A    between atoms: C_7  and  O_28
REMARK    3  A    between atoms: C_13  and  C_24
REMARK                            x       y       z     vdW  Elec       q    Type
REMARK                         _______ _______ _______ _____ _____    ______ ____
ROOT
ATOM      1  O   UNL     1      34.148  -9.697 -24.991  0.00  0.00    -0.291 OA
ATOM      2  C   UNL     1      34.700 -17.137 -23.365  0.00  0.00    +0.003 C 
ATOM      3  C   UNL     1      34.657 -17.532 -21.870  0.00  0.00    +0.029 C 
ATOM      4  C   UNL     1      33.805 -15.935 -23.697  0.00  0.00    +0.001 C 
ATOM      5  C   UNL     1      34.271 -14.710 -22.857  0.00  0.00    +0.003 C 
ATOM      6  C   UNL     1      33.437 -13.405 -23.163  0.00  0.00    +0.016 C 
ATOM      7  C   UNL     1      35.562 -18.789 -21.909  0.00  0.00    +0.139 C 
ATOM      8  C   UNL     1      35.182 -16.333 -21.064  0.00  0.00    +0.003 C 
ATOM      9  C   UNL     1      34.373 -15.054 -21.346  0.00  0.00    +0.000 C 
ATOM     10  C   UNL     1      34.449 -18.457 -24.087  0.00  0.00    +0.003 C 
ATOM     11  C   UNL     1      33.856 -15.597 -25.193  0.00  0.00    +0.013 C 
ATOM     12  C   UNL     1      35.146 -19.515 -23.207  0.00  0.00    +0.034 C 
ATOM     13  C   UNL     1      32.971 -14.389 -25.526  0.00  0.00    +0.114 C 
ATOM     14  C   UNL     1      33.373 -13.172 -24.689  0.00  0.00    -0.034 C 
ATOM     15  C   UNL     1      33.233 -17.910 -21.374  0.00  0.00    +0.003 C 
ATOM     16  C   UNL     1      34.148 -12.211 -22.457  0.00  0.00    +0.012 C 
ATOM     17  C   UNL     1      31.991 -13.504 -22.625  0.00  0.00    +0.004 C 
ATOM     18  C   UNL     1      33.688 -10.851 -22.948  0.00  0.00    +0.069 C 
ATOM     19  C   UNL     1      33.623 -11.974 -25.248  0.00  0.00    +0.029 C 
ATOM     20  C   UNL     1      33.872 -10.759 -24.437  0.00  0.00    +0.173 C 
ENDROOT
BRANCH  13  24
ATOM     21  F   UNL     1      31.917 -13.423 -27.395  0.00  0.00    -0.170 F 
ATOM     22  F   UNL     1      34.092 -13.604 -27.440  0.00  0.00    -0.170 F 
ATOM     23  F   UNL     1      32.844 -15.382 -27.655  0.00  0.00    -0.170 F 
ATOM     24  C   UNL     1      32.956 -14.193 -27.049  0.00  0.00    +0.401 C 
ENDBRANCH  13  24
BRANCH   7  26
ATOM     25  O   UNL     1      36.354 -19.726 -19.843  0.00  0.00    -0.294 OA
ATOM     26  C   UNL     1      35.475 -19.663 -20.694  0.00  0.00    +0.175 C 
ATOM     27  C   UNL     1      34.232 -20.473 -20.561  0.00  0.00    +0.075 C 
ENDBRANCH   7  26
BRANCH   7  28
ATOM     28  O   UNL     1      36.938 -18.428 -21.988  0.00  0.00    -0.380 OA
ATOM     29  H   UNL     1      37.229 -18.078 -21.131  0.00  0.00    +0.211 HD
ENDBRANCH   7  28
TORSDOF 3
ENDMDL
MODEL 2
REMARK VINA RESULT:      -7.6      3.527      8.116
REMARK  Name = 20055352
REMARK  3 active torsions:
REMARK  status: ('A' for Active; 'I' for Inactive)
REMARK    1  A    between atoms: C_7  and  C_26
REMARK    2  A    between atoms: C_7  and  O_28
REMARK    3  A    between atoms: C_13  and  C_24
REMARK                            x       y       z     vdW  Elec       q    Type
REMARK                         _______ _______ _______ _____ _____    ______ ____
ROOT
ATOM      1  O   UNL     1      35.382 -17.077 -24.017  0.00  0.00    -0.291 OA
ATOM      2  C   UNL     1      32.684 -10.356 -21.595  0.00  0.00    +0.003 C 
ATOM      3  C   UNL     1      32.431  -9.274 -22.671  0.00  0.00    +0.029 C 
ATOM      4  C   UNL     1      32.393 -11.779 -22.091  0.00  0.00    +0.001 C 
ATOM      5  C   UNL     1      33.306 -12.087 -23.312  0.00  0.00    +0.003 C 
ATOM      6  C   UNL     1      33.113 -13.551 -23.869  0.00  0.00    +0.016 C 
ATOM      7  C   UNL     1      32.720  -8.004 -21.832  0.00  0.00    +0.139 C 
ATOM      8  C   UNL     1      33.389  -9.558 -23.840  0.00  0.00    +0.003 C 
ATOM      9  C   UNL     1      33.206 -10.981 -24.398  0.00  0.00    +0.000 C 
ATOM     10  C   UNL     1      31.921  -9.834 -20.381  0.00  0.00    +0.003 C 
ATOM     11  C   UNL     1      32.628 -12.815 -20.984  0.00  0.00    +0.013 C 
ATOM     12  C   UNL     1      32.077  -8.301 -20.460  0.00  0.00    +0.034 C 
ATOM     13  C   UNL     1      32.348 -14.240 -21.479  0.00  0.00    +0.114 C 
ATOM     14  C   UNL     1      33.201 -14.566 -22.708  0.00  0.00    -0.034 C 
ATOM     15  C   UNL     1      30.967  -9.254 -23.191  0.00  0.00    +0.003 C 
ATOM     16  C   UNL     1      34.239 -13.815 -24.913  0.00  0.00    +0.012 C 
ATOM     17  C   UNL     1      31.744 -13.728 -24.567  0.00  0.00    +0.004 C 
ATOM     18  C   UNL     1      34.413 -15.281 -25.264  0.00  0.00    +0.069 C 
ATOM     19  C   UNL     1      33.951 -15.682 -22.779  0.00  0.00    +0.029 C 
ATOM     20  C   UNL     1      34.666 -16.077 -24.015  0.00  0.00    +0.173 C 
ENDROOT
BRANCH  13  24
ATOM     21  F   UNL     1      31.987 -14.625 -19.187  0.00  0.00    -0.170 F 
ATOM     22  F   UNL     1      31.761 -16.319 -20.545  0.00  0.00    -0.170 F 
ATOM     23  F   UNL     1      33.749 -15.533 -20.101  0.00  0.00    -0.170 F 
ATOM     24  C   UNL     1      32.464 -15.208 -20.293  0.00  0.00    +0.401 C 
ENDBRANCH  13  24
BRANCH   7  26
ATOM     25  O   UNL     1      32.626  -6.301 -23.524  0.00  0.00    -0.294 OA
ATOM     26  C   UNL     1      32.234  -6.725 -22.444  0.00  0.00    +0.175 C 
ATOM     27  C   UNL     1      31.220  -5.970 -21.657  0.00  0.00    +0.075 C 
ENDBRANCH   7  26
BRANCH   7  28
ATOM     28  O   UNL     1      34.122  -7.807 -21.666  0.00  0.00    -0.380 OA
ATOM     29  H   UNL     1      34.376  -8.043 -20.760  0.00  0.00    +0.211 HD
ENDBRANCH   7  28
TORSDOF 3
ENDMDL
MODEL 3
REMARK VINA RESULT:      -7.5      9.310     11.996
REMARK  Name = 20055352
REMARK  3 active torsions:
REMARK  status: ('A' for Active; 'I' for Inactive)
REMARK    1  A    between atoms: C_7  and  C_26
REMARK    2  A    between atoms: C_7  and  O_28
REMARK    3  A    between atoms: C_13  and  C_24
REMARK                            x       y       z     vdW  Elec       q    Type
REMARK                         _______ _______ _______ _____ _____    ______ ____
ROOT
ATOM      1  O   UNL     1      28.613 -21.659 -16.363  0.00  0.00    -0.291 OA
ATOM      2  C   UNL     1      35.915 -23.402 -14.963  0.00  0.00    +0.003 C 
ATOM      3  C   UNL     1      36.189 -24.400 -13.813  0.00  0.00    +0.029 C 
ATOM      4  C   UNL     1      34.623 -23.708 -15.732  0.00  0.00    +0.001 C 
ATOM      5  C   UNL     1      33.421 -23.654 -14.746  0.00  0.00    +0.003 C 
ATOM      6  C   UNL     1      32.034 -23.912 -15.454  0.00  0.00    +0.016 C 
ATOM      7  C   UNL     1      37.564 -23.870 -13.334  0.00  0.00    +0.139 C 
ATOM      8  C   UNL     1      35.023 -24.282 -12.817  0.00  0.00    +0.003 C 
ATOM      9  C   UNL     1      33.665 -24.540 -13.494  0.00  0.00    +0.000 C 
ATOM     10  C   UNL     1      37.234 -23.374 -15.730  0.00  0.00    +0.003 C 
ATOM     11  C   UNL     1      34.407 -22.713 -16.880  0.00  0.00    +0.013 C 
ATOM     12  C   UNL     1      38.315 -23.530 -14.640  0.00  0.00    +0.034 C 
ATOM     13  C   UNL     1      33.111 -23.010 -17.645  0.00  0.00    +0.114 C 
ATOM     14  C   UNL     1      31.908 -23.005 -16.698  0.00  0.00    -0.034 C 
ATOM     15  C   UNL     1      36.317 -25.872 -14.294  0.00  0.00    +0.003 C 
ATOM     16  C   UNL     1      30.909 -23.590 -14.426  0.00  0.00    +0.012 C 
ATOM     17  C   UNL     1      31.882 -25.382 -15.907  0.00  0.00    +0.004 C 
ATOM     18  C   UNL     1      29.536 -23.435 -15.054  0.00  0.00    +0.069 C 
ATOM     19  C   UNL     1      30.803 -22.280 -16.955  0.00  0.00    +0.029 C 
ATOM     20  C   UNL     1      29.581 -22.379 -16.122  0.00  0.00    +0.173 C 
ENDROOT
BRANCH  13  24
ATOM     21  F   UNL     1      32.951 -22.795 -19.982  0.00  0.00    -0.170 F 
ATOM     22  F   UNL     1      31.940 -21.298 -18.757  0.00  0.00    -0.170 F 
ATOM     23  F   UNL     1      34.118 -21.297 -18.905  0.00  0.00    -0.170 F 
ATOM     24  C   UNL     1      33.027 -22.073 -18.858  0.00  0.00    +0.401 C 
ENDBRANCH  13  24
BRANCH   7  26
ATOM     25  O   UNL     1      38.063 -24.983 -11.264  0.00  0.00    -0.294 OA
ATOM     26  C   UNL     1      38.324 -24.811 -12.448  0.00  0.00    +0.175 C 
ATOM     27  C   UNL     1      39.444 -25.552 -13.092  0.00  0.00    +0.075 C 
ENDBRANCH   7  26
BRANCH   7  28
ATOM     28  O   UNL     1      37.414 -22.689 -12.551  0.00  0.00    -0.380 OA
ATOM     29  H   UNL     1      37.904 -21.962 -12.966  0.00  0.00    +0.211 HD
ENDBRANCH   7  28
TORSDOF 3
ENDMDL
MODEL 4
REMARK VINA RESULT:      -6.9      8.060     11.277
REMARK  Name = 20055352
REMARK  3 active torsions:
REMARK  status: ('A' for Active; 'I' for Inactive)
REMARK    1  A    between atoms: C_7  and  C_26
REMARK    2  A    between atoms: C_7  and  O_28
REMARK    3  A    between atoms: C_13  and  C_24
REMARK                            x       y       z     vdW  Elec       q    Type
REMARK                         _______ _______ _______ _____ _____    ______ ____
ROOT
ATOM      1  O   UNL     1      37.271 -19.577 -20.026  0.00  0.00    -0.291 OA
ATOM      2  C   UNL     1      32.403 -23.116 -15.326  0.00  0.00    +0.003 C 
ATOM      3  C   UNL     1      31.035 -23.530 -15.918  0.00  0.00    +0.029 C 
ATOM      4  C   UNL     1      33.553 -23.221 -16.337  0.00  0.00    +0.001 C 
ATOM      5  C   UNL     1      33.248 -22.294 -17.550  0.00  0.00    +0.003 C 
ATOM      6  C   UNL     1      34.399 -22.298 -18.629  0.00  0.00    +0.016 C 
ATOM      7  C   UNL     1      30.156 -23.401 -14.648  0.00  0.00    +0.139 C 
ATOM      8  C   UNL     1      30.722 -22.561 -17.070  0.00  0.00    +0.003 C 
ATOM      9  C   UNL     1      31.834 -22.560 -18.134  0.00  0.00    +0.000 C 
ATOM     10  C   UNL     1      32.489 -23.923 -14.034  0.00  0.00    +0.003 C 
ATOM     11  C   UNL     1      34.893 -22.830 -15.701  0.00  0.00    +0.013 C 
ATOM     12  C   UNL     1      31.037 -23.976 -13.517  0.00  0.00    +0.034 C 
ATOM     13  C   UNL     1      36.044 -22.924 -16.712  0.00  0.00    +0.114 C 
ATOM     14  C   UNL     1      35.760 -22.055 -17.940  0.00  0.00    -0.034 C 
ATOM     15  C   UNL     1      31.009 -24.992 -16.444  0.00  0.00    +0.003 C 
ATOM     16  C   UNL     1      34.095 -21.163 -19.652  0.00  0.00    +0.012 C 
ATOM     17  C   UNL     1      34.473 -23.641 -19.391  0.00  0.00    +0.004 C 
ATOM     18  C   UNL     1      35.278 -20.799 -20.529  0.00  0.00    +0.069 C 
ATOM     19  C   UNL     1      36.656 -21.162 -18.403  0.00  0.00    +0.029 C 
ATOM     20  C   UNL     1      36.451 -20.421 -19.669  0.00  0.00    +0.173 C 
ENDROOT
BRANCH  13  24
ATOM     21  F   UNL     1      38.378 -23.210 -16.663  0.00  0.00    -0.170 F 
ATOM     22  F   UNL     1      37.570 -21.340 -15.877  0.00  0.00    -0.170 F 
ATOM     23  F   UNL     1      37.320 -23.195 -14.754  0.00  0.00    -0.170 F 
ATOM     24  C   UNL     1      37.368 -22.659 -15.980  0.00  0.00    +0.401 C 
ENDBRANCH  13  24
BRANCH   7  26
ATOM     25  O   UNL     1      28.548 -25.128 -14.197  0.00  0.00    -0.294 OA
ATOM     26  C   UNL     1      28.815 -24.065 -14.743  0.00  0.00    +0.175 C 
ATOM     27  C   UNL     1      27.790 -23.351 -15.555  0.00  0.00    +0.075 C 
ENDBRANCH   7  26
BRANCH   7  28
ATOM     28  O   UNL     1      29.856 -22.036 -14.368  0.00  0.00    -0.380 OA
ATOM     29  H   UNL     1      30.681 -21.529 -14.312  0.00  0.00    +0.211 HD
ENDBRANCH   7  28
TORSDOF 3
ENDMDL
MODEL 5
REMARK VINA RESULT:      -6.6      4.594      7.093
REMARK  Name = 20055352
REMARK  3 active torsions:
REMARK  status: ('A' for Active; 'I' for Inactive)
REMARK    1  A    between atoms: C_7  and  C_26
REMARK    2  A    between atoms: C_7  and  O_28
REMARK    3  A    between atoms: C_13  and  C_24
REMARK                            x       y       z     vdW  Elec       q    Type
REMARK                         _______ _______ _______ _____ _____    ______ ____
ROOT
ATOM      1  O   UNL     1      31.582  -4.132 -24.106  0.00  0.00    -0.291 OA
ATOM      2  C   UNL     1      32.470 -11.565 -22.597  0.00  0.00    +0.003 C 
ATOM      3  C   UNL     1      33.304 -12.389 -23.606  0.00  0.00    +0.029 C 
ATOM      4  C   UNL     1      32.979 -10.127 -22.427  0.00  0.00    +0.001 C 
ATOM      5  C   UNL     1      32.927  -9.405 -23.805  0.00  0.00    +0.003 C 
ATOM      6  C   UNL     1      33.391  -7.899 -23.725  0.00  0.00    +0.016 C 
ATOM      7  C   UNL     1      32.598 -13.762 -23.462  0.00  0.00    +0.139 C 
ATOM      8  C   UNL     1      33.185 -11.696 -24.973  0.00  0.00    +0.003 C 
ATOM      9  C   UNL     1      33.641 -10.228 -24.912  0.00  0.00    +0.000 C 
ATOM     10  C   UNL     1      32.406 -12.468 -21.368  0.00  0.00    +0.003 C 
ATOM     11  C   UNL     1      32.143  -9.356 -21.397  0.00  0.00    +0.013 C 
ATOM     12  C   UNL     1      32.337 -13.897 -21.946  0.00  0.00    +0.034 C 
ATOM     13  C   UNL     1      32.643  -7.915 -21.233  0.00  0.00    +0.114 C 
ATOM     14  C   UNL     1      32.644  -7.183 -22.577  0.00  0.00    -0.034 C 
ATOM     15  C   UNL     1      34.802 -12.511 -23.211  0.00  0.00    +0.003 C 
ATOM     16  C   UNL     1      33.062  -7.227 -25.093  0.00  0.00    +0.012 C 
ATOM     17  C   UNL     1      34.911  -7.774 -23.468  0.00  0.00    +0.004 C 
ATOM     18  C   UNL     1      33.107  -5.711 -25.054  0.00  0.00    +0.069 C 
ATOM     19  C   UNL     1      32.059  -5.981 -22.735  0.00  0.00    +0.029 C 
ATOM     20  C   UNL     1      32.178  -5.202 -23.990  0.00  0.00    +0.173 C 
ENDROOT
BRANCH  13  24
ATOM     21  F   UNL     1      32.633  -6.342 -19.483  0.00  0.00    -0.170 F 
ATOM     22  F   UNL     1      30.774  -6.638 -20.589  0.00  0.00    -0.170 F 
ATOM     23  F   UNL     1      31.478  -8.173 -19.205  0.00  0.00    -0.170 F 
ATOM     24  C   UNL     1      31.859  -7.247 -20.094  0.00  0.00    +0.401 C 
ENDBRANCH  13  24
BRANCH   7  26
ATOM     25  O   UNL     1      33.406 -15.174 -25.230  0.00  0.00    -0.294 OA
ATOM     26  C   UNL     1      33.359 -14.920 -24.032  0.00  0.00    +0.175 C 
ATOM     27  C   UNL     1      34.081 -15.775 -23.048  0.00  0.00    +0.075 C 
ENDBRANCH   7  26
BRANCH   7  28
ATOM     28  O   UNL     1      31.356 -13.775 -24.161  0.00  0.00    -0.380 OA
ATOM     29  H   UNL     1      31.522 -13.723 -25.115  0.00  0.00    +0.211 HD
ENDBRANCH   7  28
TORSDOF 3
ENDMDL
MODEL 6
REMARK VINA RESULT:      -6.5      2.772      3.665
REMARK  Name = 20055352
REMARK  3 active torsions:
REMARK  status: ('A' for Active; 'I' for Inactive)
REMARK    1  A    between atoms: C_7  and  C_26
REMARK    2  A    between atoms: C_7  and  O_28
REMARK    3  A    between atoms: C_13  and  C_24
REMARK                            x       y       z     vdW  Elec       q    Type
REMARK                         _______ _______ _______ _____ _____    ______ ____
ROOT
ATOM      1  O   UNL     1      32.460  -7.498 -20.140  0.00  0.00    -0.291 OA
ATOM      2  C   UNL     1      34.010 -14.700 -22.149  0.00  0.00    +0.003 C 
ATOM      3  C   UNL     1      33.367 -15.819 -21.295  0.00  0.00    +0.029 C 
ATOM      4  C   UNL     1      33.110 -13.466 -22.301  0.00  0.00    +0.001 C 
ATOM      5  C   UNL     1      32.805 -12.885 -20.890  0.00  0.00    +0.003 C 
ATOM      6  C   UNL     1      31.919 -11.580 -20.942  0.00  0.00    +0.016 C 
ATOM      7  C   UNL     1      34.464 -16.905 -21.427  0.00  0.00    +0.139 C 
ATOM      8  C   UNL     1      33.135 -15.245 -19.888  0.00  0.00    +0.003 C 
ATOM      9  C   UNL     1      32.265 -13.975 -19.924  0.00  0.00    +0.000 C 
ATOM     10  C   UNL     1      34.465 -15.433 -23.408  0.00  0.00    +0.003 C 
ATOM     11  C   UNL     1      33.773 -12.396 -23.178  0.00  0.00    +0.013 C 
ATOM     12  C   UNL     1      34.903 -16.824 -22.906  0.00  0.00    +0.034 C 
ATOM     13  C   UNL     1      32.881 -11.156 -23.323  0.00  0.00    +0.114 C 
ATOM     14  C   UNL     1      32.525 -10.579 -21.950  0.00  0.00    -0.034 C 
ATOM     15  C   UNL     1      32.022 -16.339 -21.875  0.00  0.00    +0.003 C 
ATOM     16  C   UNL     1      31.892 -10.966 -19.511  0.00  0.00    +0.012 C 
ATOM     17  C   UNL     1      30.466 -11.885 -21.375  0.00  0.00    +0.004 C 
ATOM     18  C   UNL     1      31.396  -9.532 -19.471  0.00  0.00    +0.069 C 
ATOM     19  C   UNL     1      32.702  -9.277 -21.658  0.00  0.00    +0.029 C 
ATOM     20  C   UNL     1      32.230  -8.681 -20.386  0.00  0.00    +0.173 C 
ENDROOT
BRANCH  13  24
ATOM     21  F   UNL     1      32.736  -9.136 -24.520  0.00  0.00    -0.170 F 
ATOM     22  F   UNL     1      34.710  -9.767 -23.834  0.00  0.00    -0.170 F 
ATOM     23  F   UNL     1      33.742 -10.815 -25.486  0.00  0.00    -0.170 F 
ATOM     24  C   UNL     1      33.536 -10.190 -24.320  0.00  0.00    +0.401 C 
ENDBRANCH  13  24
BRANCH   7  26
ATOM     25  O   UNL     1      32.894 -18.559 -20.670  0.00  0.00    -0.294 OA
ATOM     26  C   UNL     1      34.035 -18.282 -21.017  0.00  0.00    +0.175 C 
ATOM     27  C   UNL     1      35.091 -19.333 -21.056  0.00  0.00    +0.075 C 
ENDBRANCH   7  26
BRANCH   7  28
ATOM     28  O   UNL     1      35.577 -16.616 -20.585  0.00  0.00    -0.380 OA
ATOM     29  H   UNL     1      36.378 -16.533 -21.126  0.00  0.00    +0.211 HD
ENDBRANCH   7  28
TORSDOF 3
ENDMDL
MODEL 7
REMARK VINA RESULT:      -6.4      7.193     11.171
REMARK  Name = 20055352
REMARK  3 active torsions:
REMARK  status: ('A' for Active; 'I' for Inactive)
REMARK    1  A    between atoms: C_7  and  C_26
REMARK    2  A    between atoms: C_7  and  O_28
REMARK    3  A    between atoms: C_13  and  C_24
REMARK                            x       y       z     vdW  Elec       q    Type
REMARK                         _______ _______ _______ _____ _____    ______ ____
ROOT
ATOM      1  O   UNL     1      34.356 -23.769 -11.966  0.00  0.00    -0.291 OA
ATOM      2  C   UNL     1      33.775 -21.153 -19.116  0.00  0.00    +0.003 C 
ATOM      3  C   UNL     1      35.085 -21.050 -19.933  0.00  0.00    +0.029 C 
ATOM      4  C   UNL     1      33.755 -22.351 -18.158  0.00  0.00    +0.001 C 
ATOM      5  C   UNL     1      34.941 -22.221 -17.159  0.00  0.00    +0.003 C 
ATOM      6  C   UNL     1      34.979 -23.388 -16.098  0.00  0.00    +0.016 C 
ATOM      7  C   UNL     1      34.735 -19.835 -20.829  0.00  0.00    +0.139 C 
ATOM      8  C   UNL     1      36.235 -20.855 -18.931  0.00  0.00    +0.003 C 
ATOM      9  C   UNL     1      36.289 -21.992 -17.894  0.00  0.00    +0.000 C 
ATOM     10  C   UNL     1      32.686 -21.048 -20.180  0.00  0.00    +0.003 C 
ATOM     11  C   UNL     1      32.428 -22.431 -17.392  0.00  0.00    +0.013 C 
ATOM     12  C   UNL     1      33.260 -20.066 -21.222  0.00  0.00    +0.034 C 
ATOM     13  C   UNL     1      32.408 -23.622 -16.425  0.00  0.00    +0.114 C 
ATOM     14  C   UNL     1      33.586 -23.550 -15.449  0.00  0.00    -0.034 C 
ATOM     15  C   UNL     1      35.363 -22.302 -20.810  0.00  0.00    +0.003 C 
ATOM     16  C   UNL     1      36.043 -23.017 -15.021  0.00  0.00    +0.012 C 
ATOM     17  C   UNL     1      35.377 -24.738 -16.738  0.00  0.00    +0.004 C 
ATOM     18  C   UNL     1      35.943 -23.845 -13.754  0.00  0.00    +0.069 C 
ATOM     19  C   UNL     1      33.416 -23.653 -14.118  0.00  0.00    +0.029 C 
ATOM     20  C   UNL     1      34.559 -23.728 -13.178  0.00  0.00    +0.173 C 
ENDROOT
BRANCH  13  24
ATOM     21  F   UNL     1      30.854 -22.766 -14.880  0.00  0.00    -0.170 F 
ATOM     22  F   UNL     1      30.078 -23.586 -16.748  0.00  0.00    -0.170 F 
ATOM     23  F   UNL     1      30.867 -24.923 -15.214  0.00  0.00    -0.170 F 
ATOM     24  C   UNL     1      31.010 -23.727 -15.798  0.00  0.00    +0.401 C 
ENDBRANCH  13  24
BRANCH   7  26
ATOM     25  O   UNL     1      35.318 -19.949 -23.157  0.00  0.00    -0.294 OA
ATOM     26  C   UNL     1      35.636 -19.649 -22.013  0.00  0.00    +0.175 C 
ATOM     27  C   UNL     1      36.975 -19.063 -21.728  0.00  0.00    +0.075 C 
ENDBRANCH   7  26
BRANCH   7  28
ATOM     28  O   UNL     1      34.848 -18.613 -20.104  0.00  0.00    -0.380 OA
ATOM     29  H   UNL     1      34.008 -18.426 -19.654  0.00  0.00    +0.211 HD
ENDBRANCH   7  28
TORSDOF 3
ENDMDL
MODEL 8
REMARK VINA RESULT:      -6.4      7.044     10.343
REMARK  Name = 20055352
REMARK  3 active torsions:
REMARK  status: ('A' for Active; 'I' for Inactive)
REMARK    1  A    between atoms: C_7  and  C_26
REMARK    2  A    between atoms: C_7  and  O_28
REMARK    3  A    between atoms: C_13  and  C_24
REMARK                            x       y       z     vdW  Elec       q    Type
REMARK                         _______ _______ _______ _____ _____    ______ ____
ROOT
ATOM      1  O   UNL     1      32.469 -19.330 -20.887  0.00  0.00    -0.291 OA
ATOM      2  C   UNL     1      36.424 -22.973 -15.464  0.00  0.00    +0.003 C 
ATOM      3  C   UNL     1      35.667 -24.046 -14.647  0.00  0.00    +0.029 C 
ATOM      4  C   UNL     1      35.975 -22.903 -16.930  0.00  0.00    +0.001 C 
ATOM      5  C   UNL     1      34.456 -22.569 -16.979  0.00  0.00    +0.003 C 
ATOM      6  C   UNL     1      33.905 -22.430 -18.452  0.00  0.00    +0.016 C 
ATOM      7  C   UNL     1      36.411 -23.912 -13.294  0.00  0.00    +0.139 C 
ATOM      8  C   UNL     1      34.178 -23.660 -14.652  0.00  0.00    +0.003 C 
ATOM      9  C   UNL     1      33.627 -23.529 -16.083  0.00  0.00    +0.000 C 
ATOM     10  C   UNL     1      37.891 -23.266 -15.162  0.00  0.00    +0.003 C 
ATOM     11  C   UNL     1      36.771 -21.848 -17.709  0.00  0.00    +0.013 C 
ATOM     12  C   UNL     1      37.893 -23.736 -13.693  0.00  0.00    +0.034 C 
ATOM     13  C   UNL     1      36.317 -21.769 -19.173  0.00  0.00    +0.114 C 
ATOM     14  C   UNL     1      34.816 -21.480 -19.261  0.00  0.00    -0.034 C 
ATOM     15  C   UNL     1      35.835 -25.483 -15.214  0.00  0.00    +0.003 C 
ATOM     16  C   UNL     1      32.458 -21.859 -18.367  0.00  0.00    +0.012 C 
ATOM     17  C   UNL     1      33.855 -23.793 -19.180  0.00  0.00    +0.004 C 
ATOM     18  C   UNL     1      31.933 -21.329 -19.688  0.00  0.00    +0.069 C 
ATOM     19  C   UNL     1      34.326 -20.483 -20.022  0.00  0.00    +0.029 C 
ATOM     20  C   UNL     1      32.872 -20.286 -20.226  0.00  0.00    +0.173 C 
ENDROOT
BRANCH  13  24
ATOM     21  F   UNL     1      37.669 -19.845 -19.093  0.00  0.00    -0.170 F 
ATOM     22  F   UNL     1      38.297 -21.471 -20.408  0.00  0.00    -0.170 F 
ATOM     23  F   UNL     1      36.576 -20.239 -20.941  0.00  0.00    -0.170 F 
ATOM     24  C   UNL     1      37.242 -20.802 -19.926  0.00  0.00    +0.401 C 
ENDBRANCH  13  24
BRANCH   7  26
ATOM     25  O   UNL     1      35.243 -25.105 -11.567  0.00  0.00    -0.294 OA
ATOM     26  C   UNL     1      36.190 -25.048 -12.342  0.00  0.00    +0.175 C 
ATOM     27  C   UNL     1      37.203 -26.139 -12.382  0.00  0.00    +0.075 C 
ENDBRANCH   7  26
BRANCH   7  28
ATOM     28  O   UNL     1      35.972 -22.760 -12.579  0.00  0.00    -0.380 OA
ATOM     29  H   UNL     1      36.590 -22.028 -12.736  0.00  0.00    +0.211 HD
ENDBRANCH   7  28
TORSDOF 3
ENDMDL
MODEL 9
REMARK VINA RESULT:      -6.0      5.299     10.690
REMARK  Name = 20055352
REMARK  3 active torsions:
REMARK  status: ('A' for Active; 'I' for Inactive)
REMARK    1  A    between atoms: C_7  and  C_26
REMARK    2  A    between atoms: C_7  and  O_28
REMARK    3  A    between atoms: C_13  and  C_24
REMARK                            x       y       z     vdW  Elec       q    Type
REMARK                         _______ _______ _______ _____ _____    ______ ____
ROOT
ATOM      1  O   UNL     1      31.948 -13.267 -22.711  0.00  0.00    -0.291 OA
ATOM      2  C   UNL     1      32.268  -5.879 -24.613  0.00  0.00    +0.003 C 
ATOM      3  C   UNL     1      31.517  -4.887 -23.695  0.00  0.00    +0.029 C 
ATOM      4  C   UNL     1      32.883  -7.059 -23.850  0.00  0.00    +0.001 C 
ATOM      5  C   UNL     1      31.750  -7.836 -23.119  0.00  0.00    +0.003 C 
ATOM      6  C   UNL     1      32.278  -9.102 -22.338  0.00  0.00    +0.016 C 
ATOM      7  C   UNL     1      31.123  -3.814 -24.742  0.00  0.00    +0.139 C 
ATOM      8  C   UNL     1      30.362  -5.657 -23.035  0.00  0.00    +0.003 C 
ATOM      9  C   UNL     1      30.865  -6.890 -22.263  0.00  0.00    +0.000 C 
ATOM     10  C   UNL     1      33.188  -4.978 -25.432  0.00  0.00    +0.003 C 
ATOM     11  C   UNL     1      33.642  -8.001 -24.794  0.00  0.00    +0.013 C 
ATOM     12  C   UNL     1      32.373  -3.685 -25.641  0.00  0.00    +0.034 C 
ATOM     13  C   UNL     1      34.250  -9.188 -24.035  0.00  0.00    +0.114 C 
ATOM     14  C   UNL     1      33.168  -9.955 -23.269  0.00  0.00    -0.034 C 
ATOM     15  C   UNL     1      32.421  -4.260 -22.597  0.00  0.00    +0.003 C 
ATOM     16  C   UNL     1      31.040  -9.920 -21.865  0.00  0.00    +0.012 C 
ATOM     17  C   UNL     1      33.111  -8.708 -21.097  0.00  0.00    +0.004 C 
ATOM     18  C   UNL     1      31.374 -11.334 -21.427  0.00  0.00    +0.069 C 
ATOM     19  C   UNL     1      33.027 -11.289 -23.380  0.00  0.00    +0.029 C 
ATOM     20  C   UNL     1      32.080 -12.057 -22.538  0.00  0.00    +0.173 C 
ENDROOT
BRANCH  13  24
ATOM     21  F   UNL     1      35.317  -9.308 -26.128  0.00  0.00    -0.170 F 
ATOM     22  F   UNL     1      36.286 -10.295 -24.439  0.00  0.00    -0.170 F 
ATOM     23  F   UNL     1      34.477 -11.150 -25.313  0.00  0.00    -0.170 F 
ATOM     24  C   UNL     1      35.108 -10.009 -25.008  0.00  0.00    +0.401 C 
ENDBRANCH  13  24
BRANCH   7  26
ATOM     25  O   UNL     1      29.565  -2.029 -24.342  0.00  0.00    -0.294 OA
ATOM     26  C   UNL     1      30.680  -2.505 -24.162  0.00  0.00    +0.175 C 
ATOM     27  C   UNL     1      31.684  -1.786 -23.329  0.00  0.00    +0.075 C 
ENDBRANCH   7  26
BRANCH   7  28
ATOM     28  O   UNL     1      30.016  -4.246 -25.528  0.00  0.00    -0.380 OA
ATOM     29  H   UNL     1      29.668  -3.496 -26.036  0.00  0.00    +0.211 HD
ENDBRANCH   7  28
TORSDOF 3
ENDMDL
