MODEL 1
REMARK VINA RESULT:      -9.8      0.000      0.000
REMARK  Name = 312145
REMARK  4 active torsions:
REMARK  status: ('A' for Active; 'I' for Inactive)
REMARK    1  A    between atoms: C_12  and  O_25
REMARK    2  A    between atoms: C_18  and  C_29
REMARK    3  A    between atoms: O_25  and  C_27
REMARK    4  A    between atoms: C_29  and  O_30
REMARK                            x       y       z     vdW  Elec       q    Type
REMARK                         _______ _______ _______ _____ _____    ______ ____
ROOT
ATOM      1  O   UNL     1      37.672 -24.135 -15.171  0.00  0.00    -0.446 OA
ATOM      2  O   UNL     1      35.031 -23.770 -11.503  0.00  0.00    -0.447 OA
ATOM      3  O   UNL     1      28.950 -22.690 -17.363  0.00  0.00    -0.296 OA
ATOM      4  O   UNL     1      32.306 -23.099 -12.159  0.00  0.00    -0.284 OA
ATOM      5  O   UNL     1      38.924 -24.582 -13.307  0.00  0.00    -0.245 OA
ATOM      6  C   UNL     1      30.963 -23.436 -16.221  0.00  0.00    +0.059 C 
ATOM      7  C   UNL     1      31.462 -22.741 -14.931  0.00  0.00    +0.032 C 
ATOM      8  C   UNL     1      33.744 -23.601 -15.474  0.00  0.00    +0.001 C 
ATOM      9  C   UNL     1      31.945 -23.067 -17.320  0.00  0.00    +0.055 C 
ATOM     10  C   UNL     1      35.147 -24.213 -15.139  0.00  0.00    +0.080 C 
ATOM     11  C   UNL     1      32.821 -23.258 -14.516  0.00  0.00    +0.016 C 
ATOM     12  C   UNL     1      33.367 -23.554 -16.971  0.00  0.00    +0.188 C 
ATOM     13  C   UNL     1      30.224 -22.772 -14.028  0.00  0.00    +0.013 C 
ATOM     14  C   UNL     1      29.588 -22.806 -16.325  0.00  0.00    +0.150 C 
ATOM     15  C   UNL     1      29.083 -22.361 -14.969  0.00  0.00    +0.065 C 
ATOM     16  C   UNL     1      30.755 -24.959 -16.121  0.00  0.00    +0.008 C 
ATOM     17  C   UNL     1      35.374 -24.130 -13.678  0.00  0.00    +0.031 C 
ATOM     18  C   UNL     1      36.432 -23.540 -15.747  0.00  0.00    +0.206 C 
ATOM     19  C   UNL     1      33.126 -23.370 -13.024  0.00  0.00    +0.225 C 
ATOM     20  C   UNL     1      34.460 -23.781 -12.737  0.00  0.00    +0.180 C 
ATOM     21  C   UNL     1      35.133 -25.712 -15.543  0.00  0.00    +0.012 C 
ATOM     22  C   UNL     1      36.621 -24.190 -13.051  0.00  0.00    +0.113 C 
ATOM     23  C   UNL     1      37.838 -24.322 -13.807  0.00  0.00    +0.344 C 
ATOM     24  C   UNL     1      36.367 -24.038 -11.706  0.00  0.00    +0.186 C 
ENDROOT
BRANCH  12  25
ATOM     25  O   UNL     1      34.290 -22.767 -17.719  0.00  0.00    -0.448 OA
BRANCH  25  27
ATOM     26  O   UNL     1      34.107 -23.782 -19.787  0.00  0.00    -0.250 OA
ATOM     27  C   UNL     1      34.122 -22.787 -19.075  0.00  0.00    +0.318 C 
ATOM     28  C   UNL     1      33.956 -21.388 -19.586  0.00  0.00    +0.121 C 
ENDBRANCH  25  27
ENDBRANCH  12  25
BRANCH  18  29
ATOM     29  C   UNL     1      36.538 -22.020 -15.564  0.00  0.00    +0.186 C 
BRANCH  29  30
ATOM     30  O   UNL     1      37.586 -21.548 -16.386  0.00  0.00    -0.347 OA
ATOM     31  C   UNL     1      37.128 -21.233 -17.698  0.00  0.00    +0.174 C 
ENDBRANCH  29  30
ENDBRANCH  18  29
TORSDOF 4
ENDMDL
