MODEL 1
REMARK VINA RESULT:     -10.5      0.000      0.000
REMARK  Name = 3034285
REMARK  9 active torsions:
REMARK  status: ('A' for Active; 'I' for Inactive)
REMARK    1  A    between atoms: O_1  and  C_4
REMARK    2  A    between atoms: O_1  and  C_18
REMARK    3  A    between atoms: C_6  and  O_8
REMARK    4  A    between atoms: O_8  and  C_9
REMARK    5  A    between atoms: C_10  and  C_16
REMARK    6  A    between atoms: C_17  and  C_23
REMARK    7  A    between atoms: C_23  and  C_28
REMARK    8  A    between atoms: C_24  and  O_25
REMARK    9  A    between atoms: C_28  and  O_29
REMARK                            x       y       z     vdW  Elec       q    Type
REMARK                         _______ _______ _______ _____ _____    ______ ____
ROOT
ATOM      1  O   UNL     1      31.747 -11.823 -22.349  0.00  0.00    -0.440 OA
ENDROOT
BRANCH   1   4
ATOM      2  N   UNL     1      32.021 -13.636 -20.930  0.00  0.00    -0.214 NA
ATOM      3  N   UNL     1      33.677 -15.318 -21.419  0.00  0.00    -0.214 NA
ATOM      4  C   UNL     1      32.407 -13.001 -22.048  0.00  0.00    +0.213 C 
ATOM      5  C   UNL     1      33.396 -13.437 -22.896  0.00  0.00    +0.170 C 
ATOM      6  C   UNL     1      34.006 -14.619 -22.526  0.00  0.00    +0.213 C 
ATOM      7  C   UNL     1      32.692 -14.777 -20.678  0.00  0.00    +0.256 C 
BRANCH   6   8
ATOM      8  O   UNL     1      35.003 -15.131 -23.313  0.00  0.00    -0.439 OA
BRANCH   8   9
ATOM      9  C   UNL     1      34.946 -16.478 -23.614  0.00  0.00    +0.156 C 
ATOM     10  C   UNL     1      34.374 -16.913 -24.798  0.00  0.00    +0.103 C 
ATOM     11  C   UNL     1      35.477 -17.375 -22.700  0.00  0.00    +0.038 C 
ATOM     12  C   UNL     1      34.331 -18.279 -25.076  0.00  0.00    +0.013 C 
ATOM     13  C   UNL     1      35.435 -18.742 -22.978  0.00  0.00    +0.003 C 
ATOM     14  C   UNL     1      34.862 -19.193 -24.167  0.00  0.00    +0.001 C 
BRANCH  10  16
ATOM     15  N   UNL     1      33.380 -15.243 -26.511  0.00  0.00    -0.191 NA
ATOM     16  C   UNL     1      33.824 -15.990 -25.745  0.00  0.00    +0.103 C 
ENDBRANCH  10  16
ENDBRANCH   8   9
ENDBRANCH   6   8
ENDBRANCH   1   4
BRANCH   1  18
ATOM     17  C   UNL     1      32.291  -9.534 -21.860  0.00  0.00    +0.044 C 
ATOM     18  C   UNL     1      31.859 -10.791 -21.465  0.00  0.00    +0.147 C 
ATOM     19  C   UNL     1      32.400  -8.494 -20.949  0.00  0.00    +0.003 C 
ATOM     20  C   UNL     1      31.529 -11.014 -20.127  0.00  0.00    +0.038 C 
ATOM     21  C   UNL     1      32.070  -8.716 -19.613  0.00  0.00    +0.000 C 
ATOM     22  C   UNL     1      31.635  -9.976 -19.201  0.00  0.00    +0.003 C 
BRANCH  17  23
ATOM     23  C   UNL     1      32.644  -9.274 -23.266  0.00  0.00    +0.115 C 
ATOM     24  C   UNL     1      31.851  -8.521 -24.045  0.00  0.00    +0.179 C 
BRANCH  24  25
ATOM     25  O   UNL     1      30.681  -7.942 -23.627  0.00  0.00    -0.468 OA
ATOM     26  C   UNL     1      30.801  -6.530 -23.572  0.00  0.00    +0.253 C 
ENDBRANCH  24  25
BRANCH  23  28
ATOM     27  O   UNL     1      35.015  -9.390 -23.657  0.00  0.00    -0.245 OA
ATOM     28  C   UNL     1      33.889  -9.806 -23.893  0.00  0.00    +0.345 C 
BRANCH  28  29
ATOM     29  O   UNL     1      33.572 -10.805 -24.761  0.00  0.00    -0.441 OA
ATOM     30  C   UNL     1      34.604 -11.180 -25.679  0.00  0.00    +0.256 C 
ENDBRANCH  28  29
ENDBRANCH  23  28
ENDBRANCH  17  23
ENDBRANCH   1  18
TORSDOF 9
ENDMDL
MODEL 2
REMARK VINA RESULT:     -10.4      1.227      2.838
REMARK  Name = 3034285
REMARK  9 active torsions:
REMARK  status: ('A' for Active; 'I' for Inactive)
REMARK    1  A    between atoms: O_1  and  C_4
REMARK    2  A    between atoms: O_1  and  C_18
REMARK    3  A    between atoms: C_6  and  O_8
REMARK    4  A    between atoms: O_8  and  C_9
REMARK    5  A    between atoms: C_10  and  C_16
REMARK    6  A    between atoms: C_17  and  C_23
REMARK    7  A    between atoms: C_23  and  C_28
REMARK    8  A    between atoms: C_24  and  O_25
REMARK    9  A    between atoms: C_28  and  O_29
REMARK                            x       y       z     vdW  Elec       q    Type
REMARK                         _______ _______ _______ _____ _____    ______ ____
ROOT
ATOM      1  O   UNL     1      32.236 -11.397 -23.244  0.00  0.00    -0.440 OA
ENDROOT
BRANCH   1   4
ATOM      2  N   UNL     1      31.974 -13.138 -21.736  0.00  0.00    -0.214 NA
ATOM      3  N   UNL     1      33.467 -15.030 -21.797  0.00  0.00    -0.214 NA
ATOM      4  C   UNL     1      32.663 -12.623 -22.766  0.00  0.00    +0.213 C 
ATOM      5  C   UNL     1      33.743 -13.224 -23.365  0.00  0.00    +0.170 C 
ATOM      6  C   UNL     1      34.106 -14.444 -22.831  0.00  0.00    +0.213 C 
ATOM      7  C   UNL     1      32.425 -14.332 -21.305  0.00  0.00    +0.256 C 
BRANCH   6   8
ATOM      8  O   UNL     1      35.173 -15.117 -23.366  0.00  0.00    -0.439 OA
BRANCH   8   9
ATOM      9  C   UNL     1      35.023 -16.472 -23.586  0.00  0.00    +0.156 C 
ATOM     10  C   UNL     1      34.400 -16.936 -24.732  0.00  0.00    +0.103 C 
ATOM     11  C   UNL     1      35.513 -17.348 -22.630  0.00  0.00    +0.038 C 
ATOM     12  C   UNL     1      34.263 -18.310 -24.929  0.00  0.00    +0.013 C 
ATOM     13  C   UNL     1      35.377 -18.723 -22.826  0.00  0.00    +0.003 C 
ATOM     14  C   UNL     1      34.752 -19.204 -23.976  0.00  0.00    +0.001 C 
BRANCH  10  16
ATOM     15  N   UNL     1      33.480 -15.307 -26.525  0.00  0.00    -0.191 NA
ATOM     16  C   UNL     1      33.892 -16.036 -25.723  0.00  0.00    +0.103 C 
ENDBRANCH  10  16
ENDBRANCH   8   9
ENDBRANCH   6   8
ENDBRANCH   1   4
BRANCH   1  18
ATOM     17  C   UNL     1      33.179  -9.190 -23.128  0.00  0.00    +0.044 C 
ATOM     18  C   UNL     1      33.190 -10.492 -23.605  0.00  0.00    +0.147 C 
ATOM     19  C   UNL     1      34.156  -8.280 -23.504  0.00  0.00    +0.003 C 
ATOM     20  C   UNL     1      34.200 -10.894 -24.479  0.00  0.00    +0.038 C 
ATOM     21  C   UNL     1      35.166  -8.682 -24.377  0.00  0.00    +0.000 C 
ATOM     22  C   UNL     1      35.189  -9.988 -24.866  0.00  0.00    +0.003 C 
BRANCH  17  23
ATOM     23  C   UNL     1      32.123  -8.742 -22.204  0.00  0.00    +0.115 C 
ATOM     24  C   UNL     1      31.051  -8.075 -22.658  0.00  0.00    +0.179 C 
BRANCH  24  25
ATOM     25  O   UNL     1      30.839  -7.756 -23.975  0.00  0.00    -0.468 OA
ATOM     26  C   UNL     1      31.074  -6.378 -24.211  0.00  0.00    +0.253 C 
ENDBRANCH  24  25
BRANCH  23  28
ATOM     27  O   UNL     1      32.764  -8.319 -19.923  0.00  0.00    -0.245 OA
ATOM     28  C   UNL     1      32.172  -9.014 -20.738  0.00  0.00    +0.345 C 
BRANCH  28  29
ATOM     29  O   UNL     1      31.472 -10.148 -20.461  0.00  0.00    -0.441 OA
ATOM     30  C   UNL     1      31.498 -10.575 -19.094  0.00  0.00    +0.256 C 
ENDBRANCH  28  29
ENDBRANCH  23  28
ENDBRANCH  17  23
ENDBRANCH   1  18
TORSDOF 9
ENDMDL
MODEL 3
REMARK VINA RESULT:     -10.0      2.643      7.258
REMARK  Name = 3034285
REMARK  9 active torsions:
REMARK  status: ('A' for Active; 'I' for Inactive)
REMARK    1  A    between atoms: O_1  and  C_4
REMARK    2  A    between atoms: O_1  and  C_18
REMARK    3  A    between atoms: C_6  and  O_8
REMARK    4  A    between atoms: O_8  and  C_9
REMARK    5  A    between atoms: C_10  and  C_16
REMARK    6  A    between atoms: C_17  and  C_23
REMARK    7  A    between atoms: C_23  and  C_28
REMARK    8  A    between atoms: C_24  and  O_25
REMARK    9  A    between atoms: C_28  and  O_29
REMARK                            x       y       z     vdW  Elec       q    Type
REMARK                         _______ _______ _______ _____ _____    ______ ____
ROOT
ATOM      1  O   UNL     1      31.804 -11.831 -22.479  0.00  0.00    -0.440 OA
ENDROOT
BRANCH   1   4
ATOM      2  N   UNL     1      31.205 -11.122 -20.355  0.00  0.00    -0.214 NA
ATOM      3  N   UNL     1      31.740  -8.887 -19.627  0.00  0.00    -0.214 NA
ATOM      4  C   UNL     1      31.790 -10.827 -21.527  0.00  0.00    +0.213 C 
ATOM      5  C   UNL     1      32.364  -9.619 -21.834  0.00  0.00    +0.170 C 
ATOM      6  C   UNL     1      32.310  -8.671 -20.831  0.00  0.00    +0.213 C 
ATOM      7  C   UNL     1      31.215 -10.116 -19.459  0.00  0.00    +0.256 C 
BRANCH   6   8
ATOM      8  O   UNL     1      32.859  -7.435 -21.049  0.00  0.00    -0.439 OA
BRANCH   8   9
ATOM      9  C   UNL     1      33.103  -7.071 -22.358  0.00  0.00    +0.156 C 
ATOM     10  C   UNL     1      32.220  -6.249 -23.039  0.00  0.00    +0.103 C 
ATOM     11  C   UNL     1      34.254  -7.549 -22.965  0.00  0.00    +0.038 C 
ATOM     12  C   UNL     1      32.494  -5.896 -24.360  0.00  0.00    +0.013 C 
ATOM     13  C   UNL     1      34.529  -7.196 -24.287  0.00  0.00    +0.003 C 
ATOM     14  C   UNL     1      33.648  -6.370 -24.985  0.00  0.00    +0.001 C 
BRANCH  10  16
ATOM     15  N   UNL     1      30.068  -5.350 -21.911  0.00  0.00    -0.191 NA
ATOM     16  C   UNL     1      31.031  -5.752 -22.416  0.00  0.00    +0.103 C 
ENDBRANCH  10  16
ENDBRANCH   8   9
ENDBRANCH   6   8
ENDBRANCH   1   4
BRANCH   1  18
ATOM     17  C   UNL     1      33.526 -13.343 -23.201  0.00  0.00    +0.044 C 
ATOM     18  C   UNL     1      32.613 -12.906 -22.254  0.00  0.00    +0.147 C 
ATOM     19  C   UNL     1      34.343 -14.437 -22.958  0.00  0.00    +0.003 C 
ATOM     20  C   UNL     1      32.512 -13.578 -21.036  0.00  0.00    +0.038 C 
ATOM     21  C   UNL     1      34.242 -15.109 -21.740  0.00  0.00    +0.000 C 
ATOM     22  C   UNL     1      33.328 -14.681 -20.778  0.00  0.00    +0.003 C 
BRANCH  17  23
ATOM     23  C   UNL     1      33.652 -12.649 -24.494  0.00  0.00    +0.115 C 
ATOM     24  C   UNL     1      33.106 -13.167 -25.606  0.00  0.00    +0.179 C 
BRANCH  24  25
ATOM     25  O   UNL     1      32.406 -14.345 -25.648  0.00  0.00    -0.468 OA
ATOM     26  C   UNL     1      33.141 -15.352 -26.324  0.00  0.00    +0.253 C 
ENDBRANCH  24  25
BRANCH  23  28
ATOM     27  O   UNL     1      34.711 -10.639 -23.705  0.00  0.00    -0.245 OA
ATOM     28  C   UNL     1      34.362 -11.346 -24.640  0.00  0.00    +0.345 C 
BRANCH  28  29
ATOM     29  O   UNL     1      34.547 -11.072 -25.961  0.00  0.00    -0.441 OA
ATOM     30  C   UNL     1      35.710 -10.301 -26.278  0.00  0.00    +0.256 C 
ENDBRANCH  28  29
ENDBRANCH  23  28
ENDBRANCH  17  23
ENDBRANCH   1  18
TORSDOF 9
ENDMDL
MODEL 4
REMARK VINA RESULT:     -10.0      1.603      3.829
REMARK  Name = 3034285
REMARK  9 active torsions:
REMARK  status: ('A' for Active; 'I' for Inactive)
REMARK    1  A    between atoms: O_1  and  C_4
REMARK    2  A    between atoms: O_1  and  C_18
REMARK    3  A    between atoms: C_6  and  O_8
REMARK    4  A    between atoms: O_8  and  C_9
REMARK    5  A    between atoms: C_10  and  C_16
REMARK    6  A    between atoms: C_17  and  C_23
REMARK    7  A    between atoms: C_23  and  C_28
REMARK    8  A    between atoms: C_24  and  O_25
REMARK    9  A    between atoms: C_28  and  O_29
REMARK                            x       y       z     vdW  Elec       q    Type
REMARK                         _______ _______ _______ _____ _____    ______ ____
ROOT
ATOM      1  O   UNL     1      32.581 -12.263 -24.026  0.00  0.00    -0.440 OA
ENDROOT
BRANCH   1   4
ATOM      2  N   UNL     1      32.592 -13.959 -25.605  0.00  0.00    -0.214 NA
ATOM      3  N   UNL     1      34.079 -15.840 -25.353  0.00  0.00    -0.214 NA
ATOM      4  C   UNL     1      33.096 -13.470 -24.461  0.00  0.00    +0.213 C 
ATOM      5  C   UNL     1      34.071 -14.080 -23.710  0.00  0.00    +0.170 C 
ATOM      6  C   UNL     1      34.533 -15.280 -24.212  0.00  0.00    +0.213 C 
ATOM      7  C   UNL     1      33.123 -15.136 -25.990  0.00  0.00    +0.256 C 
BRANCH   6   8
ATOM      8  O   UNL     1      35.507 -15.960 -23.529  0.00  0.00    -0.439 OA
BRANCH   8   9
ATOM      9  C   UNL     1      35.158 -17.171 -22.964  0.00  0.00    +0.156 C 
ATOM     10  C   UNL     1      34.791 -17.248 -21.630  0.00  0.00    +0.103 C 
ATOM     11  C   UNL     1      35.186 -18.300 -23.768  0.00  0.00    +0.038 C 
ATOM     12  C   UNL     1      34.443 -18.484 -21.087  0.00  0.00    +0.013 C 
ATOM     13  C   UNL     1      34.837 -19.537 -23.225  0.00  0.00    +0.003 C 
ATOM     14  C   UNL     1      34.466 -19.629 -21.884  0.00  0.00    +0.001 C 
BRANCH  10  16
ATOM     15  N   UNL     1      34.736 -15.143 -20.121  0.00  0.00    -0.191 NA
ATOM     16  C   UNL     1      34.761 -16.085 -20.796  0.00  0.00    +0.103 C 
ENDBRANCH  10  16
ENDBRANCH   8   9
ENDBRANCH   6   8
ENDBRANCH   1   4
BRANCH   1  18
ATOM     17  C   UNL     1      33.107  -9.996 -23.426  0.00  0.00    +0.044 C 
ATOM     18  C   UNL     1      33.379 -11.161 -24.127  0.00  0.00    +0.147 C 
ATOM     19  C   UNL     1      33.928  -8.883 -23.539  0.00  0.00    +0.003 C 
ATOM     20  C   UNL     1      34.497 -11.216 -24.960  0.00  0.00    +0.038 C 
ATOM     21  C   UNL     1      35.045  -8.939 -24.371  0.00  0.00    +0.000 C 
ATOM     22  C   UNL     1      35.331 -10.104 -25.082  0.00  0.00    +0.003 C 
BRANCH  17  23
ATOM     23  C   UNL     1      31.934  -9.913 -22.540  0.00  0.00    +0.115 C 
ATOM     24  C   UNL     1      30.934  -9.057 -22.802  0.00  0.00    +0.179 C 
BRANCH  24  25
ATOM     25  O   UNL     1      30.906  -8.207 -23.878  0.00  0.00    -0.468 OA
ATOM     26  C   UNL     1      30.903  -6.852 -23.459  0.00  0.00    +0.253 C 
ENDBRANCH  24  25
BRANCH  23  28
ATOM     27  O   UNL     1      31.464 -11.955 -21.358  0.00  0.00    -0.245 OA
ATOM     28  C   UNL     1      31.779 -10.774 -21.331  0.00  0.00    +0.345 C 
BRANCH  28  29
ATOM     29  O   UNL     1      32.031 -10.039 -20.213  0.00  0.00    -0.441 OA
ATOM     30  C   UNL     1      31.578 -10.609 -18.981  0.00  0.00    +0.256 C 
ENDBRANCH  28  29
ENDBRANCH  23  28
ENDBRANCH  17  23
ENDBRANCH   1  18
TORSDOF 9
ENDMDL
MODEL 5
REMARK VINA RESULT:      -9.9      7.569     12.270
REMARK  Name = 3034285
REMARK  9 active torsions:
REMARK  status: ('A' for Active; 'I' for Inactive)
REMARK    1  A    between atoms: O_1  and  C_4
REMARK    2  A    between atoms: O_1  and  C_18
REMARK    3  A    between atoms: C_6  and  O_8
REMARK    4  A    between atoms: O_8  and  C_9
REMARK    5  A    between atoms: C_10  and  C_16
REMARK    6  A    between atoms: C_17  and  C_23
REMARK    7  A    between atoms: C_23  and  C_28
REMARK    8  A    between atoms: C_24  and  O_25
REMARK    9  A    between atoms: C_28  and  O_29
REMARK                            x       y       z     vdW  Elec       q    Type
REMARK                         _______ _______ _______ _____ _____    ______ ____
ROOT
ATOM      1  O   UNL     1      34.658 -23.115 -17.990  0.00  0.00    -0.440 OA
ENDROOT
BRANCH   1   4
ATOM      2  N   UNL     1      32.970 -22.118 -19.226  0.00  0.00    -0.214 NA
ATOM      3  N   UNL     1      33.460 -20.236 -20.651  0.00  0.00    -0.214 NA
ATOM      4  C   UNL     1      34.269 -22.138 -18.889  0.00  0.00    +0.213 C 
ATOM      5  C   UNL     1      35.217 -21.269 -19.370  0.00  0.00    +0.170 C 
ATOM      6  C   UNL     1      34.749 -20.325 -20.261  0.00  0.00    +0.213 C 
ATOM      7  C   UNL     1      32.637 -21.151 -20.103  0.00  0.00    +0.256 C 
BRANCH   6   8
ATOM      8  O   UNL     1      35.624 -19.415 -20.792  0.00  0.00    -0.439 OA
BRANCH   8   9
ATOM      9  C   UNL     1      35.293 -18.850 -22.008  0.00  0.00    +0.156 C 
ATOM     10  C   UNL     1      34.965 -17.508 -22.098  0.00  0.00    +0.103 C 
ATOM     11  C   UNL     1      35.301 -19.665 -23.130  0.00  0.00    +0.038 C 
ATOM     12  C   UNL     1      34.636 -16.965 -23.339  0.00  0.00    +0.013 C 
ATOM     13  C   UNL     1      34.972 -19.123 -24.373  0.00  0.00    +0.003 C 
ATOM     14  C   UNL     1      34.640 -17.772 -24.477  0.00  0.00    +0.001 C 
BRANCH  10  16
ATOM     15  N   UNL     1      34.949 -15.978 -20.007  0.00  0.00    -0.191 NA
ATOM     16  C   UNL     1      34.957 -16.663 -20.942  0.00  0.00    +0.103 C 
ENDBRANCH  10  16
ENDBRANCH   8   9
ENDBRANCH   6   8
ENDBRANCH   1   4
BRANCH   1  18
ATOM     17  C   UNL     1      34.415 -23.765 -15.690  0.00  0.00    +0.044 C 
ATOM     18  C   UNL     1      33.883 -23.302 -16.884  0.00  0.00    +0.147 C 
ATOM     19  C   UNL     1      33.614 -23.950 -14.572  0.00  0.00    +0.003 C 
ATOM     20  C   UNL     1      32.520 -23.017 -16.963  0.00  0.00    +0.038 C 
ATOM     21  C   UNL     1      32.251 -23.665 -14.652  0.00  0.00    +0.000 C 
ATOM     22  C   UNL     1      31.703 -23.199 -15.847  0.00  0.00    +0.003 C 
BRANCH  17  23
ATOM     23  C   UNL     1      35.851 -24.072 -15.580  0.00  0.00    +0.115 C 
ATOM     24  C   UNL     1      36.771 -23.101 -15.691  0.00  0.00    +0.179 C 
BRANCH  24  25
ATOM     25  O   UNL     1      36.478 -21.779 -15.907  0.00  0.00    -0.468 OA
ATOM     26  C   UNL     1      37.434 -21.177 -16.764  0.00  0.00    +0.253 C 
ENDBRANCH  24  25
BRANCH  23  28
ATOM     27  O   UNL     1      35.896 -26.464 -15.832  0.00  0.00    -0.245 OA
ATOM     28  C   UNL     1      36.359 -25.451 -15.326  0.00  0.00    +0.345 C 
BRANCH  28  29
ATOM     29  O   UNL     1      37.398 -25.400 -14.447  0.00  0.00    -0.441 OA
ATOM     30  C   UNL     1      37.297 -26.273 -13.317  0.00  0.00    +0.256 C 
ENDBRANCH  28  29
ENDBRANCH  23  28
ENDBRANCH  17  23
ENDBRANCH   1  18
TORSDOF 9
ENDMDL
MODEL 6
REMARK VINA RESULT:      -9.8      7.484     12.270
REMARK  Name = 3034285
REMARK  9 active torsions:
REMARK  status: ('A' for Active; 'I' for Inactive)
REMARK    1  A    between atoms: O_1  and  C_4
REMARK    2  A    between atoms: O_1  and  C_18
REMARK    3  A    between atoms: C_6  and  O_8
REMARK    4  A    between atoms: O_8  and  C_9
REMARK    5  A    between atoms: C_10  and  C_16
REMARK    6  A    between atoms: C_17  and  C_23
REMARK    7  A    between atoms: C_23  and  C_28
REMARK    8  A    between atoms: C_24  and  O_25
REMARK    9  A    between atoms: C_28  and  O_29
REMARK                            x       y       z     vdW  Elec       q    Type
REMARK                         _______ _______ _______ _____ _____    ______ ____
ROOT
ATOM      1  O   UNL     1      34.738 -23.028 -18.017  0.00  0.00    -0.440 OA
ENDROOT
BRANCH   1   4
ATOM      2  N   UNL     1      33.033 -22.035 -19.235  0.00  0.00    -0.214 NA
ATOM      3  N   UNL     1      33.516 -20.202 -20.724  0.00  0.00    -0.214 NA
ATOM      4  C   UNL     1      34.341 -22.069 -18.932  0.00  0.00    +0.213 C 
ATOM      5  C   UNL     1      35.290 -21.229 -19.461  0.00  0.00    +0.170 C 
ATOM      6  C   UNL     1      34.813 -20.301 -20.365  0.00  0.00    +0.213 C 
ATOM      7  C   UNL     1      32.693 -21.087 -20.129  0.00  0.00    +0.256 C 
BRANCH   6   8
ATOM      8  O   UNL     1      35.688 -19.421 -20.944  0.00  0.00    -0.439 OA
BRANCH   8   9
ATOM      9  C   UNL     1      35.311 -18.844 -22.140  0.00  0.00    +0.156 C 
ATOM     10  C   UNL     1      34.954 -17.507 -22.199  0.00  0.00    +0.103 C 
ATOM     11  C   UNL     1      35.301 -19.641 -23.276  0.00  0.00    +0.038 C 
ATOM     12  C   UNL     1      34.578 -16.951 -23.421  0.00  0.00    +0.013 C 
ATOM     13  C   UNL     1      34.925 -19.085 -24.499  0.00  0.00    +0.003 C 
ATOM     14  C   UNL     1      34.564 -17.740 -24.572  0.00  0.00    +0.001 C 
BRANCH  10  16
ATOM     15  N   UNL     1      34.970 -16.012 -20.083  0.00  0.00    -0.191 NA
ATOM     16  C   UNL     1      34.962 -16.681 -21.030  0.00  0.00    +0.103 C 
ENDBRANCH  10  16
ENDBRANCH   8   9
ENDBRANCH   6   8
ENDBRANCH   1   4
BRANCH   1  18
ATOM     17  C   UNL     1      34.512 -23.530 -15.679  0.00  0.00    +0.044 C 
ATOM     18  C   UNL     1      33.963 -23.205 -16.909  0.00  0.00    +0.147 C 
ATOM     19  C   UNL     1      33.711 -23.706 -14.560  0.00  0.00    +0.003 C 
ATOM     20  C   UNL     1      32.581 -23.053 -17.026  0.00  0.00    +0.038 C 
ATOM     21  C   UNL     1      32.330 -23.555 -14.676  0.00  0.00    +0.000 C 
ATOM     22  C   UNL     1      31.764 -23.229 -15.909  0.00  0.00    +0.003 C 
BRANCH  17  23
ATOM     23  C   UNL     1      35.968 -23.694 -15.530  0.00  0.00    +0.115 C 
ATOM     24  C   UNL     1      36.525 -24.915 -15.533  0.00  0.00    +0.179 C 
BRANCH  24  25
ATOM     25  O   UNL     1      35.823 -26.085 -15.669  0.00  0.00    -0.468 OA
ATOM     26  C   UNL     1      36.641 -27.208 -15.383  0.00  0.00    +0.253 C 
ENDBRANCH  24  25
BRANCH  23  28
ATOM     27  O   UNL     1      36.910 -21.564 -16.133  0.00  0.00    -0.245 OA
ATOM     28  C   UNL     1      36.896 -22.534 -15.389  0.00  0.00    +0.345 C 
BRANCH  28  29
ATOM     29  O   UNL     1      37.717 -22.734 -14.321  0.00  0.00    -0.441 OA
ATOM     30  C   UNL     1      37.063 -22.911 -13.060  0.00  0.00    +0.256 C 
ENDBRANCH  28  29
ENDBRANCH  23  28
ENDBRANCH  17  23
ENDBRANCH   1  18
TORSDOF 9
ENDMDL
MODEL 7
REMARK VINA RESULT:      -9.6      1.186      2.071
REMARK  Name = 3034285
REMARK  9 active torsions:
REMARK  status: ('A' for Active; 'I' for Inactive)
REMARK    1  A    between atoms: O_1  and  C_4
REMARK    2  A    between atoms: O_1  and  C_18
REMARK    3  A    between atoms: C_6  and  O_8
REMARK    4  A    between atoms: O_8  and  C_9
REMARK    5  A    between atoms: C_10  and  C_16
REMARK    6  A    between atoms: C_17  and  C_23
REMARK    7  A    between atoms: C_23  and  C_28
REMARK    8  A    between atoms: C_24  and  O_25
REMARK    9  A    between atoms: C_28  and  O_29
REMARK                            x       y       z     vdW  Elec       q    Type
REMARK                         _______ _______ _______ _____ _____    ______ ____
ROOT
ATOM      1  O   UNL     1      31.959 -12.101 -22.292  0.00  0.00    -0.440 OA
ENDROOT
BRANCH   1   4
ATOM      2  N   UNL     1      31.986 -13.845 -20.765  0.00  0.00    -0.214 NA
ATOM      3  N   UNL     1      33.614 -15.610 -20.970  0.00  0.00    -0.214 NA
ATOM      4  C   UNL     1      32.528 -13.284 -21.858  0.00  0.00    +0.213 C 
ATOM      5  C   UNL     1      33.590 -13.801 -22.558  0.00  0.00    +0.170 C 
ATOM      6  C   UNL     1      34.101 -14.983 -22.062  0.00  0.00    +0.213 C 
ATOM      7  C   UNL     1      32.572 -14.994 -20.379  0.00  0.00    +0.256 C 
BRANCH   6   8
ATOM      8  O   UNL     1      35.161 -15.573 -22.697  0.00  0.00    -0.439 OA
BRANCH   8   9
ATOM      9  C   UNL     1      34.896 -16.677 -23.484  0.00  0.00    +0.156 C 
ATOM     10  C   UNL     1      35.125 -17.956 -23.006  0.00  0.00    +0.103 C 
ATOM     11  C   UNL     1      34.395 -16.465 -24.759  0.00  0.00    +0.038 C 
ATOM     12  C   UNL     1      34.847 -19.052 -23.822  0.00  0.00    +0.013 C 
ATOM     13  C   UNL     1      34.116 -17.561 -25.576  0.00  0.00    +0.003 C 
ATOM     14  C   UNL     1      34.342 -18.855 -25.107  0.00  0.00    +0.001 C 
BRANCH  10  16
ATOM     15  N   UNL     1      36.062 -18.361 -20.624  0.00  0.00    -0.191 NA
ATOM     16  C   UNL     1      35.643 -18.180 -21.690  0.00  0.00    +0.103 C 
ENDBRANCH  10  16
ENDBRANCH   8   9
ENDBRANCH   6   8
ENDBRANCH   1   4
BRANCH   1  18
ATOM     17  C   UNL     1      32.264  -9.759 -21.850  0.00  0.00    +0.044 C 
ATOM     18  C   UNL     1      31.959 -11.044 -21.430  0.00  0.00    +0.147 C 
ATOM     19  C   UNL     1      32.259  -8.694 -20.961  0.00  0.00    +0.003 C 
ATOM     20  C   UNL     1      31.642 -11.272 -20.090  0.00  0.00    +0.038 C 
ATOM     21  C   UNL     1      31.943  -8.921 -19.622  0.00  0.00    +0.000 C 
ATOM     22  C   UNL     1      31.634 -10.209 -19.185  0.00  0.00    +0.003 C 
BRANCH  17  23
ATOM     23  C   UNL     1      32.601  -9.493 -23.259  0.00  0.00    +0.115 C 
ATOM     24  C   UNL     1      31.813  -8.715 -24.018  0.00  0.00    +0.179 C 
BRANCH  24  25
ATOM     25  O   UNL     1      30.663  -8.113 -23.575  0.00  0.00    -0.468 OA
ATOM     26  C   UNL     1      30.796  -6.702 -23.567  0.00  0.00    +0.253 C 
ENDBRANCH  24  25
BRANCH  23  28
ATOM     27  O   UNL     1      33.829 -11.000 -24.677  0.00  0.00    -0.245 OA
ATOM     28  C   UNL     1      33.823 -10.047 -23.909  0.00  0.00    +0.345 C 
BRANCH  28  29
ATOM     29  O   UNL     1      34.914  -9.338 -23.509  0.00  0.00    -0.441 OA
ATOM     30  C   UNL     1      34.835  -7.921 -23.690  0.00  0.00    +0.256 C 
ENDBRANCH  28  29
ENDBRANCH  23  28
ENDBRANCH  17  23
ENDBRANCH   1  18
TORSDOF 9
ENDMDL
MODEL 8
REMARK VINA RESULT:      -9.5      2.714      8.500
REMARK  Name = 3034285
REMARK  9 active torsions:
REMARK  status: ('A' for Active; 'I' for Inactive)
REMARK    1  A    between atoms: O_1  and  C_4
REMARK    2  A    between atoms: O_1  and  C_18
REMARK    3  A    between atoms: C_6  and  O_8
REMARK    4  A    between atoms: O_8  and  C_9
REMARK    5  A    between atoms: C_10  and  C_16
REMARK    6  A    between atoms: C_17  and  C_23
REMARK    7  A    between atoms: C_23  and  C_28
REMARK    8  A    between atoms: C_24  and  O_25
REMARK    9  A    between atoms: C_28  and  O_29
REMARK                            x       y       z     vdW  Elec       q    Type
REMARK                         _______ _______ _______ _____ _____    ______ ____
ROOT
ATOM      1  O   UNL     1      34.561 -11.734 -23.891  0.00  0.00    -0.440 OA
ENDROOT
BRANCH   1   4
ATOM      2  N   UNL     1      35.253  -9.553 -24.263  0.00  0.00    -0.214 NA
ATOM      3  N   UNL     1      33.710  -7.725 -23.967  0.00  0.00    -0.214 NA
ATOM      4  C   UNL     1      34.259 -10.385 -23.912  0.00  0.00    +0.213 C 
ATOM      5  C   UNL     1      32.987  -9.989 -23.579  0.00  0.00    +0.170 C 
ATOM      6  C   UNL     1      32.766  -8.627 -23.624  0.00  0.00    +0.213 C 
ATOM      7  C   UNL     1      34.913  -8.250 -24.270  0.00  0.00    +0.256 C 
BRANCH   6   8
ATOM      8  O   UNL     1      31.525  -8.140 -23.309  0.00  0.00    -0.439 OA
BRANCH   8   9
ATOM      9  C   UNL     1      31.365  -6.769 -23.297  0.00  0.00    +0.156 C 
ATOM     10  C   UNL     1      31.572  -6.044 -22.135  0.00  0.00    +0.103 C 
ATOM     11  C   UNL     1      30.995  -6.143 -24.478  0.00  0.00    +0.038 C 
ATOM     12  C   UNL     1      31.405  -4.660 -22.153  0.00  0.00    +0.013 C 
ATOM     13  C   UNL     1      30.828  -4.758 -24.496  0.00  0.00    +0.003 C 
ATOM     14  C   UNL     1      31.033  -4.016 -23.333  0.00  0.00    +0.001 C 
BRANCH  10  16
ATOM     15  N   UNL     1      32.265  -7.204 -19.925  0.00  0.00    -0.191 NA
ATOM     16  C   UNL     1      31.955  -6.685 -20.913  0.00  0.00    +0.103 C 
ENDBRANCH  10  16
ENDBRANCH   8   9
ENDBRANCH   6   8
ENDBRANCH   1   4
BRANCH   1  18
ATOM     17  C   UNL     1      33.471 -13.792 -24.484  0.00  0.00    +0.044 C 
ATOM     18  C   UNL     1      33.952 -12.534 -24.812  0.00  0.00    +0.147 C 
ATOM     19  C   UNL     1      32.853 -14.594 -25.432  0.00  0.00    +0.003 C 
ATOM     20  C   UNL     1      33.812 -12.066 -26.119  0.00  0.00    +0.038 C 
ATOM     21  C   UNL     1      32.713 -14.126 -26.738  0.00  0.00    +0.000 C 
ATOM     22  C   UNL     1      33.192 -12.862 -27.083  0.00  0.00    +0.003 C 
BRANCH  17  23
ATOM     23  C   UNL     1      33.606 -14.308 -23.111  0.00  0.00    +0.115 C 
ATOM     24  C   UNL     1      32.794 -13.878 -22.133  0.00  0.00    +0.179 C 
BRANCH  24  25
ATOM     25  O   UNL     1      31.797 -12.953 -22.306  0.00  0.00    -0.468 OA
ATOM     26  C   UNL     1      31.608 -12.180 -21.133  0.00  0.00    +0.253 C 
ENDBRANCH  24  25
BRANCH  23  28
ATOM     27  O   UNL     1      35.433 -15.822 -23.511  0.00  0.00    -0.245 OA
ATOM     28  C   UNL     1      34.622 -15.334 -22.736  0.00  0.00    +0.345 C 
BRANCH  28  29
ATOM     29  O   UNL     1      34.496 -15.641 -21.415  0.00  0.00    -0.441 OA
ATOM     30  C   UNL     1      34.888 -16.967 -21.046  0.00  0.00    +0.256 C 
ENDBRANCH  28  29
ENDBRANCH  23  28
ENDBRANCH  17  23
ENDBRANCH   1  18
TORSDOF 9
ENDMDL
MODEL 9
REMARK VINA RESULT:      -9.4      1.180      3.254
REMARK  Name = 3034285
REMARK  9 active torsions:
REMARK  status: ('A' for Active; 'I' for Inactive)
REMARK    1  A    between atoms: O_1  and  C_4
REMARK    2  A    between atoms: O_1  and  C_18
REMARK    3  A    between atoms: C_6  and  O_8
REMARK    4  A    between atoms: O_8  and  C_9
REMARK    5  A    between atoms: C_10  and  C_16
REMARK    6  A    between atoms: C_17  and  C_23
REMARK    7  A    between atoms: C_23  and  C_28
REMARK    8  A    between atoms: C_24  and  O_25
REMARK    9  A    between atoms: C_28  and  O_29
REMARK                            x       y       z     vdW  Elec       q    Type
REMARK                         _______ _______ _______ _____ _____    ______ ____
ROOT
ATOM      1  O   UNL     1      32.178 -11.040 -23.174  0.00  0.00    -0.440 OA
ENDROOT
BRANCH   1   4
ATOM      2  N   UNL     1      31.884 -12.842 -21.745  0.00  0.00    -0.214 NA
ATOM      3  N   UNL     1      33.336 -14.760 -21.899  0.00  0.00    -0.214 NA
ATOM      4  C   UNL     1      32.580 -12.295 -22.755  0.00  0.00    +0.213 C 
ATOM      5  C   UNL     1      33.645 -12.891 -23.385  0.00  0.00    +0.170 C 
ATOM      6  C   UNL     1      33.984 -14.141 -22.908  0.00  0.00    +0.213 C 
ATOM      7  C   UNL     1      32.311 -14.063 -21.371  0.00  0.00    +0.256 C 
BRANCH   6   8
ATOM      8  O   UNL     1      35.034 -14.812 -23.478  0.00  0.00    -0.439 OA
BRANCH   8   9
ATOM      9  C   UNL     1      34.891 -16.173 -23.665  0.00  0.00    +0.156 C 
ATOM     10  C   UNL     1      34.281 -16.669 -24.804  0.00  0.00    +0.103 C 
ATOM     11  C   UNL     1      35.377 -17.021 -22.682  0.00  0.00    +0.038 C 
ATOM     12  C   UNL     1      34.152 -18.048 -24.967  0.00  0.00    +0.013 C 
ATOM     13  C   UNL     1      35.249 -18.402 -22.843  0.00  0.00    +0.003 C 
ATOM     14  C   UNL     1      34.636 -18.915 -23.986  0.00  0.00    +0.001 C 
BRANCH  10  16
ATOM     15  N   UNL     1      33.372 -15.090 -26.646  0.00  0.00    -0.191 NA
ATOM     16  C   UNL     1      33.778 -15.797 -25.822  0.00  0.00    +0.103 C 
ENDBRANCH  10  16
ENDBRANCH   8   9
ENDBRANCH   6   8
ENDBRANCH   1   4
BRANCH   1  18
ATOM     17  C   UNL     1      33.067  -8.809 -23.217  0.00  0.00    +0.044 C 
ATOM     18  C   UNL     1      33.147 -10.154 -23.541  0.00  0.00    +0.147 C 
ATOM     19  C   UNL     1      34.062  -7.919 -23.596  0.00  0.00    +0.003 C 
ATOM     20  C   UNL     1      34.247 -10.622 -24.262  0.00  0.00    +0.038 C 
ATOM     21  C   UNL     1      35.161  -8.387 -24.316  0.00  0.00    +0.000 C 
ATOM     22  C   UNL     1      35.254  -9.738 -24.650  0.00  0.00    +0.003 C 
BRANCH  17  23
ATOM     23  C   UNL     1      31.918  -8.290 -22.456  0.00  0.00    +0.115 C 
ATOM     24  C   UNL     1      31.778  -8.566 -21.150  0.00  0.00    +0.179 C 
BRANCH  24  25
ATOM     25  O   UNL     1      32.657  -9.327 -20.422  0.00  0.00    -0.468 OA
ATOM     26  C   UNL     1      31.985 -10.047 -19.402  0.00  0.00    +0.253 C 
ENDBRANCH  24  25
BRANCH  23  28
ATOM     27  O   UNL     1      30.351  -7.642 -24.162  0.00  0.00    -0.245 OA
ATOM     28  C   UNL     1      30.869  -7.429 -23.075  0.00  0.00    +0.345 C 
BRANCH  28  29
ATOM     29  O   UNL     1      30.595  -6.380 -22.251  0.00  0.00    -0.441 OA
ATOM     30  C   UNL     1      31.049  -5.101 -22.703  0.00  0.00    +0.256 C 
ENDBRANCH  28  29
ENDBRANCH  23  28
ENDBRANCH  17  23
ENDBRANCH   1  18
TORSDOF 9
ENDMDL
