MODEL 1
REMARK VINA RESULT:      -7.3      0.000      0.000
REMARK  Name = 638035
REMARK  6 active torsions:
REMARK  status: ('A' for Active; 'I' for Inactive)
REMARK    1  A    between atoms: C_7  and  C_12
REMARK    2  A    between atoms: C_12  and  C_13
REMARK    3  A    between atoms: C_13  and  C_14
REMARK    4  A    between atoms: C_14  and  C_15
REMARK    5  A    between atoms: C_15  and  C_17
REMARK    6  A    between atoms: C_17  and  O_18
REMARK                            x       y       z     vdW  Elec       q    Type
REMARK                         _______ _______ _______ _____ _____    ______ ____
ROOT
ATOM      1  S   UNL     1      36.786 -23.700 -13.001  0.00  0.00    -0.138 S 
ATOM      2  O   UNL     1      40.999 -25.232 -14.622  0.00  0.00    -0.253 OA
ATOM      3  N   UNL     1      38.799 -24.995 -15.391  0.00  0.00    -0.288 N 
ATOM      4  N   UNL     1      39.152 -26.051 -13.435  0.00  0.00    -0.288 N 
ATOM      5  C   UNL     1      37.469 -25.371 -14.947  0.00  0.00    +0.102 C 
ATOM      6  C   UNL     1      37.714 -26.102 -13.611  0.00  0.00    +0.103 C 
ATOM      7  C   UNL     1      36.572 -24.145 -14.748  0.00  0.00    +0.067 C 
ATOM      8  C   UNL     1      36.976 -25.415 -12.470  0.00  0.00    +0.079 C 
ATOM      9  C   UNL     1      39.794 -25.403 -14.496  0.00  0.00    +0.301 C 
ATOM     10  H   UNL     1      38.981 -24.507 -16.227  0.00  0.00    +0.151 HD
ATOM     11  H   UNL     1      39.624 -26.428 -12.657  0.00  0.00    +0.151 HD
ENDROOT
BRANCH   7  12
ATOM     12  C   UNL     1      35.107 -24.459 -15.031  0.00  0.00    +0.013 C 
BRANCH  12  13
ATOM     13  C   UNL     1      34.227 -23.213 -15.135  0.00  0.00    +0.001 C 
BRANCH  13  14
ATOM     14  C   UNL     1      32.816 -23.438 -15.685  0.00  0.00    +0.012 C 
BRANCH  14  15
ATOM     15  C   UNL     1      31.738 -23.467 -14.602  0.00  0.00    +0.109 C 
BRANCH  15  17
ATOM     16  O   UNL     1      30.617 -25.628 -14.591  0.00  0.00    -0.250 OA
ATOM     17  C   UNL     1      31.458 -24.873 -14.123  0.00  0.00    +0.314 C 
BRANCH  17  18
ATOM     18  O   UNL     1      32.262 -25.212 -13.081  0.00  0.00    -0.480 OA
ATOM     19  H   UNL     1      32.795 -24.560 -12.669  0.00  0.00    +0.295 HD
ENDBRANCH  17  18
ENDBRANCH  15  17
ENDBRANCH  14  15
ENDBRANCH  13  14
ENDBRANCH  12  13
ENDBRANCH   7  12
TORSDOF 6
ENDMDL
MODEL 2
REMARK VINA RESULT:      -7.3      2.576      2.935
REMARK  Name = 638035
REMARK  6 active torsions:
REMARK  status: ('A' for Active; 'I' for Inactive)
REMARK    1  A    between atoms: C_7  and  C_12
REMARK    2  A    between atoms: C_12  and  C_13
REMARK    3  A    between atoms: C_13  and  C_14
REMARK    4  A    between atoms: C_14  and  C_15
REMARK    5  A    between atoms: C_15  and  C_17
REMARK    6  A    between atoms: C_17  and  O_18
REMARK                            x       y       z     vdW  Elec       q    Type
REMARK                         _______ _______ _______ _____ _____    ______ ____
ROOT
ATOM      1  S   UNL     1      36.776 -23.803 -12.845  0.00  0.00    -0.138 S 
ATOM      2  O   UNL     1      41.011 -25.014 -14.668  0.00  0.00    -0.253 OA
ATOM      3  N   UNL     1      38.772 -24.892 -15.349  0.00  0.00    -0.288 N 
ATOM      4  N   UNL     1      39.266 -25.985 -13.443  0.00  0.00    -0.288 N 
ATOM      5  C   UNL     1      37.486 -25.365 -14.870  0.00  0.00    +0.102 C 
ATOM      6  C   UNL     1      37.828 -26.121 -13.569  0.00  0.00    +0.103 C 
ATOM      7  C   UNL     1      36.524 -24.205 -14.598  0.00  0.00    +0.067 C 
ATOM      8  C   UNL     1      37.093 -25.518 -12.380  0.00  0.00    +0.079 C 
ATOM      9  C   UNL     1      39.825 -25.264 -14.505  0.00  0.00    +0.301 C 
ATOM     10  H   UNL     1      38.892 -24.368 -16.174  0.00  0.00    +0.151 HD
ATOM     11  H   UNL     1      39.789 -26.356 -12.697  0.00  0.00    +0.151 HD
ENDROOT
BRANCH   7  12
ATOM     12  C   UNL     1      35.071 -24.603 -14.838  0.00  0.00    +0.013 C 
BRANCH  12  13
ATOM     13  C   UNL     1      34.145 -23.409 -15.070  0.00  0.00    +0.001 C 
BRANCH  13  14
ATOM     14  C   UNL     1      33.463 -23.352 -16.439  0.00  0.00    +0.012 C 
BRANCH  14  15
ATOM     15  C   UNL     1      34.355 -22.778 -17.539  0.00  0.00    +0.109 C 
BRANCH  15  17
ATOM     16  O   UNL     1      32.835 -21.939 -19.246  0.00  0.00    -0.250 OA
ATOM     17  C   UNL     1      33.659 -22.766 -18.881  0.00  0.00    +0.314 C 
BRANCH  17  18
ATOM     18  O   UNL     1      34.056 -23.810 -19.655  0.00  0.00    -0.480 OA
ATOM     19  H   UNL     1      34.930 -23.836 -19.994  0.00  0.00    +0.295 HD
ENDBRANCH  17  18
ENDBRANCH  15  17
ENDBRANCH  14  15
ENDBRANCH  13  14
ENDBRANCH  12  13
ENDBRANCH   7  12
TORSDOF 6
ENDMDL
MODEL 3
REMARK VINA RESULT:      -7.2      8.865     10.363
REMARK  Name = 638035
REMARK  6 active torsions:
REMARK  status: ('A' for Active; 'I' for Inactive)
REMARK    1  A    between atoms: C_7  and  C_12
REMARK    2  A    between atoms: C_12  and  C_13
REMARK    3  A    between atoms: C_13  and  C_14
REMARK    4  A    between atoms: C_14  and  C_15
REMARK    5  A    between atoms: C_15  and  C_17
REMARK    6  A    between atoms: C_17  and  O_18
REMARK                            x       y       z     vdW  Elec       q    Type
REMARK                         _______ _______ _______ _____ _____    ______ ____
ROOT
ATOM      1  S   UNL     1      33.471 -17.659 -21.256  0.00  0.00    -0.138 S 
ATOM      2  O   UNL     1      34.391 -16.990 -25.885  0.00  0.00    -0.253 OA
ATOM      3  N   UNL     1      34.797 -18.592 -24.224  0.00  0.00    -0.288 N 
ATOM      4  N   UNL     1      35.305 -16.440 -23.799  0.00  0.00    -0.288 N 
ATOM      5  C   UNL     1      35.340 -18.616 -22.878  0.00  0.00    +0.102 C 
ATOM      6  C   UNL     1      35.696 -17.142 -22.592  0.00  0.00    +0.103 C 
ATOM      7  C   UNL     1      34.318 -19.144 -21.866  0.00  0.00    +0.067 C 
ATOM      8  C   UNL     1      34.951 -16.629 -21.368  0.00  0.00    +0.079 C 
ATOM      9  C   UNL     1      34.781 -17.304 -24.769  0.00  0.00    +0.301 C 
ATOM     10  H   UNL     1      34.475 -19.392 -24.700  0.00  0.00    +0.151 HD
ATOM     11  H   UNL     1      35.396 -15.468 -23.922  0.00  0.00    +0.151 HD
ENDROOT
BRANCH   7  12
ATOM     12  C   UNL     1      34.989 -19.874 -20.707  0.00  0.00    +0.013 C 
BRANCH  12  13
ATOM     13  C   UNL     1      34.080 -20.896 -20.026  0.00  0.00    +0.001 C 
BRANCH  13  14
ATOM     14  C   UNL     1      34.783 -21.925 -19.136  0.00  0.00    +0.012 C 
BRANCH  14  15
ATOM     15  C   UNL     1      36.265 -21.624 -18.915  0.00  0.00    +0.109 C 
BRANCH  15  17
ATOM     16  O   UNL     1      36.405 -22.754 -16.762  0.00  0.00    -0.250 OA
ATOM     17  C   UNL     1      36.663 -21.787 -17.466  0.00  0.00    +0.314 C 
BRANCH  17  18
ATOM     18  O   UNL     1      37.352 -20.706 -17.016  0.00  0.00    -0.480 OA
ATOM     19  H   UNL     1      36.946 -19.861 -17.008  0.00  0.00    +0.295 HD
ENDBRANCH  17  18
ENDBRANCH  15  17
ENDBRANCH  14  15
ENDBRANCH  13  14
ENDBRANCH  12  13
ENDBRANCH   7  12
TORSDOF 6
ENDMDL
MODEL 4
REMARK VINA RESULT:      -7.1      8.626      9.984
REMARK  Name = 638035
REMARK  6 active torsions:
REMARK  status: ('A' for Active; 'I' for Inactive)
REMARK    1  A    between atoms: C_7  and  C_12
REMARK    2  A    between atoms: C_12  and  C_13
REMARK    3  A    between atoms: C_13  and  C_14
REMARK    4  A    between atoms: C_14  and  C_15
REMARK    5  A    between atoms: C_15  and  C_17
REMARK    6  A    between atoms: C_17  and  O_18
REMARK                            x       y       z     vdW  Elec       q    Type
REMARK                         _______ _______ _______ _____ _____    ______ ____
ROOT
ATOM      1  S   UNL     1      33.815 -18.701 -21.103  0.00  0.00    -0.138 S 
ATOM      2  O   UNL     1      34.109 -17.482 -25.702  0.00  0.00    -0.253 OA
ATOM      3  N   UNL     1      35.387 -18.611 -24.096  0.00  0.00    -0.288 N 
ATOM      4  N   UNL     1      34.576 -16.572 -23.594  0.00  0.00    -0.288 N 
ATOM      5  C   UNL     1      35.868 -18.361 -22.750  0.00  0.00    +0.102 C 
ATOM      6  C   UNL     1      35.318 -16.960 -22.411  0.00  0.00    +0.103 C 
ATOM      7  C   UNL     1      35.351 -19.411 -21.761  0.00  0.00    +0.067 C 
ATOM      8  C   UNL     1      34.434 -17.006 -21.173  0.00  0.00    +0.079 C 
ATOM      9  C   UNL     1      34.626 -17.549 -24.596  0.00  0.00    +0.301 C 
ATOM     10  H   UNL     1      35.574 -19.435 -24.601  0.00  0.00    +0.151 HD
ATOM     11  H   UNL     1      34.090 -15.720 -23.683  0.00  0.00    +0.151 HD
ENDROOT
BRANCH   7  12
ATOM     12  C   UNL     1      36.338 -19.659 -20.626  0.00  0.00    +0.013 C 
BRANCH  12  13
ATOM     13  C   UNL     1      36.471 -21.135 -20.248  0.00  0.00    +0.001 C 
BRANCH  13  14
ATOM     14  C   UNL     1      35.706 -21.573 -18.997  0.00  0.00    +0.012 C 
BRANCH  14  15
ATOM     15  C   UNL     1      34.267 -22.000 -19.283  0.00  0.00    +0.109 C 
BRANCH  15  17
ATOM     16  O   UNL     1      34.294 -23.504 -17.368  0.00  0.00    -0.250 OA
ATOM     17  C   UNL     1      33.672 -22.780 -18.133  0.00  0.00    +0.314 C 
BRANCH  17  18
ATOM     18  O   UNL     1      32.329 -22.587 -18.045  0.00  0.00    -0.480 OA
ATOM     19  H   UNL     1      31.899 -22.657 -17.214  0.00  0.00    +0.295 HD
ENDBRANCH  17  18
ENDBRANCH  15  17
ENDBRANCH  14  15
ENDBRANCH  13  14
ENDBRANCH  12  13
ENDBRANCH   7  12
TORSDOF 6
ENDMDL
MODEL 5
REMARK VINA RESULT:      -7.0      3.564      4.476
REMARK  Name = 638035
REMARK  6 active torsions:
REMARK  status: ('A' for Active; 'I' for Inactive)
REMARK    1  A    between atoms: C_7  and  C_12
REMARK    2  A    between atoms: C_12  and  C_13
REMARK    3  A    between atoms: C_13  and  C_14
REMARK    4  A    between atoms: C_14  and  C_15
REMARK    5  A    between atoms: C_15  and  C_17
REMARK    6  A    between atoms: C_17  and  O_18
REMARK                            x       y       z     vdW  Elec       q    Type
REMARK                         _______ _______ _______ _____ _____    ______ ____
ROOT
ATOM      1  S   UNL     1      36.972 -25.343 -14.806  0.00  0.00    -0.138 S 
ATOM      2  O   UNL     1      35.279 -24.915 -10.370  0.00  0.00    -0.253 OA
ATOM      3  N   UNL     1      35.362 -23.665 -12.350  0.00  0.00    -0.288 N 
ATOM      4  N   UNL     1      37.271 -24.551 -11.550  0.00  0.00    -0.288 N 
ATOM      5  C   UNL     1      36.374 -23.241 -13.300  0.00  0.00    +0.102 C 
ATOM      6  C   UNL     1      37.682 -23.841 -12.745  0.00  0.00    +0.103 C 
ATOM      7  C   UNL     1      36.080 -23.764 -14.709  0.00  0.00    +0.067 C 
ATOM      8  C   UNL     1      38.331 -24.769 -13.763  0.00  0.00    +0.079 C 
ATOM      9  C   UNL     1      35.896 -24.437 -11.312  0.00  0.00    +0.301 C 
ATOM     10  H   UNL     1      34.407 -23.437 -12.426  0.00  0.00    +0.151 HD
ATOM     11  H   UNL     1      37.887 -25.056 -10.972  0.00  0.00    +0.151 HD
ENDROOT
BRANCH   7  12
ATOM     12  C   UNL     1      36.587 -22.812 -15.787  0.00  0.00    +0.013 C 
BRANCH  12  13
ATOM     13  C   UNL     1      35.600 -22.616 -16.938  0.00  0.00    +0.001 C 
BRANCH  13  14
ATOM     14  C   UNL     1      36.161 -21.936 -18.189  0.00  0.00    +0.012 C 
BRANCH  14  15
ATOM     15  C   UNL     1      35.097 -21.620 -19.239  0.00  0.00    +0.109 C 
BRANCH  15  17
ATOM     16  O   UNL     1      34.056 -23.793 -19.589  0.00  0.00    -0.250 OA
ATOM     17  C   UNL     1      33.972 -22.630 -19.222  0.00  0.00    +0.314 C 
BRANCH  17  18
ATOM     18  O   UNL     1      32.822 -22.083 -18.746  0.00  0.00    -0.480 OA
ATOM     19  H   UNL     1      32.032 -22.587 -18.738  0.00  0.00    +0.295 HD
ENDBRANCH  17  18
ENDBRANCH  15  17
ENDBRANCH  14  15
ENDBRANCH  13  14
ENDBRANCH  12  13
ENDBRANCH   7  12
TORSDOF 6
ENDMDL
MODEL 6
REMARK VINA RESULT:      -6.9     10.712     12.292
REMARK  Name = 638035
REMARK  6 active torsions:
REMARK  status: ('A' for Active; 'I' for Inactive)
REMARK    1  A    between atoms: C_7  and  C_12
REMARK    2  A    between atoms: C_12  and  C_13
REMARK    3  A    between atoms: C_13  and  C_14
REMARK    4  A    between atoms: C_14  and  C_15
REMARK    5  A    between atoms: C_15  and  C_17
REMARK    6  A    between atoms: C_17  and  O_18
REMARK                            x       y       z     vdW  Elec       q    Type
REMARK                         _______ _______ _______ _____ _____    ______ ____
ROOT
ATOM      1  S   UNL     1      32.613 -15.472 -21.358  0.00  0.00    -0.138 S 
ATOM      2  O   UNL     1      32.703 -14.768 -26.071  0.00  0.00    -0.253 OA
ATOM      3  N   UNL     1      33.909 -15.948 -24.445  0.00  0.00    -0.288 N 
ATOM      4  N   UNL     1      33.501 -13.759 -24.113  0.00  0.00    -0.288 N 
ATOM      5  C   UNL     1      34.542 -15.660 -23.171  0.00  0.00    +0.102 C 
ATOM      6  C   UNL     1      34.269 -14.158 -22.950  0.00  0.00    +0.103 C 
ATOM      7  C   UNL     1      33.943 -16.502 -22.040  0.00  0.00    +0.067 C 
ATOM      8  C   UNL     1      33.502 -13.928 -21.655  0.00  0.00    +0.079 C 
ATOM      9  C   UNL     1      33.297 -14.820 -25.003  0.00  0.00    +0.301 C 
ATOM     10  H   UNL     1      33.909 -16.836 -24.870  0.00  0.00    +0.151 HD
ATOM     11  H   UNL     1      33.161 -12.847 -24.260  0.00  0.00    +0.151 HD
ENDROOT
BRANCH   7  12
ATOM     12  C   UNL     1      34.971 -16.813 -20.957  0.00  0.00    +0.013 C 
BRANCH  12  13
ATOM     13  C   UNL     1      35.674 -18.157 -21.154  0.00  0.00    +0.001 C 
BRANCH  13  14
ATOM     14  C   UNL     1      34.773 -19.325 -21.563  0.00  0.00    +0.012 C 
BRANCH  14  15
ATOM     15  C   UNL     1      34.655 -20.406 -20.489  0.00  0.00    +0.109 C 
BRANCH  15  17
ATOM     16  O   UNL     1      32.285 -19.915 -20.223  0.00  0.00    -0.250 OA
ATOM     17  C   UNL     1      33.213 -20.708 -20.151  0.00  0.00    +0.314 C 
BRANCH  17  18
ATOM     18  O   UNL     1      33.059 -21.994 -19.738  0.00  0.00    -0.480 OA
ATOM     19  H   UNL     1      33.806 -22.490 -19.462  0.00  0.00    +0.295 HD
ENDBRANCH  17  18
ENDBRANCH  15  17
ENDBRANCH  14  15
ENDBRANCH  13  14
ENDBRANCH  12  13
ENDBRANCH   7  12
TORSDOF 6
ENDMDL
MODEL 7
REMARK VINA RESULT:      -6.8      2.326      2.903
REMARK  Name = 638035
REMARK  6 active torsions:
REMARK  status: ('A' for Active; 'I' for Inactive)
REMARK    1  A    between atoms: C_7  and  C_12
REMARK    2  A    between atoms: C_12  and  C_13
REMARK    3  A    between atoms: C_13  and  C_14
REMARK    4  A    between atoms: C_14  and  C_15
REMARK    5  A    between atoms: C_15  and  C_17
REMARK    6  A    between atoms: C_17  and  O_18
REMARK                            x       y       z     vdW  Elec       q    Type
REMARK                         _______ _______ _______ _____ _____    ______ ____
ROOT
ATOM      1  S   UNL     1      36.515 -22.945 -15.516  0.00  0.00    -0.138 S 
ATOM      2  O   UNL     1      37.850 -27.434 -14.624  0.00  0.00    -0.253 OA
ATOM      3  N   UNL     1      35.904 -26.255 -15.185  0.00  0.00    -0.288 N 
ATOM      4  N   UNL     1      37.149 -25.527 -13.456  0.00  0.00    -0.288 N 
ATOM      5  C   UNL     1      35.186 -25.091 -14.698  0.00  0.00    +0.102 C 
ATOM      6  C   UNL     1      36.036 -24.600 -13.508  0.00  0.00    +0.103 C 
ATOM      7  C   UNL     1      35.067 -24.009 -15.775  0.00  0.00    +0.067 C 
ATOM      8  C   UNL     1      36.499 -23.166 -13.724  0.00  0.00    +0.079 C 
ATOM      9  C   UNL     1      37.063 -26.514 -14.445  0.00  0.00    +0.301 C 
ATOM     10  H   UNL     1      35.609 -26.801 -15.950  0.00  0.00    +0.151 HD
ATOM     11  H   UNL     1      37.881 -25.470 -12.801  0.00  0.00    +0.151 HD
ENDROOT
BRANCH   7  12
ATOM     12  C   UNL     1      33.787 -23.193 -15.624  0.00  0.00    +0.013 C 
BRANCH  12  13
ATOM     13  C   UNL     1      32.722 -23.887 -14.775  0.00  0.00    +0.001 C 
BRANCH  13  14
ATOM     14  C   UNL     1      31.318 -23.282 -14.843  0.00  0.00    +0.012 C 
BRANCH  14  15
ATOM     15  C   UNL     1      30.893 -22.889 -16.258  0.00  0.00    +0.109 C 
BRANCH  15  17
ATOM     16  O   UNL     1      28.718 -22.061 -16.974  0.00  0.00    -0.250 OA
ATOM     17  C   UNL     1      29.391 -22.922 -16.425  0.00  0.00    +0.314 C 
BRANCH  17  18
ATOM     18  O   UNL     1      28.856 -24.045 -15.876  0.00  0.00    -0.480 OA
ATOM     19  H   UNL     1      28.230 -23.974 -15.182  0.00  0.00    +0.295 HD
ENDBRANCH  17  18
ENDBRANCH  15  17
ENDBRANCH  14  15
ENDBRANCH  13  14
ENDBRANCH  12  13
ENDBRANCH   7  12
TORSDOF 6
ENDMDL
MODEL 8
REMARK VINA RESULT:      -6.7      4.523      7.537
REMARK  Name = 638035
REMARK  6 active torsions:
REMARK  status: ('A' for Active; 'I' for Inactive)
REMARK    1  A    between atoms: C_7  and  C_12
REMARK    2  A    between atoms: C_12  and  C_13
REMARK    3  A    between atoms: C_13  and  C_14
REMARK    4  A    between atoms: C_14  and  C_15
REMARK    5  A    between atoms: C_15  and  C_17
REMARK    6  A    between atoms: C_17  and  O_18
REMARK                            x       y       z     vdW  Elec       q    Type
REMARK                         _______ _______ _______ _____ _____    ______ ____
ROOT
ATOM      1  S   UNL     1      31.215 -24.961 -14.599  0.00  0.00    -0.138 S 
ATOM      2  O   UNL     1      27.684 -23.673 -17.531  0.00  0.00    -0.253 OA
ATOM      3  N   UNL     1      29.939 -23.157 -17.160  0.00  0.00    -0.288 N 
ATOM      4  N   UNL     1      28.519 -23.120 -15.413  0.00  0.00    -0.288 N 
ATOM      5  C   UNL     1      30.773 -22.773 -16.035  0.00  0.00    +0.102 C 
ATOM      6  C   UNL     1      29.796 -22.740 -14.841  0.00  0.00    +0.103 C 
ATOM      7  C   UNL     1      31.900 -23.783 -15.798  0.00  0.00    +0.067 C 
ATOM      8  C   UNL     1      30.239 -23.702 -13.748  0.00  0.00    +0.079 C 
ATOM      9  C   UNL     1      28.605 -23.357 -16.790  0.00  0.00    +0.301 C 
ATOM     10  H   UNL     1      30.274 -23.265 -18.080  0.00  0.00    +0.151 HD
ATOM     11  H   UNL     1      27.688 -23.203 -14.893  0.00  0.00    +0.151 HD
ENDROOT
BRANCH   7  12
ATOM     12  C   UNL     1      33.147 -23.118 -15.222  0.00  0.00    +0.013 C 
BRANCH  12  13
ATOM     13  C   UNL     1      34.450 -23.778 -15.674  0.00  0.00    +0.001 C 
BRANCH  13  14
ATOM     14  C   UNL     1      35.135 -24.675 -14.641  0.00  0.00    +0.012 C 
BRANCH  14  15
ATOM     15  C   UNL     1      36.554 -25.085 -15.037  0.00  0.00    +0.109 C 
BRANCH  15  17
ATOM     16  O   UNL     1      36.683 -27.250 -16.142  0.00  0.00    -0.250 OA
ATOM     17  C   UNL     1      36.705 -26.586 -15.115  0.00  0.00    +0.314 C 
BRANCH  17  18
ATOM     18  O   UNL     1      36.867 -27.133 -13.882  0.00  0.00    -0.480 OA
ATOM     19  H   UNL     1      36.159 -27.597 -13.478  0.00  0.00    +0.295 HD
ENDBRANCH  17  18
ENDBRANCH  15  17
ENDBRANCH  14  15
ENDBRANCH  13  14
ENDBRANCH  12  13
ENDBRANCH   7  12
TORSDOF 6
ENDMDL
MODEL 9
REMARK VINA RESULT:      -6.6      4.544      7.349
REMARK  Name = 638035
REMARK  6 active torsions:
REMARK  status: ('A' for Active; 'I' for Inactive)
REMARK    1  A    between atoms: C_7  and  C_12
REMARK    2  A    between atoms: C_12  and  C_13
REMARK    3  A    between atoms: C_13  and  C_14
REMARK    4  A    between atoms: C_14  and  C_15
REMARK    5  A    between atoms: C_15  and  C_17
REMARK    6  A    between atoms: C_17  and  O_18
REMARK                            x       y       z     vdW  Elec       q    Type
REMARK                         _______ _______ _______ _____ _____    ______ ____
ROOT
ATOM      1  S   UNL     1      31.303 -25.010 -14.321  0.00  0.00    -0.138 S 
ATOM      2  O   UNL     1      27.913 -23.797 -17.445  0.00  0.00    -0.253 OA
ATOM      3  N   UNL     1      30.163 -23.309 -17.013  0.00  0.00    -0.288 N 
ATOM      4  N   UNL     1      28.680 -23.158 -15.326  0.00  0.00    -0.288 N 
ATOM      5  C   UNL     1      30.962 -22.887 -15.877  0.00  0.00    +0.102 C 
ATOM      6  C   UNL     1      29.942 -22.776 -14.724  0.00  0.00    +0.103 C 
ATOM      7  C   UNL     1      32.058 -23.905 -15.547  0.00  0.00    +0.067 C 
ATOM      8  C   UNL     1      30.323 -23.692 -13.569  0.00  0.00    +0.079 C 
ATOM      9  C   UNL     1      28.812 -23.464 -16.685  0.00  0.00    +0.301 C 
ATOM     10  H   UNL     1      30.530 -23.468 -17.913  0.00  0.00    +0.151 HD
ATOM     11  H   UNL     1      27.828 -23.199 -14.835  0.00  0.00    +0.151 HD
ENDROOT
BRANCH   7  12
ATOM     12  C   UNL     1      33.296 -23.238 -14.957  0.00  0.00    +0.013 C 
BRANCH  12  13
ATOM     13  C   UNL     1      33.984 -24.079 -13.881  0.00  0.00    +0.001 C 
BRANCH  13  14
ATOM     14  C   UNL     1      35.492 -23.862 -13.729  0.00  0.00    +0.012 C 
BRANCH  14  15
ATOM     15  C   UNL     1      35.925 -23.588 -12.289  0.00  0.00    +0.109 C 
BRANCH  15  17
ATOM     16  O   UNL     1      35.282 -24.892 -10.336  0.00  0.00    -0.250 OA
ATOM     17  C   UNL     1      35.829 -24.826 -11.428  0.00  0.00    +0.314 C 
BRANCH  17  18
ATOM     18  O   UNL     1      36.443 -25.887 -12.015  0.00  0.00    -0.480 OA
ATOM     19  H   UNL     1      37.290 -25.783 -12.402  0.00  0.00    +0.295 HD
ENDBRANCH  17  18
ENDBRANCH  15  17
ENDBRANCH  14  15
ENDBRANCH  13  14
ENDBRANCH  12  13
ENDBRANCH   7  12
TORSDOF 6
ENDMDL
