MODEL 1
REMARK VINA RESULT:      -3.5      0.000      0.000
REMARK  Name = 6575
REMARK  0 active torsions:
REMARK  status: ('A' for Active; 'I' for Inactive)
REMARK                            x       y       z     vdW  Elec       q    Type
REMARK                         _______ _______ _______ _____ _____    ______ ____
ROOT
ATOM      1 CL   UNL     1      34.535 -19.148 -22.159  0.00  0.00    -0.069 Cl
ATOM      2 CL   UNL     1      33.116 -20.525 -19.970  0.00  0.00    -0.069 Cl
ATOM      3 CL   UNL     1      35.902 -21.628 -18.872  0.00  0.00    -0.080 Cl
ATOM      4  C   UNL     1      34.613 -20.149 -20.753  0.00  0.00    +0.126 C 
ATOM      5  C   UNL     1      35.756 -20.632 -20.259  0.00  0.00    +0.091 C 
ENDROOT
TORSDOF 0
ENDMDL
MODEL 2
REMARK VINA RESULT:      -3.5      1.391      2.466
REMARK  Name = 6575
REMARK  0 active torsions:
REMARK  status: ('A' for Active; 'I' for Inactive)
REMARK                            x       y       z     vdW  Elec       q    Type
REMARK                         _______ _______ _______ _____ _____    ______ ____
ROOT
ATOM      1 CL   UNL     1      36.177 -18.417 -22.209  0.00  0.00    -0.069 Cl
ATOM      2 CL   UNL     1      36.184 -20.562 -20.185  0.00  0.00    -0.069 Cl
ATOM      3 CL   UNL     1      32.997 -20.441 -20.061  0.00  0.00    -0.080 Cl
ATOM      4  C   UNL     1      35.279 -19.456 -21.161  0.00  0.00    +0.126 C 
ATOM      5  C   UNL     1      33.946 -19.439 -21.077  0.00  0.00    +0.091 C 
ENDROOT
TORSDOF 0
ENDMDL
MODEL 3
REMARK VINA RESULT:      -3.4      9.132      9.192
REMARK  Name = 6575
REMARK  0 active torsions:
REMARK  status: ('A' for Active; 'I' for Inactive)
REMARK                            x       y       z     vdW  Elec       q    Type
REMARK                         _______ _______ _______ _____ _____    ______ ____
ROOT
ATOM      1 CL   UNL     1      42.920 -16.391 -19.038  0.00  0.00    -0.069 Cl
ATOM      2 CL   UNL     1      41.111 -14.246 -18.128  0.00  0.00    -0.069 Cl
ATOM      3 CL   UNL     1      40.953 -15.615 -15.249  0.00  0.00    -0.080 Cl
ATOM      4  C   UNL     1      41.970 -15.705 -17.769  0.00  0.00    +0.126 C 
ATOM      5  C   UNL     1      41.875 -16.244 -16.550  0.00  0.00    +0.091 C 
ENDROOT
TORSDOF 0
ENDMDL
MODEL 4
REMARK VINA RESULT:      -3.4      1.494      3.145
REMARK  Name = 6575
REMARK  0 active torsions:
REMARK  status: ('A' for Active; 'I' for Inactive)
REMARK                            x       y       z     vdW  Elec       q    Type
REMARK                         _______ _______ _______ _____ _____    ______ ____
ROOT
ATOM      1 CL   UNL     1      32.834 -20.107 -20.344  0.00  0.00    -0.069 Cl
ATOM      2 CL   UNL     1      35.764 -20.436 -20.425  0.00  0.00    -0.069 Cl
ATOM      3 CL   UNL     1      35.915 -18.403 -22.881  0.00  0.00    -0.080 Cl
ATOM      4  C   UNL     1      34.342 -19.697 -21.079  0.00  0.00    +0.126 C 
ATOM      5  C   UNL     1      34.451 -18.851 -22.108  0.00  0.00    +0.091 C 
ENDROOT
TORSDOF 0
ENDMDL
MODEL 5
REMARK VINA RESULT:      -3.4      1.445      2.827
REMARK  Name = 6575
REMARK  0 active torsions:
REMARK  status: ('A' for Active; 'I' for Inactive)
REMARK                            x       y       z     vdW  Elec       q    Type
REMARK                         _______ _______ _______ _____ _____    ______ ____
ROOT
ATOM      1 CL   UNL     1      36.674 -21.262 -19.868  0.00  0.00    -0.069 Cl
ATOM      2 CL   UNL     1      34.041 -22.168 -18.895  0.00  0.00    -0.069 Cl
ATOM      3 CL   UNL     1      32.630 -19.877 -20.611  0.00  0.00    -0.080 Cl
ATOM      4  C   UNL     1      34.958 -21.067 -19.866  0.00  0.00    +0.126 C 
ATOM      5  C   UNL     1      34.326 -20.123 -20.569  0.00  0.00    +0.091 C 
ENDROOT
TORSDOF 0
ENDMDL
MODEL 6
REMARK VINA RESULT:      -3.4     10.065     10.425
REMARK  Name = 6575
REMARK  0 active torsions:
REMARK  status: ('A' for Active; 'I' for Inactive)
REMARK                            x       y       z     vdW  Elec       q    Type
REMARK                         _______ _______ _______ _____ _____    ______ ____
ROOT
ATOM      1 CL   UNL     1      42.524 -11.842 -17.598  0.00  0.00    -0.069 Cl
ATOM      2 CL   UNL     1      41.203 -14.395 -18.257  0.00  0.00    -0.069 Cl
ATOM      3 CL   UNL     1      41.008 -15.086 -15.148  0.00  0.00    -0.080 Cl
ATOM      4  C   UNL     1      41.808 -13.315 -17.048  0.00  0.00    +0.126 C 
ATOM      5  C   UNL     1      41.706 -13.644 -15.758  0.00  0.00    +0.091 C 
ENDROOT
TORSDOF 0
ENDMDL
MODEL 7
REMARK VINA RESULT:      -3.4      8.899      9.512
REMARK  Name = 6575
REMARK  0 active torsions:
REMARK  status: ('A' for Active; 'I' for Inactive)
REMARK                            x       y       z     vdW  Elec       q    Type
REMARK                         _______ _______ _______ _____ _____    ______ ____
ROOT
ATOM      1 CL   UNL     1      40.908 -13.940 -14.919  0.00  0.00    -0.069 Cl
ATOM      2 CL   UNL     1      41.076 -14.091 -17.860  0.00  0.00    -0.069 Cl
ATOM      3 CL   UNL     1      42.071 -17.115 -17.638  0.00  0.00    -0.080 Cl
ATOM      4  C   UNL     1      41.273 -14.871 -16.327  0.00  0.00    +0.126 C 
ATOM      5  C   UNL     1      41.692 -16.138 -16.281  0.00  0.00    +0.091 C 
ENDROOT
TORSDOF 0
ENDMDL
MODEL 8
REMARK VINA RESULT:      -3.3      0.897      2.883
REMARK  Name = 6575
REMARK  0 active torsions:
REMARK  status: ('A' for Active; 'I' for Inactive)
REMARK                            x       y       z     vdW  Elec       q    Type
REMARK                         _______ _______ _______ _____ _____    ______ ____
ROOT
ATOM      1 CL   UNL     1      35.821 -21.362 -19.651  0.00  0.00    -0.069 Cl
ATOM      2 CL   UNL     1      33.155 -20.293 -20.322  0.00  0.00    -0.069 Cl
ATOM      3 CL   UNL     1      34.525 -18.017 -22.092  0.00  0.00    -0.080 Cl
ATOM      4  C   UNL     1      34.874 -20.184 -20.487  0.00  0.00    +0.126 C 
ATOM      5  C   UNL     1      35.406 -19.215 -21.238  0.00  0.00    +0.091 C 
ENDROOT
TORSDOF 0
ENDMDL
MODEL 9
REMARK VINA RESULT:      -3.3      1.924      3.569
REMARK  Name = 6575
REMARK  0 active torsions:
REMARK  status: ('A' for Active; 'I' for Inactive)
REMARK                            x       y       z     vdW  Elec       q    Type
REMARK                         _______ _______ _______ _____ _____    ______ ____
ROOT
ATOM      1 CL   UNL     1      33.490 -22.947 -18.246  0.00  0.00    -0.069 Cl
ATOM      2 CL   UNL     1      35.769 -21.647 -19.594  0.00  0.00    -0.069 Cl
ATOM      3 CL   UNL     1      33.763 -19.587 -20.977  0.00  0.00    -0.080 Cl
ATOM      4  C   UNL     1      34.063 -21.714 -19.311  0.00  0.00    +0.126 C 
ATOM      5  C   UNL     1      33.260 -20.832 -19.911  0.00  0.00    +0.091 C 
ENDROOT
TORSDOF 0
ENDMDL
