MODEL 1
REMARK VINA RESULT:     -13.9      0.000      0.000
REMARK  Name = 25049750
REMARK  7 active torsions:
REMARK  status: ('A' for Active; 'I' for Inactive)
REMARK    1  A    between atoms: C_1  and  C_14
REMARK    2  A    between atoms: C_6  and  O_20
REMARK    3  A    between atoms: C_10  and  C_17
REMARK    4  A    between atoms: C_17  and  O_18
REMARK    5  A    between atoms: O_20  and  C_21
REMARK    6  A    between atoms: C_21  and  C_23
REMARK    7  A    between atoms: C_27  and  C_32
REMARK                            x       y       z     vdW  Elec       q    Type
REMARK                         _______ _______ _______ _____ _____    ______ ____
ROOT
ATOM      1  C   UNL     1      34.955 -19.389 -21.157  0.00  0.00    -0.004 C 
ATOM      2  C   UNL     1      33.566 -19.303 -21.055  0.00  0.00    +0.000 C 
ATOM      3  C   UNL     1      35.646 -20.377 -20.456  0.00  0.00    +0.000 C 
ATOM      4  C   UNL     1      32.869 -20.206 -20.252  0.00  0.00    +0.037 C 
ATOM      5  C   UNL     1      34.949 -21.279 -19.653  0.00  0.00    +0.037 C 
ATOM      6  C   UNL     1      33.561 -21.195 -19.551  0.00  0.00    +0.139 C 
ENDROOT
BRANCH   1  14
ATOM      7  O   UNL     1      34.229 -17.265 -25.049  0.00  0.00    -0.275 OA
ATOM      8  N   UNL     1      35.341 -18.537 -23.429  0.00  0.00    -0.302 N 
ATOM      9  C   UNL     1      34.633 -16.460 -22.847  0.00  0.00    +0.081 C 
ATOM     10  C   UNL     1      33.361 -15.728 -22.590  0.00  0.00    +0.108 C 
ATOM     11  C   UNL     1      34.564 -15.003 -23.133  0.00  0.00    +0.021 C 
ATOM     12  C   UNL     1      35.432 -16.930 -21.687  0.00  0.00    +0.033 C 
ATOM     13  C   UNL     1      34.685 -17.429 -23.928  0.00  0.00    +0.222 C 
ATOM     14  C   UNL     1      35.710 -18.410 -22.028  0.00  0.00    +0.095 C 
ATOM     15  H   UNL     1      35.541 -19.336 -23.970  0.00  0.00    +0.150 HD
BRANCH  10  17
ATOM     16  O   UNL     1      33.428 -14.325 -20.713  0.00  0.00    -0.250 OA
ATOM     17  C   UNL     1      32.996 -15.336 -21.246  0.00  0.00    +0.314 C 
BRANCH  17  18
ATOM     18  O   UNL     1      32.135 -16.207 -20.664  0.00  0.00    -0.480 OA
ATOM     19  H   UNL     1      31.528 -15.904 -20.019  0.00  0.00    +0.295 HD
ENDBRANCH  17  18
ENDBRANCH  10  17
ENDBRANCH   1  14
BRANCH   6  20
ATOM     20  O   UNL     1      32.876 -22.082 -18.762  0.00  0.00    -0.471 OA
BRANCH  20  21
ATOM     21  C   UNL     1      33.577 -23.246 -18.349  0.00  0.00    +0.229 C 
BRANCH  21  23
ATOM     22  N   UNL     1      33.538 -23.554 -14.082  0.00  0.00    -0.406 NA
ATOM     23  C   UNL     1      33.527 -23.348 -16.856  0.00  0.00    +0.012 C 
ATOM     24  C   UNL     1      32.329 -23.220 -16.139  0.00  0.00    +0.096 C 
ATOM     25  C   UNL     1      34.720 -23.579 -16.187  0.00  0.00    +0.028 C 
ATOM     26  C   UNL     1      32.382 -23.331 -14.734  0.00  0.00    +0.117 C 
ATOM     27  C   UNL     1      34.671 -23.672 -14.811  0.00  0.00    +0.130 C 
ATOM     28  C   UNL     1      31.104 -22.987 -16.789  0.00  0.00    -0.015 C 
ATOM     29  C   UNL     1      31.192 -23.203 -14.023  0.00  0.00    +0.028 C 
ATOM     30  C   UNL     1      29.930 -22.863 -16.052  0.00  0.00    -0.004 C 
ATOM     31  C   UNL     1      29.974 -22.972 -14.668  0.00  0.00    +0.002 C 
BRANCH  27  32
ATOM     32  C   UNL     1      35.867 -23.910 -14.039  0.00  0.00    +0.030 C 
ATOM     33  C   UNL     1      35.906 -23.565 -12.687  0.00  0.00    +0.003 C 
ATOM     34  C   UNL     1      36.985 -24.484 -14.643  0.00  0.00    +0.003 C 
ATOM     35  C   UNL     1      37.061 -23.795 -11.941  0.00  0.00    +0.000 C 
ATOM     36  C   UNL     1      38.141 -24.714 -13.896  0.00  0.00    +0.000 C 
ATOM     37  C   UNL     1      38.179 -24.369 -12.546  0.00  0.00    +0.000 C 
ENDBRANCH  27  32
ENDBRANCH  21  23
ENDBRANCH  20  21
ENDBRANCH   6  20
TORSDOF 7
ENDMDL
MODEL 2
REMARK VINA RESULT:     -13.7      1.135      4.101
REMARK  Name = 25049750
REMARK  7 active torsions:
REMARK  status: ('A' for Active; 'I' for Inactive)
REMARK    1  A    between atoms: C_1  and  C_14
REMARK    2  A    between atoms: C_6  and  O_20
REMARK    3  A    between atoms: C_10  and  C_17
REMARK    4  A    between atoms: C_17  and  O_18
REMARK    5  A    between atoms: O_20  and  C_21
REMARK    6  A    between atoms: C_21  and  C_23
REMARK    7  A    between atoms: C_27  and  C_32
REMARK                            x       y       z     vdW  Elec       q    Type
REMARK                         _______ _______ _______ _____ _____    ______ ____
ROOT
ATOM      1  C   UNL     1      35.264 -18.550 -21.680  0.00  0.00    -0.004 C 
ATOM      2  C   UNL     1      33.896 -18.815 -21.585  0.00  0.00    +0.000 C 
ATOM      3  C   UNL     1      36.178 -19.360 -21.008  0.00  0.00    +0.000 C 
ATOM      4  C   UNL     1      33.446 -19.889 -20.818  0.00  0.00    +0.037 C 
ATOM      5  C   UNL     1      35.727 -20.435 -20.242  0.00  0.00    +0.037 C 
ATOM      6  C   UNL     1      34.361 -20.700 -20.147  0.00  0.00    +0.139 C 
ENDROOT
BRANCH   1  14
ATOM      7  O   UNL     1      33.808 -16.283 -25.276  0.00  0.00    -0.275 OA
ATOM      8  N   UNL     1      35.274 -17.463 -23.883  0.00  0.00    -0.302 N 
ATOM      9  C   UNL     1      34.283 -15.599 -23.047  0.00  0.00    +0.081 C 
ATOM     10  C   UNL     1      32.936 -15.129 -22.617  0.00  0.00    +0.108 C 
ATOM     11  C   UNL     1      33.939 -14.160 -23.185  0.00  0.00    +0.021 C 
ATOM     12  C   UNL     1      35.260 -16.012 -22.008  0.00  0.00    +0.033 C 
ATOM     13  C   UNL     1      34.393 -16.453 -24.218  0.00  0.00    +0.222 C 
ATOM     14  C   UNL     1      35.751 -17.386 -22.512  0.00  0.00    +0.095 C 
ATOM     15  H   UNL     1      35.553 -18.167 -24.513  0.00  0.00    +0.150 HD
BRANCH  10  17
ATOM     16  O   UNL     1      32.810 -13.842 -20.662  0.00  0.00    -0.250 OA
ATOM     17  C   UNL     1      32.643 -14.918 -21.216  0.00  0.00    +0.314 C 
BRANCH  17  18
ATOM     18  O   UNL     1      32.171 -16.034 -20.608  0.00  0.00    -0.480 OA
ATOM     19  H   UNL     1      32.498 -16.876 -20.854  0.00  0.00    +0.295 HD
ENDBRANCH  17  18
ENDBRANCH  10  17
ENDBRANCH   1  14
BRANCH   6  20
ATOM     20  O   UNL     1      33.919 -21.756 -19.393  0.00  0.00    -0.471 OA
BRANCH  20  21
ATOM     21  C   UNL     1      34.896 -22.458 -18.638  0.00  0.00    +0.229 C 
BRANCH  21  23
ATOM     22  N   UNL     1      33.121 -23.582 -14.910  0.00  0.00    -0.406 NA
ATOM     23  C   UNL     1      34.309 -22.851 -17.318  0.00  0.00    +0.012 C 
ATOM     24  C   UNL     1      35.097 -23.021 -16.172  0.00  0.00    +0.096 C 
ATOM     25  C   UNL     1      32.936 -23.045 -17.258  0.00  0.00    +0.028 C 
ATOM     26  C   UNL     1      34.453 -23.392 -14.972  0.00  0.00    +0.117 C 
ATOM     27  C   UNL     1      32.397 -23.408 -16.039  0.00  0.00    +0.130 C 
ATOM     28  C   UNL     1      36.489 -22.831 -16.201  0.00  0.00    -0.015 C 
ATOM     29  C   UNL     1      35.236 -23.562 -13.835  0.00  0.00    +0.028 C 
ATOM     30  C   UNL     1      37.248 -23.007 -15.048  0.00  0.00    -0.004 C 
ATOM     31  C   UNL     1      36.620 -23.373 -13.863  0.00  0.00    +0.002 C 
BRANCH  27  32
ATOM     32  C   UNL     1      30.979 -23.630 -15.891  0.00  0.00    +0.030 C 
ATOM     33  C   UNL     1      30.516 -24.680 -15.098  0.00  0.00    +0.003 C 
ATOM     34  C   UNL     1      30.069 -22.795 -16.540  0.00  0.00    +0.003 C 
ATOM     35  C   UNL     1      29.145 -24.895 -14.953  0.00  0.00    +0.000 C 
ATOM     36  C   UNL     1      28.699 -23.009 -16.396  0.00  0.00    +0.000 C 
ATOM     37  C   UNL     1      28.237 -24.060 -15.603  0.00  0.00    +0.000 C 
ENDBRANCH  27  32
ENDBRANCH  21  23
ENDBRANCH  20  21
ENDBRANCH   6  20
TORSDOF 7
ENDMDL
MODEL 3
REMARK VINA RESULT:     -13.7      4.403      8.974
REMARK  Name = 25049750
REMARK  7 active torsions:
REMARK  status: ('A' for Active; 'I' for Inactive)
REMARK    1  A    between atoms: C_1  and  C_14
REMARK    2  A    between atoms: C_6  and  O_20
REMARK    3  A    between atoms: C_10  and  C_17
REMARK    4  A    between atoms: C_17  and  O_18
REMARK    5  A    between atoms: O_20  and  C_21
REMARK    6  A    between atoms: C_21  and  C_23
REMARK    7  A    between atoms: C_27  and  C_32
REMARK                            x       y       z     vdW  Elec       q    Type
REMARK                         _______ _______ _______ _____ _____    ______ ____
ROOT
ATOM      1  C   UNL     1      31.816 -11.133 -21.920  0.00  0.00    -0.004 C 
ATOM      2  C   UNL     1      32.371 -11.969 -22.890  0.00  0.00    +0.000 C 
ATOM      3  C   UNL     1      31.646 -11.596 -20.615  0.00  0.00    +0.000 C 
ATOM      4  C   UNL     1      32.754 -13.267 -22.554  0.00  0.00    +0.037 C 
ATOM      5  C   UNL     1      32.029 -12.894 -20.281  0.00  0.00    +0.037 C 
ATOM      6  C   UNL     1      32.584 -13.730 -21.249  0.00  0.00    +0.139 C 
ENDROOT
BRANCH   1  14
ATOM      7  O   UNL     1      33.153  -6.973 -20.872  0.00  0.00    -0.275 OA
ATOM      8  N   UNL     1      31.706  -8.780 -21.221  0.00  0.00    -0.302 N 
ATOM      9  C   UNL     1      33.033  -8.132 -22.946  0.00  0.00    +0.081 C 
ATOM     10  C   UNL     1      34.471  -8.141 -23.333  0.00  0.00    +0.108 C 
ATOM     11  C   UNL     1      33.553  -7.054 -23.827  0.00  0.00    +0.021 C 
ATOM     12  C   UNL     1      32.132  -9.163 -23.523  0.00  0.00    +0.033 C 
ATOM     13  C   UNL     1      32.674  -7.856 -21.566  0.00  0.00    +0.222 C 
ATOM     14  C   UNL     1      31.402  -9.725 -22.284  0.00  0.00    +0.095 C 
ATOM     15  H   UNL     1      31.263  -8.795 -20.342  0.00  0.00    +0.150 HD
BRANCH  10  17
ATOM     16  O   UNL     1      35.021  -8.686 -25.547  0.00  0.00    -0.250 OA
ATOM     17  C   UNL     1      34.947  -9.026 -24.375  0.00  0.00    +0.314 C 
BRANCH  17  18
ATOM     18  O   UNL     1      35.295 -10.248 -23.903  0.00  0.00    -0.480 OA
ATOM     19  H   UNL     1      34.950 -11.021 -24.304  0.00  0.00    +0.295 HD
ENDBRANCH  17  18
ENDBRANCH  10  17
ENDBRANCH   1  14
BRANCH   6  20
ATOM     20  O   UNL     1      32.961 -15.006 -20.920  0.00  0.00    -0.471 OA
BRANCH  20  21
ATOM     21  C   UNL     1      34.326 -15.343 -21.120  0.00  0.00    +0.229 C 
BRANCH  21  23
ATOM     22  N   UNL     1      34.580 -19.355 -22.586  0.00  0.00    -0.406 NA
ATOM     23  C   UNL     1      34.415 -16.734 -21.668  0.00  0.00    +0.012 C 
ATOM     24  C   UNL     1      34.464 -16.992 -23.044  0.00  0.00    +0.096 C 
ATOM     25  C   UNL     1      34.449 -17.781 -20.758  0.00  0.00    +0.028 C 
ATOM     26  C   UNL     1      34.547 -18.336 -23.465  0.00  0.00    +0.117 C 
ATOM     27  C   UNL     1      34.531 -19.063 -21.266  0.00  0.00    +0.130 C 
ATOM     28  C   UNL     1      34.431 -15.952 -23.990  0.00  0.00    -0.015 C 
ATOM     29  C   UNL     1      34.595 -18.592 -24.832  0.00  0.00    +0.028 C 
ATOM     30  C   UNL     1      34.480 -16.237 -25.350  0.00  0.00    -0.004 C 
ATOM     31  C   UNL     1      34.563 -17.559 -25.772  0.00  0.00    +0.002 C 
BRANCH  27  32
ATOM     32  C   UNL     1      34.570 -20.209 -20.389  0.00  0.00    +0.030 C 
ATOM     33  C   UNL     1      35.797 -20.711 -19.952  0.00  0.00    +0.003 C 
ATOM     34  C   UNL     1      33.383 -20.815 -19.978  0.00  0.00    +0.003 C 
ATOM     35  C   UNL     1      35.835 -21.818 -19.103  0.00  0.00    +0.000 C 
ATOM     36  C   UNL     1      33.422 -21.921 -19.129  0.00  0.00    +0.000 C 
ATOM     37  C   UNL     1      34.648 -22.423 -18.693  0.00  0.00    +0.000 C 
ENDBRANCH  27  32
ENDBRANCH  21  23
ENDBRANCH  20  21
ENDBRANCH   6  20
TORSDOF 7
ENDMDL
MODEL 4
REMARK VINA RESULT:     -12.5      4.654      9.123
REMARK  Name = 25049750
REMARK  7 active torsions:
REMARK  status: ('A' for Active; 'I' for Inactive)
REMARK    1  A    between atoms: C_1  and  C_14
REMARK    2  A    between atoms: C_6  and  O_20
REMARK    3  A    between atoms: C_10  and  C_17
REMARK    4  A    between atoms: C_17  and  O_18
REMARK    5  A    between atoms: O_20  and  C_21
REMARK    6  A    between atoms: C_21  and  C_23
REMARK    7  A    between atoms: C_27  and  C_32
REMARK                            x       y       z     vdW  Elec       q    Type
REMARK                         _______ _______ _______ _____ _____    ______ ____
ROOT
ATOM      1  C   UNL     1      33.017 -10.857 -23.203  0.00  0.00    -0.004 C 
ATOM      2  C   UNL     1      33.823 -11.844 -23.771  0.00  0.00    +0.000 C 
ATOM      3  C   UNL     1      32.111 -11.190 -22.197  0.00  0.00    +0.000 C 
ATOM      4  C   UNL     1      33.722 -13.164 -23.333  0.00  0.00    +0.037 C 
ATOM      5  C   UNL     1      32.010 -12.510 -21.759  0.00  0.00    +0.037 C 
ATOM      6  C   UNL     1      32.816 -13.498 -22.325  0.00  0.00    +0.139 C 
ENDROOT
BRANCH   1  14
ATOM      7  O   UNL     1      30.231  -7.367 -23.704  0.00  0.00    -0.275 OA
ATOM      8  N   UNL     1      31.877  -8.943 -24.240  0.00  0.00    -0.302 N 
ATOM      9  C   UNL     1      32.194  -7.663 -22.392  0.00  0.00    +0.081 C 
ATOM     10  C   UNL     1      31.632  -7.491 -21.024  0.00  0.00    +0.108 C 
ATOM     11  C   UNL     1      32.233  -6.320 -21.756  0.00  0.00    +0.021 C 
ATOM     12  C   UNL     1      33.460  -8.421 -22.554  0.00  0.00    +0.033 C 
ATOM     13  C   UNL     1      31.292  -7.935 -23.498  0.00  0.00    +0.222 C 
ATOM     14  C   UNL     1      33.128  -9.425 -23.679  0.00  0.00    +0.095 C 
ATOM     15  H   UNL     1      31.484  -9.299 -25.070  0.00  0.00    +0.150 HD
BRANCH  10  17
ATOM     16  O   UNL     1      32.275  -9.019 -19.366  0.00  0.00    -0.250 OA
ATOM     17  C   UNL     1      32.387  -7.907 -19.861  0.00  0.00    +0.314 C 
BRANCH  17  18
ATOM     18  O   UNL     1      33.214  -6.938 -19.401  0.00  0.00    -0.480 OA
ATOM     19  H   UNL     1      32.859  -6.171 -18.998  0.00  0.00    +0.295 HD
ENDBRANCH  17  18
ENDBRANCH  10  17
ENDBRANCH   1  14
BRANCH   6  20
ATOM     20  O   UNL     1      32.716 -14.795 -21.894  0.00  0.00    -0.471 OA
BRANCH  20  21
ATOM     21  C   UNL     1      33.858 -15.347 -21.254  0.00  0.00    +0.229 C 
BRANCH  21  23
ATOM     22  N   UNL     1      34.497 -19.355 -22.608  0.00  0.00    -0.406 NA
ATOM     23  C   UNL     1      34.084 -16.737 -21.763  0.00  0.00    +0.012 C 
ATOM     24  C   UNL     1      34.263 -17.014 -23.125  0.00  0.00    +0.096 C 
ATOM     25  C   UNL     1      34.113 -17.765 -20.832  0.00  0.00    +0.028 C 
ATOM     26  C   UNL     1      34.470 -18.356 -23.509  0.00  0.00    +0.117 C 
ATOM     27  C   UNL     1      34.321 -19.046 -21.303  0.00  0.00    +0.130 C 
ATOM     28  C   UNL     1      34.239 -15.994 -24.093  0.00  0.00    -0.015 C 
ATOM     29  C   UNL     1      34.646 -18.629 -24.862  0.00  0.00    +0.028 C 
ATOM     30  C   UNL     1      34.419 -16.297 -25.439  0.00  0.00    -0.004 C 
ATOM     31  C   UNL     1      34.623 -17.616 -25.824  0.00  0.00    +0.002 C 
BRANCH  27  32
ATOM     32  C   UNL     1      34.364 -20.172 -20.401  0.00  0.00    +0.030 C 
ATOM     33  C   UNL     1      35.592 -20.713 -20.019  0.00  0.00    +0.003 C 
ATOM     34  C   UNL     1      33.179 -20.719 -19.910  0.00  0.00    +0.003 C 
ATOM     35  C   UNL     1      35.634 -21.801 -19.146  0.00  0.00    +0.000 C 
ATOM     36  C   UNL     1      33.221 -21.807 -19.038  0.00  0.00    +0.000 C 
ATOM     37  C   UNL     1      34.449 -22.348 -18.657  0.00  0.00    +0.000 C 
ENDBRANCH  27  32
ENDBRANCH  21  23
ENDBRANCH  20  21
ENDBRANCH   6  20
TORSDOF 7
ENDMDL
MODEL 5
REMARK VINA RESULT:     -11.9      5.195     12.627
REMARK  Name = 25049750
REMARK  7 active torsions:
REMARK  status: ('A' for Active; 'I' for Inactive)
REMARK    1  A    between atoms: C_1  and  C_14
REMARK    2  A    between atoms: C_6  and  O_20
REMARK    3  A    between atoms: C_10  and  C_17
REMARK    4  A    between atoms: C_17  and  O_18
REMARK    5  A    between atoms: O_20  and  C_21
REMARK    6  A    between atoms: C_21  and  C_23
REMARK    7  A    between atoms: C_27  and  C_32
REMARK                            x       y       z     vdW  Elec       q    Type
REMARK                         _______ _______ _______ _____ _____    ______ ____
ROOT
ATOM      1  C   UNL     1      34.622 -16.760 -22.808  0.00  0.00    -0.004 C 
ATOM      2  C   UNL     1      34.269 -16.409 -21.504  0.00  0.00    +0.000 C 
ATOM      3  C   UNL     1      34.253 -15.940 -23.874  0.00  0.00    +0.000 C 
ATOM      4  C   UNL     1      33.546 -15.240 -21.268  0.00  0.00    +0.037 C 
ATOM      5  C   UNL     1      33.531 -14.771 -23.637  0.00  0.00    +0.037 C 
ATOM      6  C   UNL     1      33.178 -14.420 -22.335  0.00  0.00    +0.139 C 
ENDROOT
BRANCH   1  14
ATOM      7  O   UNL     1      37.546 -19.295 -20.524  0.00  0.00    -0.275 OA
ATOM      8  N   UNL     1      36.642 -18.063 -22.298  0.00  0.00    -0.302 N 
ATOM      9  C   UNL     1      35.410 -19.775 -21.458  0.00  0.00    +0.081 C 
ATOM     10  C   UNL     1      34.650 -20.125 -20.225  0.00  0.00    +0.108 C 
ATOM     11  C   UNL     1      35.311 -21.200 -21.047  0.00  0.00    +0.021 C 
ATOM     12  C   UNL     1      34.659 -19.314 -22.653  0.00  0.00    +0.033 C 
ATOM     13  C   UNL     1      36.664 -19.052 -21.333  0.00  0.00    +0.222 C 
ATOM     14  C   UNL     1      35.407 -18.027 -23.063  0.00  0.00    +0.095 C 
ATOM     15  H   UNL     1      37.391 -17.442 -22.452  0.00  0.00    +0.150 HD
BRANCH  10  17
ATOM     16  O   UNL     1      32.516 -19.249 -20.643  0.00  0.00    -0.250 OA
ATOM     17  C   UNL     1      33.204 -20.177 -20.243  0.00  0.00    +0.314 C 
BRANCH  17  18
ATOM     18  O   UNL     1      32.718 -21.351 -19.773  0.00  0.00    -0.480 OA
ATOM     19  H   UNL     1      32.165 -21.361 -19.018  0.00  0.00    +0.295 HD
ENDBRANCH  17  18
ENDBRANCH  10  17
ENDBRANCH   1  14
BRANCH   6  20
ATOM     20  O   UNL     1      32.468 -13.271 -22.102  0.00  0.00    -0.471 OA
BRANCH  20  21
ATOM     21  C   UNL     1      32.327 -12.373 -23.194  0.00  0.00    +0.229 C 
BRANCH  21  23
ATOM     22  N   UNL     1      32.340  -8.322 -21.817  0.00  0.00    -0.406 NA
ATOM     23  C   UNL     1      32.322 -10.967 -22.678  0.00  0.00    +0.012 C 
ATOM     24  C   UNL     1      32.009 -10.662 -21.347  0.00  0.00    +0.096 C 
ATOM     25  C   UNL     1      32.642  -9.954 -23.571  0.00  0.00    +0.028 C 
ATOM     26  C   UNL     1      32.031  -9.307 -20.954  0.00  0.00    +0.117 C 
ATOM     27  C   UNL     1      32.636  -8.659 -23.093  0.00  0.00    +0.130 C 
ATOM     28  C   UNL     1      31.681 -11.666 -20.419  0.00  0.00    -0.015 C 
ATOM     29  C   UNL     1      31.719  -9.005 -19.631  0.00  0.00    +0.028 C 
ATOM     30  C   UNL     1      31.374 -11.335 -19.103  0.00  0.00    -0.004 C 
ATOM     31  C   UNL     1      31.394 -10.002 -18.709  0.00  0.00    +0.002 C 
BRANCH  27  32
ATOM     32  C   UNL     1      32.957  -7.547 -23.956  0.00  0.00    +0.030 C 
ATOM     33  C   UNL     1      34.253  -7.398 -24.450  0.00  0.00    +0.003 C 
ATOM     34  C   UNL     1      31.971  -6.620 -24.296  0.00  0.00    +0.003 C 
ATOM     35  C   UNL     1      34.563  -6.324 -25.284  0.00  0.00    +0.000 C 
ATOM     36  C   UNL     1      32.281  -5.546 -25.131  0.00  0.00    +0.000 C 
ATOM     37  C   UNL     1      33.577  -5.398 -25.624  0.00  0.00    +0.000 C 
ENDBRANCH  27  32
ENDBRANCH  21  23
ENDBRANCH  20  21
ENDBRANCH   6  20
TORSDOF 7
ENDMDL
MODEL 6
REMARK VINA RESULT:     -11.9      2.621     10.635
REMARK  Name = 25049750
REMARK  7 active torsions:
REMARK  status: ('A' for Active; 'I' for Inactive)
REMARK    1  A    between atoms: C_1  and  C_14
REMARK    2  A    between atoms: C_6  and  O_20
REMARK    3  A    between atoms: C_10  and  C_17
REMARK    4  A    between atoms: C_17  and  O_18
REMARK    5  A    between atoms: O_20  and  C_21
REMARK    6  A    between atoms: C_21  and  C_23
REMARK    7  A    between atoms: C_27  and  C_32
REMARK                            x       y       z     vdW  Elec       q    Type
REMARK                         _______ _______ _______ _____ _____    ______ ____
ROOT
ATOM      1  C   UNL     1      34.622 -21.639 -19.268  0.00  0.00    -0.004 C 
ATOM      2  C   UNL     1      35.662 -20.885 -19.815  0.00  0.00    +0.000 C 
ATOM      3  C   UNL     1      33.298 -21.256 -19.481  0.00  0.00    +0.000 C 
ATOM      4  C   UNL     1      35.376 -19.750 -20.573  0.00  0.00    +0.037 C 
ATOM      5  C   UNL     1      33.013 -20.121 -20.239  0.00  0.00    +0.037 C 
ATOM      6  C   UNL     1      34.052 -19.368 -20.786  0.00  0.00    +0.139 C 
ENDROOT
BRANCH   1  14
ATOM      7  O   UNL     1      35.340 -22.563 -14.930  0.00  0.00    -0.275 OA
ATOM      8  N   UNL     1      35.684 -22.544 -17.246  0.00  0.00    -0.302 N 
ATOM      9  C   UNL     1      33.699 -23.332 -16.472  0.00  0.00    +0.081 C 
ATOM     10  C   UNL     1      32.459 -22.829 -15.818  0.00  0.00    +0.108 C 
ATOM     11  C   UNL     1      32.947 -24.230 -15.557  0.00  0.00    +0.021 C 
ATOM     12  C   UNL     1      33.677 -23.606 -17.931  0.00  0.00    +0.033 C 
ATOM     13  C   UNL     1      34.982 -22.774 -16.078  0.00  0.00    +0.222 C 
ATOM     14  C   UNL     1      34.932 -22.870 -18.447  0.00  0.00    +0.095 C 
ATOM     15  H   UNL     1      36.604 -22.195 -17.262  0.00  0.00    +0.150 HD
BRANCH  10  17
ATOM     16  O   UNL     1      31.041 -22.012 -17.497  0.00  0.00    -0.250 OA
ATOM     17  C   UNL     1      31.214 -22.768 -16.552  0.00  0.00    +0.314 C 
BRANCH  17  18
ATOM     18  O   UNL     1      30.284 -23.632 -16.077  0.00  0.00    -0.480 OA
ATOM     19  H   UNL     1      29.467 -23.734 -16.524  0.00  0.00    +0.295 HD
ENDBRANCH  17  18
ENDBRANCH  10  17
ENDBRANCH   1  14
BRANCH   6  20
ATOM     20  O   UNL     1      33.771 -18.252 -21.531  0.00  0.00    -0.471 OA
BRANCH  20  21
ATOM     21  C   UNL     1      34.398 -17.041 -21.133  0.00  0.00    +0.229 C 
BRANCH  21  23
ATOM     22  N   UNL     1      32.760 -13.754 -23.328  0.00  0.00    -0.406 NA
ATOM     23  C   UNL     1      33.834 -15.909 -21.933  0.00  0.00    +0.012 C 
ATOM     24  C   UNL     1      33.837 -15.910 -23.334  0.00  0.00    +0.096 C 
ATOM     25  C   UNL     1      33.296 -14.836 -21.236  0.00  0.00    +0.028 C 
ATOM     26  C   UNL     1      33.282 -14.797 -24.000  0.00  0.00    +0.117 C 
ATOM     27  C   UNL     1      32.776 -13.792 -21.976  0.00  0.00    +0.130 C 
ATOM     28  C   UNL     1      34.374 -16.982 -24.068  0.00  0.00    -0.015 C 
ATOM     29  C   UNL     1      33.287 -14.799 -25.392  0.00  0.00    +0.028 C 
ATOM     30  C   UNL     1      34.365 -16.957 -25.459  0.00  0.00    -0.004 C 
ATOM     31  C   UNL     1      33.820 -15.865 -26.122  0.00  0.00    +0.002 C 
BRANCH  27  32
ATOM     32  C   UNL     1      32.199 -12.638 -21.330  0.00  0.00    +0.030 C 
ATOM     33  C   UNL     1      32.081 -12.603 -19.940  0.00  0.00    +0.003 C 
ATOM     34  C   UNL     1      31.759 -11.557 -22.094  0.00  0.00    +0.003 C 
ATOM     35  C   UNL     1      31.524 -11.487 -19.314  0.00  0.00    +0.000 C 
ATOM     36  C   UNL     1      31.201 -10.442 -21.468  0.00  0.00    +0.000 C 
ATOM     37  C   UNL     1      31.083 -10.408 -20.079  0.00  0.00    +0.000 C 
ENDBRANCH  27  32
ENDBRANCH  21  23
ENDBRANCH  20  21
ENDBRANCH   6  20
TORSDOF 7
ENDMDL
MODEL 7
REMARK VINA RESULT:     -11.3      4.917     12.399
REMARK  Name = 25049750
REMARK  7 active torsions:
REMARK  status: ('A' for Active; 'I' for Inactive)
REMARK    1  A    between atoms: C_1  and  C_14
REMARK    2  A    between atoms: C_6  and  O_20
REMARK    3  A    between atoms: C_10  and  C_17
REMARK    4  A    between atoms: C_17  and  O_18
REMARK    5  A    between atoms: O_20  and  C_21
REMARK    6  A    between atoms: C_21  and  C_23
REMARK    7  A    between atoms: C_27  and  C_32
REMARK                            x       y       z     vdW  Elec       q    Type
REMARK                         _______ _______ _______ _____ _____    ______ ____
ROOT
ATOM      1  C   UNL     1      34.886 -17.140 -22.586  0.00  0.00    -0.004 C 
ATOM      2  C   UNL     1      34.524 -16.634 -21.337  0.00  0.00    +0.000 C 
ATOM      3  C   UNL     1      34.478 -16.484 -23.748  0.00  0.00    +0.000 C 
ATOM      4  C   UNL     1      33.753 -15.475 -21.250  0.00  0.00    +0.037 C 
ATOM      5  C   UNL     1      33.708 -15.325 -23.661  0.00  0.00    +0.037 C 
ATOM      6  C   UNL     1      33.345 -14.820 -22.412  0.00  0.00    +0.139 C 
ENDROOT
BRANCH   1  14
ATOM      7  O   UNL     1      37.403 -19.590 -19.785  0.00  0.00    -0.275 OA
ATOM      8  N   UNL     1      36.805 -18.398 -21.709  0.00  0.00    -0.302 N 
ATOM      9  C   UNL     1      35.472 -20.121 -21.070  0.00  0.00    +0.081 C 
ATOM     10  C   UNL     1      34.514 -20.469 -19.984  0.00  0.00    +0.108 C 
ATOM     11  C   UNL     1      35.325 -21.543 -20.660  0.00  0.00    +0.021 C 
ATOM     12  C   UNL     1      34.935 -19.691 -22.385  0.00  0.00    +0.033 C 
ATOM     13  C   UNL     1      36.673 -19.374 -20.739  0.00  0.00    +0.222 C 
ATOM     14  C   UNL     1      35.723 -18.396 -22.679  0.00  0.00    +0.095 C 
ATOM     15  H   UNL     1      37.560 -17.766 -21.740  0.00  0.00    +0.150 HD
BRANCH  10  17
ATOM     16  O   UNL     1      32.478 -21.603 -20.243  0.00  0.00    -0.250 OA
ATOM     17  C   UNL     1      33.094 -20.547 -20.253  0.00  0.00    +0.314 C 
BRANCH  17  18
ATOM     18  O   UNL     1      32.543 -19.335 -20.510  0.00  0.00    -0.480 OA
ATOM     19  H   UNL     1      31.628 -19.198 -20.372  0.00  0.00    +0.295 HD
ENDBRANCH  17  18
ENDBRANCH  10  17
ENDBRANCH   1  14
BRANCH   6  20
ATOM     20  O   UNL     1      32.588 -13.681 -22.327  0.00  0.00    -0.471 OA
BRANCH  20  21
ATOM     21  C   UNL     1      32.213 -13.068 -23.553  0.00  0.00    +0.229 C 
BRANCH  21  23
ATOM     22  N   UNL     1      33.872  -9.125 -23.664  0.00  0.00    -0.406 NA
ATOM     23  C   UNL     1      32.813 -11.698 -23.622  0.00  0.00    +0.012 C 
ATOM     24  C   UNL     1      33.734 -11.335 -24.615  0.00  0.00    +0.096 C 
ATOM     25  C   UNL     1      32.427 -10.778 -22.658  0.00  0.00    +0.028 C 
ATOM     26  C   UNL     1      34.245 -10.020 -24.598  0.00  0.00    +0.117 C 
ATOM     27  C   UNL     1      32.982  -9.515 -22.724  0.00  0.00    +0.130 C 
ATOM     28  C   UNL     1      34.144 -12.245 -25.605  0.00  0.00    -0.015 C 
ATOM     29  C   UNL     1      35.159  -9.662 -25.584  0.00  0.00    +0.028 C 
ATOM     30  C   UNL     1      35.060 -11.859 -26.579  0.00  0.00    -0.004 C 
ATOM     31  C   UNL     1      35.567 -10.565 -26.569  0.00  0.00    +0.002 C 
BRANCH  27  32
ATOM     32  C   UNL     1      32.634  -8.499 -21.759  0.00  0.00    +0.030 C 
ATOM     33  C   UNL     1      32.611  -7.156 -22.138  0.00  0.00    +0.003 C 
ATOM     34  C   UNL     1      32.320  -8.859 -20.449  0.00  0.00    +0.003 C 
ATOM     35  C   UNL     1      32.274  -6.174 -21.206  0.00  0.00    +0.000 C 
ATOM     36  C   UNL     1      31.983  -7.877 -19.517  0.00  0.00    +0.000 C 
ATOM     37  C   UNL     1      31.961  -6.535 -19.896  0.00  0.00    +0.000 C 
ENDBRANCH  27  32
ENDBRANCH  21  23
ENDBRANCH  20  21
ENDBRANCH   6  20
TORSDOF 7
ENDMDL
