MODEL 1
REMARK VINA RESULT:      -8.3      0.000      0.000
REMARK  Name = 10083
REMARK  4 active torsions:
REMARK  status: ('A' for Active; 'I' for Inactive)
REMARK    1  A    between atoms: C_1  and  C_3
REMARK    2  A    between atoms: C_1  and  C_10
REMARK    3  A    between atoms: C_1  and  C_16
REMARK    4  A    between atoms: C_1  and  O_22
REMARK                            x       y       z     vdW  Elec       q    Type
REMARK                         _______ _______ _______ _____ _____    ______ ____
ROOT
ATOM      1  C   UNL     1      34.869 -23.562 -14.942  0.00  0.00    +0.108 C 
ENDROOT
BRANCH   1   3
ATOM      2  N   UNL     1      32.651 -22.592 -14.637  0.00  0.00    +0.387 N 
ATOM      3  C   UNL     1      33.370 -23.847 -14.893  0.00  0.00    -0.029 C 
ATOM      4  C   UNL     1      33.054 -24.886 -13.810  0.00  0.00    -0.018 C 
ATOM      5  C   UNL     1      31.551 -25.123 -13.693  0.00  0.00    -0.004 C 
ATOM      6  C   UNL     1      30.812 -23.801 -13.513  0.00  0.00    -0.023 C 
ATOM      7  C   UNL     1      31.203 -22.798 -14.595  0.00  0.00    -0.082 C 
ATOM      8  H   UNL     1      32.870 -21.928 -15.380  0.00  0.00    -0.084 HD
ATOM      9  H   UNL     1      32.948 -22.235 -13.728  0.00  0.00    -0.084 HD
ENDBRANCH   1   3
BRANCH   1  10
ATOM     10  C   UNL     1      35.229 -22.929 -16.298  0.00  0.00    +0.004 C 
ATOM     11  C   UNL     1      36.462 -22.342 -16.434  0.00  0.00    -0.002 C 
ATOM     12  C   UNL     1      34.302 -22.983 -17.308  0.00  0.00    -0.002 C 
ATOM     13  C   UNL     1      36.789 -21.769 -17.663  0.00  0.00    -0.000 C 
ATOM     14  C   UNL     1      34.629 -22.409 -18.536  0.00  0.00    -0.000 C 
ATOM     15  C   UNL     1      35.873 -21.803 -18.714  0.00  0.00    -0.000 C 
ENDBRANCH   1  10
BRANCH   1  16
ATOM     16  C   UNL     1      35.780 -24.766 -14.646  0.00  0.00    +0.004 C 
ATOM     17  C   UNL     1      35.848 -25.775 -15.573  0.00  0.00    -0.002 C 
ATOM     18  C   UNL     1      36.484 -24.775 -13.468  0.00  0.00    -0.002 C 
ATOM     19  C   UNL     1      36.673 -26.867 -15.305  0.00  0.00    -0.000 C 
ATOM     20  C   UNL     1      37.310 -25.867 -13.199  0.00  0.00    -0.000 C 
ATOM     21  C   UNL     1      37.405 -26.912 -14.119  0.00  0.00    -0.000 C 
ENDBRANCH   1  16
BRANCH   1  22
ATOM     22  O   UNL     1      35.093 -22.604 -13.885  0.00  0.00    -0.381 OA
ATOM     23  H   UNL     1      34.242 -22.247 -13.586  0.00  0.00    +0.211 HD
ENDBRANCH   1  22
TORSDOF 4
ENDMDL
MODEL 2
REMARK VINA RESULT:      -7.9      1.138      5.043
REMARK  Name = 10083
REMARK  4 active torsions:
REMARK  status: ('A' for Active; 'I' for Inactive)
REMARK    1  A    between atoms: C_1  and  C_3
REMARK    2  A    between atoms: C_1  and  C_10
REMARK    3  A    between atoms: C_1  and  C_16
REMARK    4  A    between atoms: C_1  and  O_22
REMARK                            x       y       z     vdW  Elec       q    Type
REMARK                         _______ _______ _______ _____ _____    ______ ____
ROOT
ATOM      1  C   UNL     1      34.710 -23.679 -14.622  0.00  0.00    +0.108 C 
ENDROOT
BRANCH   1   3
ATOM      2  N   UNL     1      36.413 -24.812 -13.292  0.00  0.00    +0.387 N 
ATOM      3  C   UNL     1      35.387 -25.015 -14.323  0.00  0.00    -0.029 C 
ATOM      4  C   UNL     1      36.005 -25.604 -15.598  0.00  0.00    -0.018 C 
ATOM      5  C   UNL     1      36.755 -26.900 -15.301  0.00  0.00    -0.004 C 
ATOM      6  C   UNL     1      37.756 -26.692 -14.171  0.00  0.00    -0.023 C 
ATOM      7  C   UNL     1      37.089 -26.065 -12.949  0.00  0.00    -0.082 C 
ATOM      8  H   UNL     1      35.971 -24.435 -12.454  0.00  0.00    -0.084 HD
ATOM      9  H   UNL     1      37.111 -24.165 -13.660  0.00  0.00    -0.084 HD
ENDBRANCH   1   3
BRANCH   1  10
ATOM     10  C   UNL     1      33.193 -23.809 -14.396  0.00  0.00    +0.004 C 
ATOM     11  C   UNL     1      32.394 -22.744 -14.725  0.00  0.00    -0.002 C 
ATOM     12  C   UNL     1      32.710 -24.985 -13.879  0.00  0.00    -0.002 C 
ATOM     13  C   UNL     1      31.019 -22.861 -14.521  0.00  0.00    -0.000 C 
ATOM     14  C   UNL     1      31.336 -25.101 -13.675  0.00  0.00    -0.000 C 
ATOM     15  C   UNL     1      30.490 -24.040 -13.997  0.00  0.00    -0.000 C 
ENDBRANCH   1  10
BRANCH   1  16
ATOM     16  C   UNL     1      35.003 -23.088 -16.012  0.00  0.00    +0.004 C 
ATOM     17  C   UNL     1      34.048 -23.215 -16.989  0.00  0.00    -0.002 C 
ATOM     18  C   UNL     1      36.207 -22.458 -16.210  0.00  0.00    -0.002 C 
ATOM     19  C   UNL     1      34.314 -22.679 -18.248  0.00  0.00    -0.000 C 
ATOM     20  C   UNL     1      36.472 -21.922 -17.470  0.00  0.00    -0.000 C 
ATOM     21  C   UNL     1      35.525 -22.032 -18.489  0.00  0.00    -0.000 C 
ENDBRANCH   1  16
BRANCH   1  22
ATOM     22  O   UNL     1      35.268 -22.763 -13.656  0.00  0.00    -0.381 OA
ATOM     23  H   UNL     1      35.490 -23.245 -12.844  0.00  0.00    +0.211 HD
ENDBRANCH   1  22
TORSDOF 4
ENDMDL
MODEL 3
REMARK VINA RESULT:      -7.9      1.430      4.505
REMARK  Name = 10083
REMARK  4 active torsions:
REMARK  status: ('A' for Active; 'I' for Inactive)
REMARK    1  A    between atoms: C_1  and  C_3
REMARK    2  A    between atoms: C_1  and  C_10
REMARK    3  A    between atoms: C_1  and  C_16
REMARK    4  A    between atoms: C_1  and  O_22
REMARK                            x       y       z     vdW  Elec       q    Type
REMARK                         _______ _______ _______ _____ _____    ______ ____
ROOT
ATOM      1  C   UNL     1      34.992 -24.066 -15.129  0.00  0.00    +0.108 C 
ENDROOT
BRANCH   1   3
ATOM      2  N   UNL     1      34.751 -23.131 -17.370  0.00  0.00    +0.387 N 
ATOM      3  C   UNL     1      35.292 -22.870 -16.030  0.00  0.00    -0.029 C 
ATOM      4  C   UNL     1      36.802 -22.609 -16.093  0.00  0.00    -0.018 C 
ATOM      5  C   UNL     1      37.127 -21.467 -17.053  0.00  0.00    -0.004 C 
ATOM      6  C   UNL     1      36.487 -21.714 -18.415  0.00  0.00    -0.023 C 
ATOM      7  C   UNL     1      34.995 -22.009 -18.279  0.00  0.00    -0.082 C 
ATOM      8  H   UNL     1      33.746 -23.285 -17.297  0.00  0.00    -0.084 HD
ATOM      9  H   UNL     1      35.222 -23.954 -17.748  0.00  0.00    -0.084 HD
ENDBRANCH   1   3
BRANCH   1  10
ATOM     10  C   UNL     1      33.530 -23.995 -14.651  0.00  0.00    +0.004 C 
ATOM     11  C   UNL     1      32.811 -22.859 -14.927  0.00  0.00    -0.002 C 
ATOM     12  C   UNL     1      33.014 -25.070 -13.973  0.00  0.00    -0.002 C 
ATOM     13  C   UNL     1      31.486 -22.795 -14.495  0.00  0.00    -0.000 C 
ATOM     14  C   UNL     1      31.690 -25.005 -13.541  0.00  0.00    -0.000 C 
ATOM     15  C   UNL     1      30.926 -23.868 -13.802  0.00  0.00    -0.000 C 
ENDBRANCH   1  10
BRANCH   1  16
ATOM     16  C   UNL     1      35.945 -24.250 -13.936  0.00  0.00    +0.004 C 
ATOM     17  C   UNL     1      36.746 -25.363 -13.908  0.00  0.00    -0.002 C 
ATOM     18  C   UNL     1      35.951 -23.290 -12.954  0.00  0.00    -0.002 C 
ATOM     19  C   UNL     1      37.610 -25.530 -12.826  0.00  0.00    -0.000 C 
ATOM     20  C   UNL     1      36.815 -23.457 -11.872  0.00  0.00    -0.000 C 
ATOM     21  C   UNL     1      37.645 -24.577 -11.809  0.00  0.00    -0.000 C 
ENDBRANCH   1  16
BRANCH   1  22
ATOM     22  O   UNL     1      35.167 -25.218 -15.982  0.00  0.00    -0.381 OA
ATOM     23  H   UNL     1      36.080 -25.243 -16.307  0.00  0.00    +0.211 HD
ENDBRANCH   1  22
TORSDOF 4
ENDMDL
MODEL 4
REMARK VINA RESULT:      -7.7     14.920     17.423
REMARK  Name = 10083
REMARK  4 active torsions:
REMARK  status: ('A' for Active; 'I' for Inactive)
REMARK    1  A    between atoms: C_1  and  C_3
REMARK    2  A    between atoms: C_1  and  C_10
REMARK    3  A    between atoms: C_1  and  C_16
REMARK    4  A    between atoms: C_1  and  O_22
REMARK                            x       y       z     vdW  Elec       q    Type
REMARK                         _______ _______ _______ _____ _____    ______ ____
ROOT
ATOM      1  C   UNL     1      32.860  -8.461 -22.360  0.00  0.00    +0.108 C 
ENDROOT
BRANCH   1   3
ATOM      2  N   UNL     1      32.725  -6.744 -24.089  0.00  0.00    +0.387 N 
ATOM      3  C   UNL     1      31.967  -7.416 -23.025  0.00  0.00    -0.029 C 
ATOM      4  C   UNL     1      31.465  -6.400 -21.991  0.00  0.00    -0.018 C 
ATOM      5  C   UNL     1      30.636  -5.302 -22.651  0.00  0.00    -0.004 C 
ATOM      6  C   UNL     1      31.406  -4.673 -23.808  0.00  0.00    -0.023 C 
ATOM      7  C   UNL     1      31.915  -5.738 -24.776  0.00  0.00    -0.082 C 
ATOM      8  H   UNL     1      33.032  -7.442 -24.767  0.00  0.00    -0.084 HD
ATOM      9  H   UNL     1      33.523  -6.273 -23.662  0.00  0.00    -0.084 HD
ENDBRANCH   1   3
BRANCH   1  10
ATOM     10  C   UNL     1      33.579  -9.286 -23.442  0.00  0.00    +0.004 C 
ATOM     11  C   UNL     1      34.728  -8.776 -23.992  0.00  0.00    -0.002 C 
ATOM     12  C   UNL     1      33.040 -10.495 -23.807  0.00  0.00    -0.002 C 
ATOM     13  C   UNL     1      35.381  -9.523 -24.972  0.00  0.00    -0.000 C 
ATOM     14  C   UNL     1      33.692 -11.241 -24.787  0.00  0.00    -0.000 C 
ATOM     15  C   UNL     1      34.864 -10.756 -25.369  0.00  0.00    -0.000 C 
ENDBRANCH   1  10
BRANCH   1  16
ATOM     16  C   UNL     1      32.156  -9.386 -21.352  0.00  0.00    +0.004 C 
ATOM     17  C   UNL     1      31.311 -10.353 -21.834  0.00  0.00    -0.002 C 
ATOM     18  C   UNL     1      32.406  -9.200 -20.015  0.00  0.00    -0.002 C 
ATOM     19  C   UNL     1      30.673 -11.191 -20.920  0.00  0.00    -0.000 C 
ATOM     20  C   UNL     1      31.768 -10.037 -19.100  0.00  0.00    -0.000 C 
ATOM     21  C   UNL     1      30.902 -11.033 -19.553  0.00  0.00    -0.000 C 
ENDBRANCH   1  16
BRANCH   1  22
ATOM     22  O   UNL     1      33.827  -7.693 -21.614  0.00  0.00    -0.381 OA
ATOM     23  H   UNL     1      33.397  -6.912 -21.234  0.00  0.00    +0.211 HD
ENDBRANCH   1  22
TORSDOF 4
ENDMDL
MODEL 5
REMARK VINA RESULT:      -7.7      1.796      4.206
REMARK  Name = 10083
REMARK  4 active torsions:
REMARK  status: ('A' for Active; 'I' for Inactive)
REMARK    1  A    between atoms: C_1  and  C_3
REMARK    2  A    between atoms: C_1  and  C_10
REMARK    3  A    between atoms: C_1  and  C_16
REMARK    4  A    between atoms: C_1  and  O_22
REMARK                            x       y       z     vdW  Elec       q    Type
REMARK                         _______ _______ _______ _____ _____    ______ ____
ROOT
ATOM      1  C   UNL     1      34.995 -24.074 -15.261  0.00  0.00    +0.108 C 
ENDROOT
BRANCH   1   3
ATOM      2  N   UNL     1      37.096 -24.815 -14.266  0.00  0.00    +0.387 N 
ATOM      3  C   UNL     1      36.098 -23.737 -14.261  0.00  0.00    -0.029 C 
ATOM      4  C   UNL     1      35.512 -23.544 -12.856  0.00  0.00    -0.018 C 
ATOM      5  C   UNL     1      36.611 -23.285 -11.829  0.00  0.00    -0.004 C 
ATOM      6  C   UNL     1      37.682 -24.367 -11.906  0.00  0.00    -0.023 C 
ATOM      7  C   UNL     1      38.192 -24.540 -13.335  0.00  0.00    -0.082 C 
ATOM      8  H   UNL     1      37.477 -24.909 -15.207  0.00  0.00    -0.084 HD
ATOM      9  H   UNL     1      36.635 -25.676 -13.969  0.00  0.00    -0.084 HD
ENDBRANCH   1   3
BRANCH   1  10
ATOM     10  C   UNL     1      35.165 -23.213 -16.524  0.00  0.00    +0.004 C 
ATOM     11  C   UNL     1      36.311 -22.471 -16.655  0.00  0.00    -0.002 C 
ATOM     12  C   UNL     1      34.163 -23.228 -17.463  0.00  0.00    -0.002 C 
ATOM     13  C   UNL     1      36.467 -21.691 -17.801  0.00  0.00    -0.000 C 
ATOM     14  C   UNL     1      34.319 -22.447 -18.607  0.00  0.00    -0.000 C 
ATOM     15  C   UNL     1      35.471 -21.679 -18.777  0.00  0.00    -0.000 C 
ENDBRANCH   1  10
BRANCH   1  16
ATOM     16  C   UNL     1      33.558 -23.967 -14.720  0.00  0.00    +0.004 C 
ATOM     17  C   UNL     1      32.896 -22.775 -14.863  0.00  0.00    -0.002 C 
ATOM     18  C   UNL     1      33.005 -25.071 -14.120  0.00  0.00    -0.002 C 
ATOM     19  C   UNL     1      31.594 -22.678 -14.372  0.00  0.00    -0.000 C 
ATOM     20  C   UNL     1      31.703 -24.975 -13.630  0.00  0.00    -0.000 C 
ATOM     21  C   UNL     1      30.997 -23.778 -13.757  0.00  0.00    -0.000 C 
ENDBRANCH   1  16
BRANCH   1  22
ATOM     22  O   UNL     1      35.212 -25.464 -15.588  0.00  0.00    -0.381 OA
ATOM     23  H   UNL     1      35.143 -26.000 -14.784  0.00  0.00    +0.211 HD
ENDBRANCH   1  22
TORSDOF 4
ENDMDL
MODEL 6
REMARK VINA RESULT:      -7.6      1.430      4.377
REMARK  Name = 10083
REMARK  4 active torsions:
REMARK  status: ('A' for Active; 'I' for Inactive)
REMARK    1  A    between atoms: C_1  and  C_3
REMARK    2  A    between atoms: C_1  and  C_10
REMARK    3  A    between atoms: C_1  and  C_16
REMARK    4  A    between atoms: C_1  and  O_22
REMARK                            x       y       z     vdW  Elec       q    Type
REMARK                         _______ _______ _______ _____ _____    ______ ____
ROOT
ATOM      1  C   UNL     1      35.140 -24.224 -14.867  0.00  0.00    +0.108 C 
ENDROOT
BRANCH   1   3
ATOM      2  N   UNL     1      33.055 -25.237 -14.106  0.00  0.00    +0.387 N 
ATOM      3  C   UNL     1      33.786 -23.967 -14.210  0.00  0.00    -0.029 C 
ATOM      4  C   UNL     1      32.981 -22.941 -15.018  0.00  0.00    -0.018 C 
ATOM      5  C   UNL     1      31.592 -22.733 -14.420  0.00  0.00    -0.004 C 
ATOM      6  C   UNL     1      30.881 -24.069 -14.239  0.00  0.00    -0.023 C 
ATOM      7  C   UNL     1      31.751 -25.058 -13.467  0.00  0.00    -0.082 C 
ATOM      8  H   UNL     1      33.608 -25.892 -13.552  0.00  0.00    -0.084 HD
ATOM      9  H   UNL     1      32.901 -25.594 -15.049  0.00  0.00    -0.084 HD
ENDBRANCH   1   3
BRANCH   1  10
ATOM     10  C   UNL     1      36.248 -24.168 -13.800  0.00  0.00    +0.004 C 
ATOM     11  C   UNL     1      36.091 -23.304 -12.746  0.00  0.00    -0.002 C 
ATOM     12  C   UNL     1      37.340 -24.985 -13.952  0.00  0.00    -0.002 C 
ATOM     13  C   UNL     1      37.094 -23.253 -11.778  0.00  0.00    -0.000 C 
ATOM     14  C   UNL     1      38.343 -24.933 -12.985  0.00  0.00    -0.000 C 
ATOM     15  C   UNL     1      38.220 -24.068 -11.897  0.00  0.00    -0.000 C 
ENDBRANCH   1  10
BRANCH   1  16
ATOM     16  C   UNL     1      35.483 -23.307 -16.054  0.00  0.00    +0.004 C 
ATOM     17  C   UNL     1      36.653 -22.592 -16.008  0.00  0.00    -0.002 C 
ATOM     18  C   UNL     1      34.602 -23.247 -17.105  0.00  0.00    -0.002 C 
ATOM     19  C   UNL     1      36.963 -21.761 -17.084  0.00  0.00    -0.000 C 
ATOM     20  C   UNL     1      34.912 -22.415 -18.181  0.00  0.00    -0.000 C 
ATOM     21  C   UNL     1      36.093 -21.673 -18.171  0.00  0.00    -0.000 C 
ENDBRANCH   1  16
BRANCH   1  22
ATOM     22  O   UNL     1      35.042 -25.564 -15.394  0.00  0.00    -0.381 OA
ATOM     23  H   UNL     1      34.158 -25.919 -15.212  0.00  0.00    +0.211 HD
ENDBRANCH   1  22
TORSDOF 4
ENDMDL
MODEL 7
REMARK VINA RESULT:      -7.5      1.105      5.042
REMARK  Name = 10083
REMARK  4 active torsions:
REMARK  status: ('A' for Active; 'I' for Inactive)
REMARK    1  A    between atoms: C_1  and  C_3
REMARK    2  A    between atoms: C_1  and  C_10
REMARK    3  A    between atoms: C_1  and  C_16
REMARK    4  A    between atoms: C_1  and  O_22
REMARK                            x       y       z     vdW  Elec       q    Type
REMARK                         _______ _______ _______ _____ _____    ______ ____
ROOT
ATOM      1  C   UNL     1      34.671 -23.500 -15.128  0.00  0.00    +0.108 C 
ENDROOT
BRANCH   1   3
ATOM      2  N   UNL     1      35.784 -22.219 -16.882  0.00  0.00    +0.387 N 
ATOM      3  C   UNL     1      34.886 -23.354 -16.633  0.00  0.00    -0.029 C 
ATOM      4  C   UNL     1      33.545 -23.154 -17.351  0.00  0.00    -0.018 C 
ATOM      5  C   UNL     1      33.747 -22.925 -18.847  0.00  0.00    -0.004 C 
ATOM      6  C   UNL     1      34.747 -21.800 -19.087  0.00  0.00    -0.023 C 
ATOM      7  C   UNL     1      36.041 -22.037 -18.311  0.00  0.00    -0.082 C 
ATOM      8  H   UNL     1      36.670 -22.387 -16.405  0.00  0.00    -0.084 HD
ATOM      9  H   UNL     1      35.334 -21.373 -16.530  0.00  0.00    -0.084 HD
ENDBRANCH   1   3
BRANCH   1  10
ATOM     10  C   UNL     1      35.583 -24.614 -14.585  0.00  0.00    +0.004 C 
ATOM     11  C   UNL     1      35.941 -25.631 -15.434  0.00  0.00    -0.002 C 
ATOM     12  C   UNL     1      35.997 -24.539 -13.279  0.00  0.00    -0.002 C 
ATOM     13  C   UNL     1      36.769 -26.642 -14.943  0.00  0.00    -0.000 C 
ATOM     14  C   UNL     1      36.823 -25.549 -12.789  0.00  0.00    -0.000 C 
ATOM     15  C   UNL     1      37.210 -26.600 -13.620  0.00  0.00    -0.000 C 
ENDBRANCH   1  10
BRANCH   1  16
ATOM     16  C   UNL     1      33.215 -23.727 -14.688  0.00  0.00    +0.004 C 
ATOM     17  C   UNL     1      32.864 -24.964 -14.211  0.00  0.00    -0.002 C 
ATOM     18  C   UNL     1      32.334 -22.679 -14.791  0.00  0.00    -0.002 C 
ATOM     19  C   UNL     1      31.544 -25.170 -13.811  0.00  0.00    -0.000 C 
ATOM     20  C   UNL     1      31.013 -22.885 -14.391  0.00  0.00    -0.000 C 
ATOM     21  C   UNL     1      30.619 -24.130 -13.901  0.00  0.00    -0.000 C 
ENDBRANCH   1  16
BRANCH   1  22
ATOM     22  O   UNL     1      35.079 -22.229 -14.577  0.00  0.00    -0.381 OA
ATOM     23  H   UNL     1      35.858 -22.356 -14.014  0.00  0.00    +0.211 HD
ENDBRANCH   1  22
TORSDOF 4
ENDMDL
MODEL 8
REMARK VINA RESULT:      -7.5      6.046      8.996
REMARK  Name = 10083
REMARK  4 active torsions:
REMARK  status: ('A' for Active; 'I' for Inactive)
REMARK    1  A    between atoms: C_1  and  C_3
REMARK    2  A    between atoms: C_1  and  C_10
REMARK    3  A    between atoms: C_1  and  C_16
REMARK    4  A    between atoms: C_1  and  O_22
REMARK                            x       y       z     vdW  Elec       q    Type
REMARK                         _______ _______ _______ _____ _____    ______ ____
ROOT
ATOM      1  C   UNL     1      34.938 -18.225 -21.260  0.00  0.00    +0.108 C 
ENDROOT
BRANCH   1   3
ATOM      2  N   UNL     1      32.820 -17.014 -21.187  0.00  0.00    +0.387 N 
ATOM      3  C   UNL     1      34.200 -17.019 -20.683  0.00  0.00    -0.029 C 
ATOM      4  C   UNL     1      34.921 -15.718 -21.058  0.00  0.00    -0.018 C 
ATOM      5  C   UNL     1      34.154 -14.497 -20.557  0.00  0.00    -0.004 C 
ATOM      6  C   UNL     1      32.701 -14.551 -21.019  0.00  0.00    -0.023 C 
ATOM      7  C   UNL     1      32.056 -15.885 -20.654  0.00  0.00    -0.082 C 
ATOM      8  H   UNL     1      32.364 -17.883 -20.910  0.00  0.00    -0.084 HD
ATOM      9  H   UNL     1      32.853 -16.925 -22.203  0.00  0.00    -0.084 HD
ENDBRANCH   1   3
BRANCH   1  10
ATOM     10  C   UNL     1      34.782 -18.239 -22.791  0.00  0.00    +0.004 C 
ATOM     11  C   UNL     1      34.838 -17.042 -23.460  0.00  0.00    -0.002 C 
ATOM     12  C   UNL     1      34.599 -19.446 -23.417  0.00  0.00    -0.002 C 
ATOM     13  C   UNL     1      34.698 -17.053 -24.848  0.00  0.00    -0.000 C 
ATOM     14  C   UNL     1      34.458 -19.457 -24.804  0.00  0.00    -0.000 C 
ATOM     15  C   UNL     1      34.509 -18.261 -25.520  0.00  0.00    -0.000 C 
ENDBRANCH   1  10
BRANCH   1  16
ATOM     16  C   UNL     1      34.544 -19.587 -20.663  0.00  0.00    +0.004 C 
ATOM     17  C   UNL     1      35.545 -20.440 -20.272  0.00  0.00    -0.002 C 
ATOM     18  C   UNL     1      33.209 -19.886 -20.547  0.00  0.00    -0.002 C 
ATOM     19  C   UNL     1      35.189 -21.675 -19.731  0.00  0.00    -0.000 C 
ATOM     20  C   UNL     1      32.853 -21.121 -20.005  0.00  0.00    -0.000 C 
ATOM     21  C   UNL     1      33.843 -22.015 -19.597  0.00  0.00    -0.000 C 
ENDBRANCH   1  16
BRANCH   1  22
ATOM     22  O   UNL     1      36.322 -18.005 -20.915  0.00  0.00    -0.381 OA
ATOM     23  H   UNL     1      36.877 -18.146 -21.698  0.00  0.00    +0.211 HD
ENDBRANCH   1  22
TORSDOF 4
ENDMDL
MODEL 9
REMARK VINA RESULT:      -7.4     14.622     17.327
REMARK  Name = 10083
REMARK  4 active torsions:
REMARK  status: ('A' for Active; 'I' for Inactive)
REMARK    1  A    between atoms: C_1  and  C_3
REMARK    2  A    between atoms: C_1  and  C_10
REMARK    3  A    between atoms: C_1  and  C_16
REMARK    4  A    between atoms: C_1  and  O_22
REMARK                            x       y       z     vdW  Elec       q    Type
REMARK                         _______ _______ _______ _____ _____    ______ ____
ROOT
ATOM      1  C   UNL     1      32.908  -8.281 -22.180  0.00  0.00    +0.108 C 
ENDROOT
BRANCH   1   3
ATOM      2  N   UNL     1      32.563  -9.135 -19.920  0.00  0.00    +0.387 N 
ATOM      3  C   UNL     1      31.950  -9.022 -21.251  0.00  0.00    -0.029 C 
ATOM      4  C   UNL     1      31.618 -10.410 -21.815  0.00  0.00    -0.018 C 
ATOM      5  C   UNL     1      30.724 -11.196 -20.859  0.00  0.00    -0.004 C 
ATOM      6  C   UNL     1      31.334 -11.230 -19.462  0.00  0.00    -0.023 C 
ATOM      7  C   UNL     1      31.682  -9.825 -18.977  0.00  0.00    -0.082 C 
ATOM      8  H   UNL     1      32.759  -8.198 -19.566  0.00  0.00    -0.084 HD
ATOM      9  H   UNL     1      33.421  -9.679 -20.010  0.00  0.00    -0.084 HD
ENDBRANCH   1   3
BRANCH   1  10
ATOM     10  C   UNL     1      32.182  -7.082 -22.816  0.00  0.00    +0.004 C 
ATOM     11  C   UNL     1      32.108  -5.914 -22.101  0.00  0.00    -0.002 C 
ATOM     12  C   UNL     1      31.646  -7.236 -24.070  0.00  0.00    -0.002 C 
ATOM     13  C   UNL     1      31.451  -4.826 -22.677  0.00  0.00    -0.000 C 
ATOM     14  C   UNL     1      30.989  -6.149 -24.644  0.00  0.00    -0.000 C 
ATOM     15  C   UNL     1      30.892  -4.944 -23.949  0.00  0.00    -0.000 C 
ENDBRANCH   1  10
BRANCH   1  16
ATOM     16  C   UNL     1      33.581  -9.145 -23.261  0.00  0.00    +0.004 C 
ATOM     17  C   UNL     1      33.031 -10.367 -23.553  0.00  0.00    -0.002 C 
ATOM     18  C   UNL     1      34.700  -8.652 -23.885  0.00  0.00    -0.002 C 
ATOM     19  C   UNL     1      33.640 -11.150 -24.533  0.00  0.00    -0.000 C 
ATOM     20  C   UNL     1      35.309  -9.435 -24.865  0.00  0.00    -0.000 C 
ATOM     21  C   UNL     1      34.779 -10.684 -25.189  0.00  0.00    -0.000 C 
ENDBRANCH   1  16
BRANCH   1  22
ATOM     22  O   UNL     1      33.962  -7.806 -21.314  0.00  0.00    -0.381 OA
ATOM     23  H   UNL     1      34.225  -8.514 -20.706  0.00  0.00    +0.211 HD
ENDBRANCH   1  22
TORSDOF 4
ENDMDL
