MODEL 1
REMARK VINA RESULT:      -6.5      0.000      0.000
REMARK  Name = 2310
REMARK  1 active torsions:
REMARK  status: ('A' for Active; 'I' for Inactive)
REMARK    1  A    between atoms: C_4  and  C_11
REMARK                            x       y       z     vdW  Elec       q    Type
REMARK                         _______ _______ _______ _____ _____    ______ ____
ROOT
ATOM      1  O   UNL     1      34.575 -15.003 -21.859  0.00  0.00    -0.275 OA
ATOM      2  O   UNL     1      34.722 -17.735 -25.562  0.00  0.00    -0.275 OA
ATOM      3  N   UNL     1      34.649 -16.395 -23.691  0.00  0.00    -0.255 N 
ATOM      4  C   UNL     1      35.072 -18.619 -22.033  0.00  0.00    +0.017 C 
ATOM      5  C   UNL     1      34.433 -17.356 -21.441  0.00  0.00    +0.086 C 
ATOM      6  C   UNL     1      34.513 -18.836 -23.446  0.00  0.00    +0.086 C 
ATOM      7  C   UNL     1      36.608 -18.502 -22.059  0.00  0.00    +0.001 C 
ATOM      8  C   UNL     1      34.576 -16.141 -22.327  0.00  0.00    +0.228 C 
ATOM      9  C   UNL     1      34.656 -17.625 -24.337  0.00  0.00    +0.228 C 
ATOM     10  H   UNL     1      34.701 -15.603 -24.274  0.00  0.00    +0.158 HD
ENDROOT
BRANCH   4  11
ATOM     11  C   UNL     1      34.699 -19.828 -21.156  0.00  0.00    +0.001 C 
ATOM     12  C   UNL     1      33.225 -19.813 -20.815  0.00  0.00    +0.000 C 
ENDBRANCH   4  11
TORSDOF 1
ENDMDL
MODEL 2
REMARK VINA RESULT:      -6.5     11.097     12.479
REMARK  Name = 2310
REMARK  1 active torsions:
REMARK  status: ('A' for Active; 'I' for Inactive)
REMARK    1  A    between atoms: C_4  and  C_11
REMARK                            x       y       z     vdW  Elec       q    Type
REMARK                         _______ _______ _______ _____ _____    ______ ____
ROOT
ATOM      1  O   UNL     1      35.255 -24.689  -9.723  0.00  0.00    -0.275 OA
ATOM      2  O   UNL     1      38.550 -22.281 -11.855  0.00  0.00    -0.275 OA
ATOM      3  N   UNL     1      36.891 -23.495 -10.817  0.00  0.00    -0.255 N 
ATOM      4  C   UNL     1      36.151 -24.651 -13.265  0.00  0.00    +0.017 C 
ATOM      5  C   UNL     1      35.138 -24.627 -12.113  0.00  0.00    +0.086 C 
ATOM      6  C   UNL     1      36.922 -23.324 -13.268  0.00  0.00    +0.086 C 
ATOM      7  C   UNL     1      37.113 -25.848 -13.132  0.00  0.00    +0.001 C 
ATOM      8  C   UNL     1      35.760 -24.300 -10.776  0.00  0.00    +0.228 C 
ATOM      9  C   UNL     1      37.548 -22.994 -11.934  0.00  0.00    +0.228 C 
ATOM     10  H   UNL     1      37.275 -23.246  -9.946  0.00  0.00    +0.158 HD
ENDROOT
BRANCH   4  11
ATOM     11  C   UNL     1      35.392 -24.792 -14.597  0.00  0.00    +0.001 C 
ATOM     12  C   UNL     1      35.058 -23.435 -15.175  0.00  0.00    +0.000 C 
ENDBRANCH   4  11
TORSDOF 1
ENDMDL
MODEL 3
REMARK VINA RESULT:      -6.4      3.391      4.299
REMARK  Name = 2310
REMARK  1 active torsions:
REMARK  status: ('A' for Active; 'I' for Inactive)
REMARK    1  A    between atoms: C_4  and  C_11
REMARK                            x       y       z     vdW  Elec       q    Type
REMARK                         _______ _______ _______ _____ _____    ______ ____
ROOT
ATOM      1  O   UNL     1      32.430 -20.590 -20.213  0.00  0.00    -0.275 OA
ATOM      2  O   UNL     1      37.002 -21.120 -20.108  0.00  0.00    -0.275 OA
ATOM      3  N   UNL     1      34.720 -20.826 -20.175  0.00  0.00    -0.255 N 
ATOM      4  C   UNL     1      35.019 -18.566 -21.812  0.00  0.00    +0.017 C 
ATOM      5  C   UNL     1      33.726 -18.738 -21.004  0.00  0.00    +0.086 C 
ATOM      6  C   UNL     1      36.201 -19.025 -20.948  0.00  0.00    +0.086 C 
ATOM      7  C   UNL     1      34.958 -19.360 -23.131  0.00  0.00    +0.001 C 
ATOM      8  C   UNL     1      33.548 -20.133 -20.450  0.00  0.00    +0.228 C 
ATOM      9  C   UNL     1      36.030 -20.420 -20.393  0.00  0.00    +0.228 C 
ATOM     10  H   UNL     1      34.608 -21.719 -19.775  0.00  0.00    +0.158 HD
ENDROOT
BRANCH   4  11
ATOM     11  C   UNL     1      35.200 -17.077 -22.156  0.00  0.00    +0.001 C 
ATOM     12  C   UNL     1      34.733 -16.198 -21.018  0.00  0.00    +0.000 C 
ENDBRANCH   4  11
TORSDOF 1
ENDMDL
MODEL 4
REMARK VINA RESULT:      -6.3      1.057      2.913
REMARK  Name = 2310
REMARK  1 active torsions:
REMARK  status: ('A' for Active; 'I' for Inactive)
REMARK    1  A    between atoms: C_4  and  C_11
REMARK                            x       y       z     vdW  Elec       q    Type
REMARK                         _______ _______ _______ _____ _____    ______ ____
ROOT
ATOM      1  O   UNL     1      34.341 -18.411 -24.877  0.00  0.00    -0.275 OA
ATOM      2  O   UNL     1      34.805 -15.611 -21.252  0.00  0.00    -0.275 OA
ATOM      3  N   UNL     1      34.581 -17.036 -23.046  0.00  0.00    -0.255 N 
ATOM      4  C   UNL     1      34.874 -19.263 -21.364  0.00  0.00    +0.017 C 
ATOM      5  C   UNL     1      35.158 -19.417 -22.864  0.00  0.00    +0.086 C 
ATOM      6  C   UNL     1      35.409 -17.901 -20.901  0.00  0.00    +0.086 C 
ATOM      7  C   UNL     1      33.367 -19.394 -21.069  0.00  0.00    +0.001 C 
ATOM      8  C   UNL     1      34.640 -18.265 -23.692  0.00  0.00    +0.228 C 
ATOM      9  C   UNL     1      34.892 -16.745 -21.724  0.00  0.00    +0.228 C 
ATOM     10  H   UNL     1      34.283 -16.275 -23.595  0.00  0.00    +0.158 HD
ENDROOT
BRANCH   4  11
ATOM     11  C   UNL     1      35.611 -20.377 -20.597  0.00  0.00    +0.001 C 
ATOM     12  C   UNL     1      34.648 -21.177 -19.750  0.00  0.00    +0.000 C 
ENDBRANCH   4  11
TORSDOF 1
ENDMDL
MODEL 5
REMARK VINA RESULT:      -6.2      9.329     10.518
REMARK  Name = 2310
REMARK  1 active torsions:
REMARK  status: ('A' for Active; 'I' for Inactive)
REMARK    1  A    between atoms: C_4  and  C_11
REMARK                            x       y       z     vdW  Elec       q    Type
REMARK                         _______ _______ _______ _____ _____    ______ ____
ROOT
ATOM      1  O   UNL     1      40.385 -14.248 -14.085  0.00  0.00    -0.275 OA
ATOM      2  O   UNL     1      41.783 -17.644 -16.860  0.00  0.00    -0.275 OA
ATOM      3  N   UNL     1      41.102 -15.924 -15.489  0.00  0.00    -0.255 N 
ATOM      4  C   UNL     1      42.270 -14.039 -17.208  0.00  0.00    +0.017 C 
ATOM      5  C   UNL     1      42.003 -13.654 -15.747  0.00  0.00    +0.086 C 
ATOM      6  C   UNL     1      42.760 -15.493 -17.250  0.00  0.00    +0.086 C 
ATOM      7  C   UNL     1      41.005 -13.857 -18.069  0.00  0.00    +0.001 C 
ATOM      8  C   UNL     1      41.075 -14.612 -15.037  0.00  0.00    +0.228 C 
ATOM      9  C   UNL     1      41.834 -16.455 -16.543  0.00  0.00    +0.228 C 
ATOM     10  H   UNL     1      40.529 -16.560 -15.002  0.00  0.00    +0.158 HD
ENDROOT
BRANCH   4  11
ATOM     11  C   UNL     1      43.372 -13.124 -17.774  0.00  0.00    +0.001 C 
ATOM     12  C   UNL     1      42.956 -11.672 -17.703  0.00  0.00    +0.000 C 
ENDBRANCH   4  11
TORSDOF 1
ENDMDL
MODEL 6
REMARK VINA RESULT:      -6.1     10.466     11.875
REMARK  Name = 2310
REMARK  1 active torsions:
REMARK  status: ('A' for Active; 'I' for Inactive)
REMARK    1  A    between atoms: C_4  and  C_11
REMARK                            x       y       z     vdW  Elec       q    Type
REMARK                         _______ _______ _______ _____ _____    ______ ____
ROOT
ATOM      1  O   UNL     1      36.803 -27.439 -16.156  0.00  0.00    -0.275 OA
ATOM      2  O   UNL     1      37.342 -26.298 -11.729  0.00  0.00    -0.275 OA
ATOM      3  N   UNL     1      37.057 -26.840 -13.948  0.00  0.00    -0.255 N 
ATOM      4  C   UNL     1      36.140 -24.247 -14.504  0.00  0.00    +0.017 C 
ATOM      5  C   UNL     1      35.777 -25.390 -15.462  0.00  0.00    +0.086 C 
ATOM      6  C   UNL     1      36.069 -24.772 -13.064  0.00  0.00    +0.086 C 
ATOM      7  C   UNL     1      37.541 -23.686 -14.819  0.00  0.00    +0.001 C 
ATOM      8  C   UNL     1      36.601 -26.637 -15.244  0.00  0.00    +0.228 C 
ATOM      9  C   UNL     1      36.894 -26.018 -12.841  0.00  0.00    +0.228 C 
ATOM     10  H   UNL     1      37.560 -27.673 -13.794  0.00  0.00    +0.158 HD
ENDROOT
BRANCH   4  11
ATOM     11  C   UNL     1      35.118 -23.108 -14.673  0.00  0.00    +0.001 C 
ATOM     12  C   UNL     1      34.473 -23.159 -16.040  0.00  0.00    +0.000 C 
ENDBRANCH   4  11
TORSDOF 1
ENDMDL
MODEL 7
REMARK VINA RESULT:      -6.1     10.627     11.879
REMARK  Name = 2310
REMARK  1 active torsions:
REMARK  status: ('A' for Active; 'I' for Inactive)
REMARK    1  A    between atoms: C_4  and  C_11
REMARK                            x       y       z     vdW  Elec       q    Type
REMARK                         _______ _______ _______ _____ _____    ______ ____
ROOT
ATOM      1  O   UNL     1      36.032 -25.355 -11.118  0.00  0.00    -0.275 OA
ATOM      2  O   UNL     1      38.597 -27.009 -14.565  0.00  0.00    -0.275 OA
ATOM      3  N   UNL     1      37.308 -26.155 -12.859  0.00  0.00    -0.255 N 
ATOM      4  C   UNL     1      36.355 -24.123 -14.543  0.00  0.00    +0.017 C 
ATOM      5  C   UNL     1      36.288 -23.927 -13.023  0.00  0.00    +0.086 C 
ATOM      6  C   UNL     1      37.676 -24.822 -14.889  0.00  0.00    +0.086 C 
ATOM      7  C   UNL     1      35.149 -24.938 -15.050  0.00  0.00    +0.001 C 
ATOM      8  C   UNL     1      36.503 -25.204 -12.245  0.00  0.00    +0.228 C 
ATOM      9  C   UNL     1      37.896 -26.101 -14.117  0.00  0.00    +0.228 C 
ATOM     10  H   UNL     1      37.484 -26.972 -12.338  0.00  0.00    +0.158 HD
ENDROOT
BRANCH   4  11
ATOM     11  C   UNL     1      36.324 -22.744 -15.228  0.00  0.00    +0.001 C 
ATOM     12  C   UNL     1      37.529 -22.558 -16.123  0.00  0.00    +0.000 C 
ENDBRANCH   4  11
TORSDOF 1
ENDMDL
MODEL 8
REMARK VINA RESULT:      -6.1      9.531     11.151
REMARK  Name = 2310
REMARK  1 active torsions:
REMARK  status: ('A' for Active; 'I' for Inactive)
REMARK    1  A    between atoms: C_4  and  C_11
REMARK                            x       y       z     vdW  Elec       q    Type
REMARK                         _______ _______ _______ _____ _____    ______ ____
ROOT
ATOM      1  O   UNL     1      32.919  -6.898 -19.326  0.00  0.00    -0.275 OA
ATOM      2  O   UNL     1      30.412  -4.905 -22.634  0.00  0.00    -0.275 OA
ATOM      3  N   UNL     1      31.671  -5.928 -20.999  0.00  0.00    -0.255 N 
ATOM      4  C   UNL     1      32.455  -7.931 -22.800  0.00  0.00    +0.017 C 
ATOM      5  C   UNL     1      32.536  -8.208 -21.294  0.00  0.00    +0.086 C 
ATOM      6  C   UNL     1      31.178  -7.129 -23.085  0.00  0.00    +0.086 C 
ATOM      7  C   UNL     1      33.704  -7.173 -23.291  0.00  0.00    +0.001 C 
ATOM      8  C   UNL     1      32.419  -6.960 -20.449  0.00  0.00    +0.228 C 
ATOM      9  C   UNL     1      31.059  -5.879 -22.245  0.00  0.00    +0.228 C 
ATOM     10  H   UNL     1      31.559  -5.129 -20.434  0.00  0.00    +0.158 HD
ENDROOT
BRANCH   4  11
ATOM     11  C   UNL     1      32.382  -9.272 -23.553  0.00  0.00    +0.001 C 
ATOM     12  C   UNL     1      33.767  -9.802 -23.849  0.00  0.00    +0.000 C 
ENDBRANCH   4  11
TORSDOF 1
ENDMDL
MODEL 9
REMARK VINA RESULT:      -6.0      8.225     10.032
REMARK  Name = 2310
REMARK  1 active torsions:
REMARK  status: ('A' for Active; 'I' for Inactive)
REMARK    1  A    between atoms: C_4  and  C_11
REMARK                            x       y       z     vdW  Elec       q    Type
REMARK                         _______ _______ _______ _____ _____    ______ ____
ROOT
ATOM      1  O   UNL     1      31.984  -8.125 -19.278  0.00  0.00    -0.275 OA
ATOM      2  O   UNL     1      31.628 -11.437 -22.456  0.00  0.00    -0.275 OA
ATOM      3  N   UNL     1      31.819  -9.761 -20.889  0.00  0.00    -0.255 N 
ATOM      4  C   UNL     1      32.539  -7.924 -22.884  0.00  0.00    +0.017 C 
ATOM      5  C   UNL     1      32.918  -7.631 -21.427  0.00  0.00    +0.086 C 
ATOM      6  C   UNL     1      32.726  -9.424 -23.148  0.00  0.00    +0.086 C 
ATOM      7  C   UNL     1      31.091  -7.487 -23.178  0.00  0.00    +0.001 C 
ATOM      8  C   UNL     1      32.187  -8.502 -20.432  0.00  0.00    +0.228 C 
ATOM      9  C   UNL     1      31.994 -10.299 -22.158  0.00  0.00    +0.228 C 
ATOM     10  H   UNL     1      31.379 -10.346 -20.231  0.00  0.00    +0.158 HD
ENDROOT
BRANCH   4  11
ATOM     11  C   UNL     1      33.477  -7.132 -23.814  0.00  0.00    +0.001 C 
ATOM     12  C   UNL     1      34.919  -7.534 -23.597  0.00  0.00    +0.000 C 
ENDBRANCH   4  11
TORSDOF 1
ENDMDL
