MODEL 1
REMARK VINA RESULT:      -6.9      0.000      0.000
REMARK  Name = 4098
REMARK  5 active torsions:
REMARK  status: ('A' for Active; 'I' for Inactive)
REMARK    1  A    between atoms: N_1  and  C_8
REMARK    2  A    between atoms: N_1  and  C_14
REMARK    3  A    between atoms: C_8  and  C_9
REMARK    4  A    between atoms: C_9  and  N_10
REMARK    5  A    between atoms: C_14  and  C_16
REMARK                            x       y       z     vdW  Elec       q    Type
REMARK                         _______ _______ _______ _____ _____    ______ ____
ROOT
ATOM      1  N   UNL     1      35.231 -23.481 -15.503  0.00  0.00    -0.291 N 
ATOM      2  N   UNL     1      36.164 -22.324 -17.364  0.00  0.00    -0.229 NA
ATOM      3  C   UNL     1      35.091 -22.917 -16.778  0.00  0.00    +0.132 C 
ATOM      4  C   UNL     1      33.842 -22.994 -17.388  0.00  0.00    +0.034 C 
ATOM      5  C   UNL     1      33.687 -22.440 -18.654  0.00  0.00    +0.004 C 
ATOM      6  C   UNL     1      35.976 -21.796 -18.593  0.00  0.00    +0.100 C 
ATOM      7  C   UNL     1      34.771 -21.827 -19.275  0.00  0.00    +0.021 C 
ENDROOT
BRANCH   1   8
ATOM      8  C   UNL     1      34.429 -24.606 -15.085  0.00  0.00    +0.070 C 
BRANCH   8   9
ATOM      9  C   UNL     1      33.488 -24.176 -13.966  0.00  0.00    -0.056 C 
BRANCH   9  10
ATOM     10  N   UNL     1      32.105 -24.160 -14.443  0.00  0.00    +0.385 N 
ATOM     11  C   UNL     1      31.560 -22.804 -14.386  0.00  0.00    -0.101 C 
ATOM     12  C   UNL     1      31.281 -25.075 -13.653  0.00  0.00    -0.101 C 
ATOM     13  H   UNL     1      32.093 -24.472 -15.414  0.00  0.00    -0.080 HD
ENDBRANCH   9  10
ENDBRANCH   8   9
ENDBRANCH   1   8
BRANCH   1  14
ATOM     14  C   UNL     1      36.197 -22.920 -14.556  0.00  0.00    +0.125 C 
BRANCH  14  16
ATOM     15  S   UNL     1      37.287 -24.458 -12.541  0.00  0.00    -0.089 S 
ATOM     16  C   UNL     1      37.240 -23.930 -14.157  0.00  0.00    +0.027 C 
ATOM     17  C   UNL     1      38.190 -24.501 -14.946  0.00  0.00    +0.004 C 
ATOM     18  C   UNL     1      38.997 -25.412 -14.205  0.00  0.00    +0.007 C 
ATOM     19  C   UNL     1      38.613 -25.485 -12.883  0.00  0.00    +0.035 C 
ENDBRANCH  14  16
ENDBRANCH   1  14
TORSDOF 5
ENDMDL
MODEL 2
REMARK VINA RESULT:      -6.7      6.258      9.794
REMARK  Name = 4098
REMARK  5 active torsions:
REMARK  status: ('A' for Active; 'I' for Inactive)
REMARK    1  A    between atoms: N_1  and  C_8
REMARK    2  A    between atoms: N_1  and  C_14
REMARK    3  A    between atoms: C_8  and  C_9
REMARK    4  A    between atoms: C_9  and  N_10
REMARK    5  A    between atoms: C_14  and  C_16
REMARK                            x       y       z     vdW  Elec       q    Type
REMARK                         _______ _______ _______ _____ _____    ______ ____
ROOT
ATOM      1  N   UNL     1      34.828 -18.538 -21.209  0.00  0.00    -0.291 N 
ATOM      2  N   UNL     1      35.899 -20.506 -20.402  0.00  0.00    -0.229 NA
ATOM      3  C   UNL     1      34.758 -19.791 -20.584  0.00  0.00    +0.132 C 
ATOM      4  C   UNL     1      33.507 -20.244 -20.177  0.00  0.00    +0.034 C 
ATOM      5  C   UNL     1      33.422 -21.486 -19.556  0.00  0.00    +0.004 C 
ATOM      6  C   UNL     1      35.778 -21.707 -19.795  0.00  0.00    +0.100 C 
ATOM      7  C   UNL     1      34.576 -22.237 -19.358  0.00  0.00    +0.021 C 
ENDROOT
BRANCH   1   8
ATOM      8  C   UNL     1      33.881 -17.491 -20.904  0.00  0.00    +0.070 C 
BRANCH   8   9
ATOM      9  C   UNL     1      34.630 -16.222 -20.516  0.00  0.00    -0.056 C 
BRANCH   9  10
ATOM     10  N   UNL     1      33.775 -15.050 -20.703  0.00  0.00    +0.385 N 
ATOM     11  C   UNL     1      32.385 -15.458 -20.899  0.00  0.00    -0.101 C 
ATOM     12  C   UNL     1      34.239 -14.255 -21.841  0.00  0.00    -0.101 C 
ATOM     13  H   UNL     1      33.827 -14.473 -19.864  0.00  0.00    -0.080 HD
ENDBRANCH   9  10
ENDBRANCH   8   9
ENDBRANCH   1   8
BRANCH   1  14
ATOM     14  C   UNL     1      35.868 -18.272 -22.204  0.00  0.00    +0.125 C 
BRANCH  14  16
ATOM     15  S   UNL     1      34.495 -19.003 -24.483  0.00  0.00    -0.089 S 
ATOM     16  C   UNL     1      35.283 -17.842 -23.524  0.00  0.00    +0.027 C 
ATOM     17  C   UNL     1      35.302 -16.598 -24.076  0.00  0.00    +0.004 C 
ATOM     18  C   UNL     1      34.645 -16.585 -25.340  0.00  0.00    +0.007 C 
ATOM     19  C   UNL     1      34.158 -17.828 -25.682  0.00  0.00    +0.035 C 
ENDBRANCH  14  16
ENDBRANCH   1  14
TORSDOF 5
ENDMDL
MODEL 3
REMARK VINA RESULT:      -6.7      6.097      9.054
REMARK  Name = 4098
REMARK  5 active torsions:
REMARK  status: ('A' for Active; 'I' for Inactive)
REMARK    1  A    between atoms: N_1  and  C_8
REMARK    2  A    between atoms: N_1  and  C_14
REMARK    3  A    between atoms: C_8  and  C_9
REMARK    4  A    between atoms: C_9  and  N_10
REMARK    5  A    between atoms: C_14  and  C_16
REMARK                            x       y       z     vdW  Elec       q    Type
REMARK                         _______ _______ _______ _____ _____    ______ ____
ROOT
ATOM      1  N   UNL     1      35.336 -17.935 -21.688  0.00  0.00    -0.291 N 
ATOM      2  N   UNL     1      34.716 -18.982 -23.736  0.00  0.00    -0.229 NA
ATOM      3  C   UNL     1      34.971 -17.844 -23.038  0.00  0.00    +0.132 C 
ATOM      4  C   UNL     1      34.889 -16.575 -23.604  0.00  0.00    +0.034 C 
ATOM      5  C   UNL     1      34.529 -16.468 -24.943  0.00  0.00    +0.004 C 
ATOM      6  C   UNL     1      34.370 -18.839 -25.034  0.00  0.00    +0.100 C 
ATOM      7  C   UNL     1      34.263 -17.618 -25.678  0.00  0.00    +0.021 C 
ENDROOT
BRANCH   1   8
ATOM      8  C   UNL     1      35.025 -16.881 -20.751  0.00  0.00    +0.070 C 
BRANCH   8   9
ATOM      9  C   UNL     1      33.540 -16.545 -20.834  0.00  0.00    -0.056 C 
BRANCH   9  10
ATOM     10  N   UNL     1      33.335 -15.105 -20.677  0.00  0.00    +0.385 N 
ATOM     11  C   UNL     1      32.413 -14.606 -21.695  0.00  0.00    -0.101 C 
ATOM     12  C   UNL     1      34.612 -14.396 -20.752  0.00  0.00    -0.101 C 
ATOM     13  H   UNL     1      32.925 -14.935 -19.759  0.00  0.00    -0.080 HD
ENDBRANCH   9  10
ENDBRANCH   8   9
ENDBRANCH   1   8
BRANCH   1  14
ATOM     14  C   UNL     1      36.059 -19.111 -21.202  0.00  0.00    +0.125 C 
BRANCH  14  16
ATOM     15  S   UNL     1      35.827 -21.319 -19.563  0.00  0.00    -0.089 S 
ATOM     16  C   UNL     1      35.142 -20.089 -20.516  0.00  0.00    +0.027 C 
ATOM     17  C   UNL     1      33.782 -20.123 -20.558  0.00  0.00    +0.004 C 
ATOM     18  C   UNL     1      33.269 -21.200 -19.778  0.00  0.00    +0.007 C 
ATOM     19  C   UNL     1      34.274 -21.931 -19.182  0.00  0.00    +0.035 C 
ENDBRANCH  14  16
ENDBRANCH   1  14
TORSDOF 5
ENDMDL
MODEL 4
REMARK VINA RESULT:      -6.7      2.051      5.007
REMARK  Name = 4098
REMARK  5 active torsions:
REMARK  status: ('A' for Active; 'I' for Inactive)
REMARK    1  A    between atoms: N_1  and  C_8
REMARK    2  A    between atoms: N_1  and  C_14
REMARK    3  A    between atoms: C_8  and  C_9
REMARK    4  A    between atoms: C_9  and  N_10
REMARK    5  A    between atoms: C_14  and  C_16
REMARK                            x       y       z     vdW  Elec       q    Type
REMARK                         _______ _______ _______ _____ _____    ______ ____
ROOT
ATOM      1  N   UNL     1      34.137 -23.119 -16.888  0.00  0.00    -0.291 N 
ATOM      2  N   UNL     1      33.140 -22.077 -18.784  0.00  0.00    -0.229 NA
ATOM      3  C   UNL     1      34.254 -22.350 -18.054  0.00  0.00    +0.132 C 
ATOM      4  C   UNL     1      35.521 -21.901 -18.411  0.00  0.00    +0.034 C 
ATOM      5  C   UNL     1      35.653 -21.137 -19.566  0.00  0.00    +0.004 C 
ATOM      6  C   UNL     1      33.306 -21.333 -19.899  0.00  0.00    +0.100 C 
ATOM      7  C   UNL     1      34.528 -20.843 -20.329  0.00  0.00    +0.021 C 
ENDROOT
BRANCH   1   8
ATOM      8  C   UNL     1      35.045 -22.947 -15.779  0.00  0.00    +0.070 C 
BRANCH   8   9
ATOM      9  C   UNL     1      35.641 -24.295 -15.391  0.00  0.00    -0.056 C 
BRANCH   9  10
ATOM     10  N   UNL     1      37.099 -24.256 -15.497  0.00  0.00    +0.385 N 
ATOM     11  C   UNL     1      37.712 -24.911 -14.343  0.00  0.00    -0.101 C 
ATOM     12  C   UNL     1      37.567 -22.875 -15.609  0.00  0.00    -0.101 C 
ATOM     13  H   UNL     1      37.376 -24.761 -16.339  0.00  0.00    -0.080 HD
ENDBRANCH   9  10
ENDBRANCH   8   9
ENDBRANCH   1   8
BRANCH   1  14
ATOM     14  C   UNL     1      33.086 -24.132 -16.780  0.00  0.00    +0.125 C 
BRANCH  14  16
ATOM     15  S   UNL     1      32.060 -24.413 -14.234  0.00  0.00    -0.089 S 
ATOM     16  C   UNL     1      32.022 -23.733 -15.792  0.00  0.00    +0.027 C 
ATOM     17  C   UNL     1      30.992 -22.865 -15.985  0.00  0.00    +0.004 C 
ATOM     18  C   UNL     1      30.192 -22.745 -14.811  0.00  0.00    +0.007 C 
ATOM     19  C   UNL     1      30.661 -23.534 -13.783  0.00  0.00    +0.035 C 
ENDBRANCH  14  16
ENDBRANCH   1  14
TORSDOF 5
ENDMDL
MODEL 5
REMARK VINA RESULT:      -6.6     11.273     14.464
REMARK  Name = 4098
REMARK  5 active torsions:
REMARK  status: ('A' for Active; 'I' for Inactive)
REMARK    1  A    between atoms: N_1  and  C_8
REMARK    2  A    between atoms: N_1  and  C_14
REMARK    3  A    between atoms: C_8  and  C_9
REMARK    4  A    between atoms: C_9  and  N_10
REMARK    5  A    between atoms: C_14  and  C_16
REMARK                            x       y       z     vdW  Elec       q    Type
REMARK                         _______ _______ _______ _____ _____    ______ ____
ROOT
ATOM      1  N   UNL     1      32.911 -12.796 -22.897  0.00  0.00    -0.291 N 
ATOM      2  N   UNL     1      32.093 -14.675 -21.684  0.00  0.00    -0.229 NA
ATOM      3  C   UNL     1      33.148 -13.949 -22.136  0.00  0.00    +0.132 C 
ATOM      4  C   UNL     1      34.471 -14.295 -21.880  0.00  0.00    +0.034 C 
ATOM      5  C   UNL     1      34.723 -15.437 -21.126  0.00  0.00    +0.004 C 
ATOM      6  C   UNL     1      32.376 -15.777 -20.955  0.00  0.00    +0.100 C 
ATOM      7  C   UNL     1      33.660 -16.197 -20.651  0.00  0.00    +0.021 C 
ENDROOT
BRANCH   1   8
ATOM      8  C   UNL     1      33.852 -12.345 -23.894  0.00  0.00    +0.070 C 
BRANCH   8   9
ATOM      9  C   UNL     1      33.618 -10.867 -24.187  0.00  0.00    -0.056 C 
BRANCH   9  10
ATOM     10  N   UNL     1      34.896 -10.168 -24.323  0.00  0.00    +0.385 N 
ATOM     11  C   UNL     1      34.735  -8.747 -24.018  0.00  0.00    -0.101 C 
ATOM     12  C   UNL     1      35.433 -10.343 -25.672  0.00  0.00    -0.101 C 
ATOM     13  H   UNL     1      35.557 -10.568 -23.657  0.00  0.00    -0.080 HD
ENDBRANCH   9  10
ENDBRANCH   8   9
ENDBRANCH   1   8
BRANCH   1  14
ATOM     14  C   UNL     1      31.693 -12.013 -22.680  0.00  0.00    +0.125 C 
BRANCH  14  16
ATOM     15  S   UNL     1      31.959  -9.563 -21.440  0.00  0.00    -0.089 S 
ATOM     16  C   UNL     1      31.743 -11.248 -21.384  0.00  0.00    +0.027 C 
ATOM     17  C   UNL     1      31.636 -11.744 -20.121  0.00  0.00    +0.004 C 
ATOM     18  C   UNL     1      31.732 -10.706 -19.150  0.00  0.00    +0.007 C 
ATOM     19  C   UNL     1      31.910  -9.469 -19.731  0.00  0.00    +0.035 C 
ENDBRANCH  14  16
ENDBRANCH   1  14
TORSDOF 5
ENDMDL
MODEL 6
REMARK VINA RESULT:      -6.5      1.241      4.387
REMARK  Name = 4098
REMARK  5 active torsions:
REMARK  status: ('A' for Active; 'I' for Inactive)
REMARK    1  A    between atoms: N_1  and  C_8
REMARK    2  A    between atoms: N_1  and  C_14
REMARK    3  A    between atoms: C_8  and  C_9
REMARK    4  A    between atoms: C_9  and  N_10
REMARK    5  A    between atoms: C_14  and  C_16
REMARK                            x       y       z     vdW  Elec       q    Type
REMARK                         _______ _______ _______ _____ _____    ______ ____
ROOT
ATOM      1  N   UNL     1      34.410 -23.980 -14.944  0.00  0.00    -0.291 N 
ATOM      2  N   UNL     1      32.571 -24.978 -13.805  0.00  0.00    -0.229 NA
ATOM      3  C   UNL     1      33.039 -24.027 -14.655  0.00  0.00    +0.132 C 
ATOM      4  C   UNL     1      32.215 -23.085 -15.264  0.00  0.00    +0.034 C 
ATOM      5  C   UNL     1      30.852 -23.119 -14.987  0.00  0.00    +0.004 C 
ATOM      6  C   UNL     1      31.242 -24.981 -13.561  0.00  0.00    +0.100 C 
ATOM      7  C   UNL     1      30.349 -24.082 -14.120  0.00  0.00    +0.021 C 
ENDROOT
BRANCH   1   8
ATOM      8  C   UNL     1      35.066 -22.739 -15.280  0.00  0.00    +0.070 C 
BRANCH   8   9
ATOM      9  C   UNL     1      35.377 -22.712 -16.771  0.00  0.00    -0.056 C 
BRANCH   9  10
ATOM     10  N   UNL     1      36.470 -21.780 -17.046  0.00  0.00    +0.385 N 
ATOM     11  C   UNL     1      36.636 -21.598 -18.487  0.00  0.00    -0.101 C 
ATOM     12  C   UNL     1      37.715 -22.259 -16.445  0.00  0.00    -0.101 C 
ATOM     13  H   UNL     1      36.238 -20.877 -16.632  0.00  0.00    -0.080 HD
ENDBRANCH   9  10
ENDBRANCH   8   9
ENDBRANCH   1   8
BRANCH   1  14
ATOM     14  C   UNL     1      35.205 -25.208 -14.922  0.00  0.00    +0.125 C 
BRANCH  14  16
ATOM     15  S   UNL     1      36.129 -24.755 -12.361  0.00  0.00    -0.089 S 
ATOM     16  C   UNL     1      36.395 -25.088 -14.007  0.00  0.00    +0.027 C 
ATOM     17  C   UNL     1      37.711 -25.215 -14.333  0.00  0.00    +0.004 C 
ATOM     18  C   UNL     1      38.544 -25.033 -13.191  0.00  0.00    +0.007 C 
ATOM     19  C   UNL     1      37.812 -24.776 -12.052  0.00  0.00    +0.035 C 
ENDBRANCH  14  16
ENDBRANCH   1  14
TORSDOF 5
ENDMDL
MODEL 7
REMARK VINA RESULT:      -6.5     14.595     17.333
REMARK  Name = 4098
REMARK  5 active torsions:
REMARK  status: ('A' for Active; 'I' for Inactive)
REMARK    1  A    between atoms: N_1  and  C_8
REMARK    2  A    between atoms: N_1  and  C_14
REMARK    3  A    between atoms: C_8  and  C_9
REMARK    4  A    between atoms: C_9  and  N_10
REMARK    5  A    between atoms: C_14  and  C_16
REMARK                            x       y       z     vdW  Elec       q    Type
REMARK                         _______ _______ _______ _____ _____    ______ ____
ROOT
ATOM      1  N   UNL     1      32.383  -8.692 -23.344  0.00  0.00    -0.291 N 
ATOM      2  N   UNL     1      31.134  -6.744 -22.777  0.00  0.00    -0.229 NA
ATOM      3  C   UNL     1      32.090  -7.335 -23.541  0.00  0.00    +0.132 C 
ATOM      4  C   UNL     1      32.802  -6.654 -24.522  0.00  0.00    +0.034 C 
ATOM      5  C   UNL     1      32.523  -5.307 -24.730  0.00  0.00    +0.004 C 
ATOM      6  C   UNL     1      30.890  -5.435 -23.006  0.00  0.00    +0.100 C 
ATOM      7  C   UNL     1      31.549  -4.679 -23.960  0.00  0.00    +0.021 C 
ENDROOT
BRANCH   1   8
ATOM      8  C   UNL     1      33.699  -9.224 -23.606  0.00  0.00    +0.070 C 
BRANCH   8   9
ATOM      9  C   UNL     1      33.611 -10.732 -23.804  0.00  0.00    -0.056 C 
BRANCH   9  10
ATOM     10  N   UNL     1      34.573 -11.170 -24.815  0.00  0.00    +0.385 N 
ATOM     11  C   UNL     1      35.339 -10.030 -25.317  0.00  0.00    -0.101 C 
ATOM     12  C   UNL     1      33.887 -11.849 -25.914  0.00  0.00    -0.101 C 
ATOM     13  H   UNL     1      35.221 -11.828 -24.382  0.00  0.00    -0.080 HD
ENDBRANCH   9  10
ENDBRANCH   8   9
ENDBRANCH   1   8
BRANCH   1  14
ATOM     14  C   UNL     1      31.340  -9.606 -22.875  0.00  0.00    +0.125 C 
BRANCH  14  16
ATOM     15  S   UNL     1      31.139 -11.559 -20.937  0.00  0.00    -0.089 S 
ATOM     16  C   UNL     1      31.532  -9.980 -21.429  0.00  0.00    +0.027 C 
ATOM     17  C   UNL     1      31.996  -9.193 -20.421  0.00  0.00    +0.004 C 
ATOM     18  C   UNL     1      32.036  -9.905 -19.187  0.00  0.00    +0.007 C 
ATOM     19  C   UNL     1      31.596 -11.204 -19.326  0.00  0.00    +0.035 C 
ENDBRANCH  14  16
ENDBRANCH   1  14
TORSDOF 5
ENDMDL
MODEL 8
REMARK VINA RESULT:      -6.4     10.935     14.176
REMARK  Name = 4098
REMARK  5 active torsions:
REMARK  status: ('A' for Active; 'I' for Inactive)
REMARK    1  A    between atoms: N_1  and  C_8
REMARK    2  A    between atoms: N_1  and  C_14
REMARK    3  A    between atoms: C_8  and  C_9
REMARK    4  A    between atoms: C_9  and  N_10
REMARK    5  A    between atoms: C_14  and  C_16
REMARK                            x       y       z     vdW  Elec       q    Type
REMARK                         _______ _______ _______ _____ _____    ______ ____
ROOT
ATOM      1  N   UNL     1      32.720 -12.924 -22.650  0.00  0.00    -0.291 N 
ATOM      2  N   UNL     1      32.073 -14.910 -21.506  0.00  0.00    -0.229 NA
ATOM      3  C   UNL     1      33.061 -14.102 -21.971  0.00  0.00    +0.132 C 
ATOM      4  C   UNL     1      34.413 -14.387 -21.804  0.00  0.00    +0.034 C 
ATOM      5  C   UNL     1      34.767 -15.552 -21.132  0.00  0.00    +0.004 C 
ATOM      6  C   UNL     1      32.454 -16.033 -20.858  0.00  0.00    +0.100 C 
ATOM      7  C   UNL     1      33.774 -16.396 -20.647  0.00  0.00    +0.021 C 
ENDROOT
BRANCH   1   8
ATOM      8  C   UNL     1      33.579 -12.366 -23.667  0.00  0.00    +0.070 C 
BRANCH   8   9
ATOM      9  C   UNL     1      33.482 -13.206 -24.935  0.00  0.00    -0.056 C 
BRANCH   9  10
ATOM     10  N   UNL     1      33.477 -12.344 -26.117  0.00  0.00    +0.385 N 
ATOM     11  C   UNL     1      33.586 -13.146 -27.335  0.00  0.00    -0.101 C 
ATOM     12  C   UNL     1      34.568 -11.372 -26.046  0.00  0.00    -0.101 C 
ATOM     13  H   UNL     1      32.593 -11.836 -26.143  0.00  0.00    -0.080 HD
ENDBRANCH   9  10
ENDBRANCH   8   9
ENDBRANCH   1   8
BRANCH   1  14
ATOM     14  C   UNL     1      31.476 -12.224 -22.324  0.00  0.00    +0.125 C 
BRANCH  14  16
ATOM     15  S   UNL     1      31.938  -9.624 -21.526  0.00  0.00    -0.089 S 
ATOM     16  C   UNL     1      31.658 -11.264 -21.178  0.00  0.00    +0.027 C 
ATOM     17  C   UNL     1      31.628 -11.543 -19.847  0.00  0.00    +0.004 C 
ATOM     18  C   UNL     1      31.842 -10.369 -19.069  0.00  0.00    +0.007 C 
ATOM     19  C   UNL     1      32.025  -9.253 -19.857  0.00  0.00    +0.035 C 
ENDBRANCH  14  16
ENDBRANCH   1  14
TORSDOF 5
ENDMDL
MODEL 9
REMARK VINA RESULT:      -6.4      8.219     11.552
REMARK  Name = 4098
REMARK  5 active torsions:
REMARK  status: ('A' for Active; 'I' for Inactive)
REMARK    1  A    between atoms: N_1  and  C_8
REMARK    2  A    between atoms: N_1  and  C_14
REMARK    3  A    between atoms: C_8  and  C_9
REMARK    4  A    between atoms: C_9  and  N_10
REMARK    5  A    between atoms: C_14  and  C_16
REMARK                            x       y       z     vdW  Elec       q    Type
REMARK                         _______ _______ _______ _____ _____    ______ ____
ROOT
ATOM      1  N   UNL     1      33.924 -16.151 -21.736  0.00  0.00    -0.291 N 
ATOM      2  N   UNL     1      35.589 -17.830 -21.449  0.00  0.00    -0.229 NA
ATOM      3  C   UNL     1      34.280 -17.467 -21.410  0.00  0.00    +0.132 C 
ATOM      4  C   UNL     1      33.260 -18.347 -21.060  0.00  0.00    +0.034 C 
ATOM      5  C   UNL     1      33.598 -19.657 -20.735  0.00  0.00    +0.004 C 
ATOM      6  C   UNL     1      35.878 -19.110 -21.127  0.00  0.00    +0.100 C 
ATOM      7  C   UNL     1      34.930 -20.053 -20.766  0.00  0.00    +0.021 C 
ENDROOT
BRANCH   1   8
ATOM      8  C   UNL     1      32.761 -15.520 -21.157  0.00  0.00    +0.070 C 
BRANCH   8   9
ATOM      9  C   UNL     1      33.103 -14.092 -20.750  0.00  0.00    -0.056 C 
BRANCH   9  10
ATOM     10  N   UNL     1      31.958 -13.211 -20.974  0.00  0.00    +0.385 N 
ATOM     11  C   UNL     1      32.037 -12.598 -22.299  0.00  0.00    -0.101 C 
ATOM     12  C   UNL     1      31.894 -12.181 -19.938  0.00  0.00    -0.101 C 
ATOM     13  H   UNL     1      31.105 -13.770 -20.928  0.00  0.00    -0.080 HD
ENDBRANCH   9  10
ENDBRANCH   8   9
ENDBRANCH   1   8
BRANCH   1  14
ATOM     14  C   UNL     1      34.730 -15.389 -22.691  0.00  0.00    +0.125 C 
BRANCH  14  16
ATOM     15  S   UNL     1      34.201 -16.657 -25.084  0.00  0.00    -0.089 S 
ATOM     16  C   UNL     1      34.074 -15.318 -24.045  0.00  0.00    +0.027 C 
ATOM     17  C   UNL     1      33.365 -14.283 -24.572  0.00  0.00    +0.004 C 
ATOM     18  C   UNL     1      32.901 -14.590 -25.884  0.00  0.00    +0.007 C 
ATOM     19  C   UNL     1      33.285 -15.851 -26.285  0.00  0.00    +0.035 C 
ENDBRANCH  14  16
ENDBRANCH   1  14
TORSDOF 5
ENDMDL
