MODEL 1
REMARK VINA RESULT:     -10.4      0.000      0.000
REMARK  Name = 4290
REMARK  5 active torsions:
REMARK  status: ('A' for Active; 'I' for Inactive)
REMARK    1  A    between atoms: C_1  and  C_9
REMARK    2  A    between atoms: C_2  and  S_19
REMARK    3  A    between atoms: N_8  and  C_11
REMARK    4  A    between atoms: C_11  and  C_13
REMARK    5  A    between atoms: S_19  and  N_22
REMARK                            x       y       z     vdW  Elec       q    Type
REMARK                         _______ _______ _______ _____ _____    ______ ____
ROOT
ATOM      1  C   UNL     1      34.903 -19.281 -21.159  0.00  0.00    +0.053 C 
ATOM      2  C   UNL     1      34.169 -21.468 -19.590  0.00  0.00    +0.122 C 
ATOM      3  C   UNL     1      35.885 -20.093 -20.592  0.00  0.00    +0.006 C 
ATOM      4  C   UNL     1      33.554 -19.562 -20.942  0.00  0.00    +0.006 C 
ATOM      5  C   UNL     1      35.518 -21.186 -19.808  0.00  0.00    +0.020 C 
ATOM      6  C   UNL     1      33.187 -20.655 -20.156  0.00  0.00    +0.020 C 
ENDROOT
BRANCH   1   9
ATOM      7  O   UNL     1      36.230 -18.231 -22.783  0.00  0.00    -0.270 OA
ATOM      8  N   UNL     1      34.532 -16.971 -21.830  0.00  0.00    -0.297 N 
ATOM      9  C   UNL     1      35.285 -18.141 -21.978  0.00  0.00    +0.246 C 
ATOM     10  H   UNL     1      33.797 -16.969 -21.174  0.00  0.00    +0.150 HD
BRANCH   8  11
ATOM     11  C   UNL     1      34.773 -15.764 -22.588  0.00  0.00    +0.119 C 
BRANCH  11  13
ATOM     12  F   UNL     1      33.998 -13.747 -24.409  0.00  0.00    -0.204 F 
ATOM     13  C   UNL     1      33.801 -14.675 -22.233  0.00  0.00    +0.025 C 
ATOM     14  C   UNL     1      33.464 -13.715 -23.180  0.00  0.00    +0.138 C 
ATOM     15  C   UNL     1      33.247 -14.641 -20.959  0.00  0.00    -0.000 C 
ATOM     16  C   UNL     1      32.560 -12.705 -22.848  0.00  0.00    +0.029 C 
ATOM     17  C   UNL     1      32.344 -13.631 -20.626  0.00  0.00    -0.000 C 
ATOM     18  C   UNL     1      32.000 -12.664 -21.571  0.00  0.00    +0.002 C 
ENDBRANCH  11  13
ENDBRANCH   8  11
ENDBRANCH   1   9
BRANCH   2  19
ATOM     19  S   UNL     1      33.711 -22.835 -18.607  0.00  0.00    +0.057 S 
ATOM     20  O   UNL     1      32.409 -22.559 -18.013  0.00  0.00    -0.153 OA
ATOM     21  O   UNL     1      33.909 -24.050 -19.385  0.00  0.00    -0.153 OA
BRANCH  19  22
ATOM     22  N   UNL     1      34.900 -22.769 -17.381  0.00  0.00    -0.203 NA
ATOM     23  H   UNL     1      35.022 -23.697 -16.974  0.00  0.00    +0.144 HD
ATOM     24  H   UNL     1      34.605 -22.116 -16.655  0.00  0.00    +0.144 HD
ENDBRANCH  19  22
ENDBRANCH   2  19
TORSDOF 5
ENDMDL
MODEL 2
REMARK VINA RESULT:     -10.4      0.016      1.054
REMARK  Name = 4290
REMARK  5 active torsions:
REMARK  status: ('A' for Active; 'I' for Inactive)
REMARK    1  A    between atoms: C_1  and  C_9
REMARK    2  A    between atoms: C_2  and  S_19
REMARK    3  A    between atoms: N_8  and  C_11
REMARK    4  A    between atoms: C_11  and  C_13
REMARK    5  A    between atoms: S_19  and  N_22
REMARK                            x       y       z     vdW  Elec       q    Type
REMARK                         _______ _______ _______ _____ _____    ______ ____
ROOT
ATOM      1  C   UNL     1      34.893 -19.281 -21.168  0.00  0.00    +0.053 C 
ATOM      2  C   UNL     1      34.166 -21.463 -19.589  0.00  0.00    +0.122 C 
ATOM      3  C   UNL     1      33.545 -19.565 -20.948  0.00  0.00    +0.006 C 
ATOM      4  C   UNL     1      35.878 -20.089 -20.598  0.00  0.00    +0.006 C 
ATOM      5  C   UNL     1      33.182 -20.656 -20.158  0.00  0.00    +0.020 C 
ATOM      6  C   UNL     1      35.514 -21.180 -19.810  0.00  0.00    +0.020 C 
ENDROOT
BRANCH   1   9
ATOM      7  O   UNL     1      36.200 -18.241 -22.814  0.00  0.00    -0.270 OA
ATOM      8  N   UNL     1      34.534 -16.966 -21.826  0.00  0.00    -0.297 N 
ATOM      9  C   UNL     1      35.272 -18.143 -21.991  0.00  0.00    +0.246 C 
ATOM     10  H   UNL     1      33.812 -16.958 -21.156  0.00  0.00    +0.150 HD
BRANCH   8  11
ATOM     11  C   UNL     1      34.774 -15.759 -22.585  0.00  0.00    +0.119 C 
BRANCH  11  13
ATOM     12  F   UNL     1      34.019 -13.727 -24.397  0.00  0.00    -0.204 F 
ATOM     13  C   UNL     1      33.802 -14.670 -22.230  0.00  0.00    +0.025 C 
ATOM     14  C   UNL     1      33.475 -13.703 -23.172  0.00  0.00    +0.138 C 
ATOM     15  C   UNL     1      33.239 -14.644 -20.960  0.00  0.00    -0.000 C 
ATOM     16  C   UNL     1      32.572 -12.693 -22.840  0.00  0.00    +0.029 C 
ATOM     17  C   UNL     1      32.336 -13.634 -20.627  0.00  0.00    -0.000 C 
ATOM     18  C   UNL     1      32.003 -12.659 -21.567  0.00  0.00    +0.002 C 
ENDBRANCH  11  13
ENDBRANCH   8  11
ENDBRANCH   1   9
BRANCH   2  19
ATOM     19  S   UNL     1      33.711 -22.829 -18.601  0.00  0.00    +0.057 S 
ATOM     20  O   UNL     1      32.412 -22.552 -18.004  0.00  0.00    -0.153 OA
ATOM     21  O   UNL     1      33.907 -24.046 -19.377  0.00  0.00    -0.153 OA
BRANCH  19  22
ATOM     22  N   UNL     1      34.905 -22.759 -17.380  0.00  0.00    -0.203 NA
ATOM     23  H   UNL     1      34.623 -23.347 -16.595  0.00  0.00    +0.144 HD
ATOM     24  H   UNL     1      35.012 -21.796 -17.062  0.00  0.00    +0.144 HD
ENDBRANCH  19  22
ENDBRANCH   2  19
TORSDOF 5
ENDMDL
MODEL 3
REMARK VINA RESULT:     -10.4      5.175      7.604
REMARK  Name = 4290
REMARK  5 active torsions:
REMARK  status: ('A' for Active; 'I' for Inactive)
REMARK    1  A    between atoms: C_1  and  C_9
REMARK    2  A    between atoms: C_2  and  S_19
REMARK    3  A    between atoms: N_8  and  C_11
REMARK    4  A    between atoms: C_11  and  C_13
REMARK    5  A    between atoms: S_19  and  N_22
REMARK                            x       y       z     vdW  Elec       q    Type
REMARK                         _______ _______ _______ _____ _____    ______ ____
ROOT
ATOM      1  C   UNL     1      34.386 -23.419 -15.334  0.00  0.00    +0.053 C 
ATOM      2  C   UNL     1      35.803 -23.887 -12.976  0.00  0.00    +0.122 C 
ATOM      3  C   UNL     1      35.721 -23.028 -15.233  0.00  0.00    +0.006 C 
ATOM      4  C   UNL     1      33.760 -24.045 -14.256  0.00  0.00    +0.006 C 
ATOM      5  C   UNL     1      36.430 -23.262 -14.054  0.00  0.00    +0.020 C 
ATOM      6  C   UNL     1      34.468 -24.278 -13.077  0.00  0.00    +0.020 C 
ENDROOT
BRANCH   1   9
ATOM      7  O   UNL     1      32.418 -23.363 -16.607  0.00  0.00    -0.270 OA
ATOM      8  N   UNL     1      34.377 -22.707 -17.661  0.00  0.00    -0.297 N 
ATOM      9  C   UNL     1      33.647 -23.176 -16.563  0.00  0.00    +0.246 C 
ATOM     10  H   UNL     1      35.348 -22.581 -17.556  0.00  0.00    +0.150 HD
BRANCH   8  11
ATOM     11  C   UNL     1      33.783 -22.397 -18.942  0.00  0.00    +0.119 C 
BRANCH  11  13
ATOM     12  F   UNL     1      32.490 -20.406 -20.473  0.00  0.00    -0.204 F 
ATOM     13  C   UNL     1      34.528 -21.307 -19.657  0.00  0.00    +0.025 C 
ATOM     14  C   UNL     1      33.827 -20.359 -20.392  0.00  0.00    +0.138 C 
ATOM     15  C   UNL     1      35.915 -21.259 -19.575  0.00  0.00    -0.000 C 
ATOM     16  C   UNL     1      34.522 -19.347 -21.056  0.00  0.00    +0.029 C 
ATOM     17  C   UNL     1      36.610 -20.247 -20.238  0.00  0.00    -0.000 C 
ATOM     18  C   UNL     1      35.913 -19.292 -20.978  0.00  0.00    +0.002 C 
ENDBRANCH  11  13
ENDBRANCH   8  11
ENDBRANCH   1   9
BRANCH   2  19
ATOM     19  S   UNL     1      36.690 -24.179 -11.501  0.00  0.00    +0.057 S 
ATOM     20  O   UNL     1      37.638 -25.259 -11.741  0.00  0.00    -0.153 OA
ATOM     21  O   UNL     1      37.163 -22.902 -10.986  0.00  0.00    -0.153 OA
BRANCH  19  22
ATOM     22  N   UNL     1      35.445 -24.755 -10.482  0.00  0.00    -0.203 NA
ATOM     23  H   UNL     1      34.866 -25.420 -10.995  0.00  0.00    +0.144 HD
ATOM     24  H   UNL     1      34.870 -23.972 -10.171  0.00  0.00    +0.144 HD
ENDBRANCH  19  22
ENDBRANCH   2  19
TORSDOF 5
ENDMDL
MODEL 4
REMARK VINA RESULT:     -10.1      1.370      2.081
REMARK  Name = 4290
REMARK  5 active torsions:
REMARK  status: ('A' for Active; 'I' for Inactive)
REMARK    1  A    between atoms: C_1  and  C_9
REMARK    2  A    between atoms: C_2  and  S_19
REMARK    3  A    between atoms: N_8  and  C_11
REMARK    4  A    between atoms: C_11  and  C_13
REMARK    5  A    between atoms: S_19  and  N_22
REMARK                            x       y       z     vdW  Elec       q    Type
REMARK                         _______ _______ _______ _____ _____    ______ ____
ROOT
ATOM      1  C   UNL     1      35.167 -19.532 -20.913  0.00  0.00    +0.053 C 
ATOM      2  C   UNL     1      34.362 -21.702 -19.355  0.00  0.00    +0.122 C 
ATOM      3  C   UNL     1      33.810 -19.791 -20.727  0.00  0.00    +0.006 C 
ATOM      4  C   UNL     1      36.123 -20.357 -20.319  0.00  0.00    +0.006 C 
ATOM      5  C   UNL     1      33.407 -20.876 -19.948  0.00  0.00    +0.020 C 
ATOM      6  C   UNL     1      35.720 -21.443 -19.541  0.00  0.00    +0.020 C 
ENDROOT
BRANCH   1   9
ATOM      7  O   UNL     1      36.718 -18.381 -22.243  0.00  0.00    -0.270 OA
ATOM      8  N   UNL     1      34.660 -17.367 -21.904  0.00  0.00    -0.297 N 
ATOM      9  C   UNL     1      35.588 -18.400 -21.724  0.00  0.00    +0.246 C 
ATOM     10  H   UNL     1      33.783 -17.447 -21.463  0.00  0.00    +0.150 HD
BRANCH   8  11
ATOM     11  C   UNL     1      34.920 -16.189 -22.700  0.00  0.00    +0.119 C 
BRANCH  11  13
ATOM     12  F   UNL     1      34.304 -15.347 -20.075  0.00  0.00    -0.204 F 
ATOM     13  C   UNL     1      33.944 -15.087 -22.406  0.00  0.00    +0.025 C 
ATOM     14  C   UNL     1      33.689 -14.723 -21.089  0.00  0.00    +0.138 C 
ATOM     15  C   UNL     1      33.305 -14.440 -23.457  0.00  0.00    -0.000 C 
ATOM     16  C   UNL     1      32.782 -13.699 -20.818  0.00  0.00    +0.029 C 
ATOM     17  C   UNL     1      32.397 -13.415 -23.187  0.00  0.00    -0.000 C 
ATOM     18  C   UNL     1      32.136 -13.045 -21.868  0.00  0.00    +0.002 C 
ENDBRANCH  11  13
ENDBRANCH   8  11
ENDBRANCH   1   9
BRANCH   2  19
ATOM     19  S   UNL     1      33.858 -23.060 -18.381  0.00  0.00    +0.057 S 
ATOM     20  O   UNL     1      33.789 -24.238 -19.235  0.00  0.00    -0.153 OA
ATOM     21  O   UNL     1      34.669 -23.089 -17.172  0.00  0.00    -0.153 OA
BRANCH  19  22
ATOM     22  N   UNL     1      32.268 -22.589 -17.964  0.00  0.00    -0.203 NA
ATOM     23  H   UNL     1      32.303 -21.742 -17.395  0.00  0.00    +0.144 HD
ATOM     24  H   UNL     1      31.819 -23.336 -17.434  0.00  0.00    +0.144 HD
ENDBRANCH  19  22
ENDBRANCH   2  19
TORSDOF 5
ENDMDL
MODEL 5
REMARK VINA RESULT:     -10.0      1.462      2.190
REMARK  Name = 4290
REMARK  5 active torsions:
REMARK  status: ('A' for Active; 'I' for Inactive)
REMARK    1  A    between atoms: C_1  and  C_9
REMARK    2  A    between atoms: C_2  and  S_19
REMARK    3  A    between atoms: N_8  and  C_11
REMARK    4  A    between atoms: C_11  and  C_13
REMARK    5  A    between atoms: S_19  and  N_22
REMARK                            x       y       z     vdW  Elec       q    Type
REMARK                         _______ _______ _______ _____ _____    ______ ____
ROOT
ATOM      1  C   UNL     1      35.136 -19.263 -20.939  0.00  0.00    +0.053 C 
ATOM      2  C   UNL     1      34.229 -21.499 -19.538  0.00  0.00    +0.122 C 
ATOM      3  C   UNL     1      36.051 -20.136 -20.351  0.00  0.00    +0.006 C 
ATOM      4  C   UNL     1      33.767 -19.508 -20.826  0.00  0.00    +0.006 C 
ATOM      5  C   UNL     1      35.597 -21.254 -19.651  0.00  0.00    +0.020 C 
ATOM      6  C   UNL     1      33.314 -20.625 -20.125  0.00  0.00    +0.020 C 
ENDROOT
BRANCH   1   9
ATOM      7  O   UNL     1      36.681 -18.139 -22.298  0.00  0.00    -0.270 OA
ATOM      8  N   UNL     1      34.794 -16.960 -21.646  0.00  0.00    -0.297 N 
ATOM      9  C   UNL     1      35.608 -18.097 -21.670  0.00  0.00    +0.246 C 
ATOM     10  H   UNL     1      33.957 -16.996 -21.128  0.00  0.00    +0.150 HD
BRANCH   8  11
ATOM     11  C   UNL     1      35.114 -15.733 -22.341  0.00  0.00    +0.119 C 
BRANCH  11  13
ATOM     12  F   UNL     1      33.646 -13.439 -23.094  0.00  0.00    -0.204 F 
ATOM     13  C   UNL     1      34.387 -15.624 -23.651  0.00  0.00    +0.025 C 
ATOM     14  C   UNL     1      33.685 -14.464 -23.956  0.00  0.00    +0.138 C 
ATOM     15  C   UNL     1      34.427 -16.687 -24.545  0.00  0.00    -0.000 C 
ATOM     16  C   UNL     1      33.011 -14.366 -25.174  0.00  0.00    +0.029 C 
ATOM     17  C   UNL     1      33.753 -16.589 -25.763  0.00  0.00    -0.000 C 
ATOM     18  C   UNL     1      33.045 -15.428 -26.077  0.00  0.00    +0.002 C 
ENDBRANCH  11  13
ENDBRANCH   8  11
ENDBRANCH   1   9
BRANCH   2  19
ATOM     19  S   UNL     1      33.662 -22.898 -18.661  0.00  0.00    +0.057 S 
ATOM     20  O   UNL     1      32.343 -22.599 -18.122  0.00  0.00    -0.153 OA
ATOM     21  O   UNL     1      33.854 -24.076 -19.495  0.00  0.00    -0.153 OA
BRANCH  19  22
ATOM     22  N   UNL     1      34.784 -22.950 -17.372  0.00  0.00    -0.203 NA
ATOM     23  H   UNL     1      35.427 -22.161 -17.448  0.00  0.00    +0.144 HD
ATOM     24  H   UNL     1      35.312 -23.823 -17.415  0.00  0.00    +0.144 HD
ENDBRANCH  19  22
ENDBRANCH   2  19
TORSDOF 5
ENDMDL
MODEL 6
REMARK VINA RESULT:      -9.9      5.393      7.839
REMARK  Name = 4290
REMARK  5 active torsions:
REMARK  status: ('A' for Active; 'I' for Inactive)
REMARK    1  A    between atoms: C_1  and  C_9
REMARK    2  A    between atoms: C_2  and  S_19
REMARK    3  A    between atoms: N_8  and  C_11
REMARK    4  A    between atoms: C_11  and  C_13
REMARK    5  A    between atoms: S_19  and  N_22
REMARK                            x       y       z     vdW  Elec       q    Type
REMARK                         _______ _______ _______ _____ _____    ______ ____
ROOT
ATOM      1  C   UNL     1      34.513 -23.468 -15.201  0.00  0.00    +0.053 C 
ATOM      2  C   UNL     1      36.213 -23.731 -13.005  0.00  0.00    +0.122 C 
ATOM      3  C   UNL     1      34.035 -24.015 -14.011  0.00  0.00    +0.006 C 
ATOM      4  C   UNL     1      35.842 -23.051 -15.293  0.00  0.00    +0.006 C 
ATOM      5  C   UNL     1      34.885 -24.147 -12.913  0.00  0.00    +0.020 C 
ATOM      6  C   UNL     1      36.692 -23.184 -14.196  0.00  0.00    +0.020 C 
ENDROOT
BRANCH   1   9
ATOM      7  O   UNL     1      32.419 -23.612 -16.247  0.00  0.00    -0.270 OA
ATOM      8  N   UNL     1      34.192 -22.850 -17.533  0.00  0.00    -0.297 N 
ATOM      9  C   UNL     1      33.627 -23.330 -16.347  0.00  0.00    +0.246 C 
ATOM     10  H   UNL     1      35.156 -22.647 -17.542  0.00  0.00    +0.150 HD
BRANCH   8  11
ATOM     11  C   UNL     1      33.439 -22.637 -18.748  0.00  0.00    +0.119 C 
BRANCH  11  13
ATOM     12  F   UNL     1      36.199 -22.153 -19.114  0.00  0.00    -0.204 F 
ATOM     13  C   UNL     1      33.965 -21.473 -19.538  0.00  0.00    +0.025 C 
ATOM     14  C   UNL     1      35.336 -21.296 -19.677  0.00  0.00    +0.138 C 
ATOM     15  C   UNL     1      33.071 -20.583 -20.122  0.00  0.00    -0.000 C 
ATOM     16  C   UNL     1      35.821 -20.213 -20.411  0.00  0.00    +0.029 C 
ATOM     17  C   UNL     1      33.556 -19.500 -20.855  0.00  0.00    -0.000 C 
ATOM     18  C   UNL     1      34.931 -19.316 -21.000  0.00  0.00    +0.002 C 
ENDBRANCH  11  13
ENDBRANCH   8  11
ENDBRANCH   1   9
BRANCH   2  19
ATOM     19  S   UNL     1      37.277 -23.896 -11.630  0.00  0.00    +0.057 S 
ATOM     20  O   UNL     1      38.255 -22.818 -11.674  0.00  0.00    -0.153 OA
ATOM     21  O   UNL     1      36.464 -24.089 -10.438  0.00  0.00    -0.153 OA
BRANCH  19  22
ATOM     22  N   UNL     1      38.063 -25.368 -12.002  0.00  0.00    -0.203 NA
ATOM     23  H   UNL     1      38.668 -25.636 -11.226  0.00  0.00    +0.144 HD
ATOM     24  H   UNL     1      38.624 -25.250 -12.846  0.00  0.00    +0.144 HD
ENDBRANCH  19  22
ENDBRANCH   2  19
TORSDOF 5
ENDMDL
MODEL 7
REMARK VINA RESULT:      -9.8      4.992      8.633
REMARK  Name = 4290
REMARK  5 active torsions:
REMARK  status: ('A' for Active; 'I' for Inactive)
REMARK    1  A    between atoms: C_1  and  C_9
REMARK    2  A    between atoms: C_2  and  S_19
REMARK    3  A    between atoms: N_8  and  C_11
REMARK    4  A    between atoms: C_11  and  C_13
REMARK    5  A    between atoms: S_19  and  N_22
REMARK                            x       y       z     vdW  Elec       q    Type
REMARK                         _______ _______ _______ _____ _____    ______ ____
ROOT
ATOM      1  C   UNL     1      34.408 -21.546 -19.561  0.00  0.00    +0.053 C 
ATOM      2  C   UNL     1      34.920 -19.302 -21.139  0.00  0.00    +0.122 C 
ATOM      3  C   UNL     1      35.723 -21.176 -19.842  0.00  0.00    +0.006 C 
ATOM      4  C   UNL     1      33.349 -20.793 -20.070  0.00  0.00    +0.006 C 
ATOM      5  C   UNL     1      35.979 -20.054 -20.631  0.00  0.00    +0.020 C 
ATOM      6  C   UNL     1      33.605 -19.673 -20.860  0.00  0.00    +0.020 C 
ENDROOT
BRANCH   1   9
ATOM      7  O   UNL     1      33.850 -23.804 -19.265  0.00  0.00    -0.270 OA
ATOM      8  N   UNL     1      34.250 -22.555 -17.352  0.00  0.00    -0.297 N 
ATOM      9  C   UNL     1      34.141 -22.715 -18.738  0.00  0.00    +0.246 C 
ATOM     10  H   UNL     1      34.483 -21.664 -17.003  0.00  0.00    +0.150 HD
BRANCH   8  11
ATOM     11  C   UNL     1      34.038 -23.625 -16.405  0.00  0.00    +0.119 C 
BRANCH  11  13
ATOM     12  F   UNL     1      33.765 -24.027 -13.621  0.00  0.00    -0.204 F 
ATOM     13  C   UNL     1      32.726 -23.487 -15.686  0.00  0.00    +0.025 C 
ATOM     14  C   UNL     1      32.666 -23.698 -14.314  0.00  0.00    +0.138 C 
ATOM     15  C   UNL     1      31.585 -23.147 -16.404  0.00  0.00    -0.000 C 
ATOM     16  C   UNL     1      31.446 -23.569 -13.649  0.00  0.00    +0.029 C 
ATOM     17  C   UNL     1      30.366 -23.018 -15.739  0.00  0.00    -0.000 C 
ATOM     18  C   UNL     1      30.297 -23.228 -14.361  0.00  0.00    +0.002 C 
ENDBRANCH  11  13
ENDBRANCH   8  11
ENDBRANCH   1   9
BRANCH   2  19
ATOM     19  S   UNL     1      35.242 -17.900 -22.127  0.00  0.00    +0.057 S 
ATOM     20  O   UNL     1      34.431 -17.992 -23.334  0.00  0.00    -0.153 OA
ATOM     21  O   UNL     1      35.157 -16.713 -21.287  0.00  0.00    -0.153 OA
BRANCH  19  22
ATOM     22  N   UNL     1      36.879 -18.162 -22.542  0.00  0.00    -0.203 NA
ATOM     23  H   UNL     1      37.240 -18.957 -22.015  0.00  0.00    +0.144 HD
ATOM     24  H   UNL     1      37.425 -17.329 -22.318  0.00  0.00    +0.144 HD
ENDBRANCH  19  22
ENDBRANCH   2  19
TORSDOF 5
ENDMDL
MODEL 8
REMARK VINA RESULT:      -9.8      5.242      8.781
REMARK  Name = 4290
REMARK  5 active torsions:
REMARK  status: ('A' for Active; 'I' for Inactive)
REMARK    1  A    between atoms: C_1  and  C_9
REMARK    2  A    between atoms: C_2  and  S_19
REMARK    3  A    between atoms: N_8  and  C_11
REMARK    4  A    between atoms: C_11  and  C_13
REMARK    5  A    between atoms: S_19  and  N_22
REMARK                            x       y       z     vdW  Elec       q    Type
REMARK                         _______ _______ _______ _____ _____    ______ ____
ROOT
ATOM      1  C   UNL     1      34.031 -21.889 -19.221  0.00  0.00    +0.053 C 
ATOM      2  C   UNL     1      34.761 -19.782 -20.899  0.00  0.00    +0.122 C 
ATOM      3  C   UNL     1      35.376 -21.664 -19.514  0.00  0.00    +0.006 C 
ATOM      4  C   UNL     1      33.051 -21.060 -19.768  0.00  0.00    +0.006 C 
ATOM      5  C   UNL     1      35.741 -20.610 -20.352  0.00  0.00    +0.020 C 
ATOM      6  C   UNL     1      33.416 -20.008 -20.608  0.00  0.00    +0.020 C 
ENDROOT
BRANCH   1   9
ATOM      7  O   UNL     1      33.739 -24.164 -18.737  0.00  0.00    -0.270 OA
ATOM      8  N   UNL     1      33.211 -22.651 -17.061  0.00  0.00    -0.297 N 
ATOM      9  C   UNL     1      33.650 -22.987 -18.346  0.00  0.00    +0.246 C 
ATOM     10  H   UNL     1      33.166 -21.698 -16.817  0.00  0.00    +0.150 HD
BRANCH   8  11
ATOM     11  C   UNL     1      32.821 -23.628 -16.069  0.00  0.00    +0.119 C 
BRANCH  11  13
ATOM     12  F   UNL     1      31.548 -25.457 -14.333  0.00  0.00    -0.204 F 
ATOM     13  C   UNL     1      31.331 -23.672 -15.881  0.00  0.00    +0.025 C 
ATOM     14  C   UNL     1      30.773 -24.598 -15.009  0.00  0.00    +0.138 C 
ATOM     15  C   UNL     1      30.527 -22.782 -16.584  0.00  0.00    -0.000 C 
ATOM     16  C   UNL     1      29.389 -24.637 -14.837  0.00  0.00    +0.029 C 
ATOM     17  C   UNL     1      29.143 -22.820 -16.411  0.00  0.00    -0.000 C 
ATOM     18  C   UNL     1      28.574 -23.748 -15.538  0.00  0.00    +0.002 C 
ENDBRANCH  11  13
ENDBRANCH   8  11
ENDBRANCH   1   9
BRANCH   2  19
ATOM     19  S   UNL     1      35.218 -18.465 -21.949  0.00  0.00    +0.057 S 
ATOM     20  O   UNL     1      34.454 -17.285 -21.566  0.00  0.00    -0.153 OA
ATOM     21  O   UNL     1      36.672 -18.400 -22.004  0.00  0.00    -0.153 OA
BRANCH  19  22
ATOM     22  N   UNL     1      34.637 -19.031 -23.454  0.00  0.00    -0.203 NA
ATOM     23  H   UNL     1      33.849 -19.660 -23.299  0.00  0.00    +0.144 HD
ATOM     24  H   UNL     1      35.381 -19.533 -23.939  0.00  0.00    +0.144 HD
ENDBRANCH  19  22
ENDBRANCH   2  19
TORSDOF 5
ENDMDL
MODEL 9
REMARK VINA RESULT:      -9.5      4.556      8.084
REMARK  Name = 4290
REMARK  5 active torsions:
REMARK  status: ('A' for Active; 'I' for Inactive)
REMARK    1  A    between atoms: C_1  and  C_9
REMARK    2  A    between atoms: C_2  and  S_19
REMARK    3  A    between atoms: N_8  and  C_11
REMARK    4  A    between atoms: C_11  and  C_13
REMARK    5  A    between atoms: S_19  and  N_22
REMARK                            x       y       z     vdW  Elec       q    Type
REMARK                         _______ _______ _______ _____ _____    ______ ____
ROOT
ATOM      1  C   UNL     1      33.618 -15.131 -22.275  0.00  0.00    +0.053 C 
ATOM      2  C   UNL     1      32.278 -12.782 -21.587  0.00  0.00    +0.122 C 
ATOM      3  C   UNL     1      33.315 -14.188 -23.256  0.00  0.00    +0.006 C 
ATOM      4  C   UNL     1      33.251 -14.900 -20.948  0.00  0.00    +0.006 C 
ATOM      5  C   UNL     1      32.646 -13.014 -22.913  0.00  0.00    +0.020 C 
ATOM      6  C   UNL     1      32.580 -13.726 -20.605  0.00  0.00    +0.020 C 
ENDROOT
BRANCH   1   9
ATOM      7  O   UNL     1      34.513 -16.644 -23.826  0.00  0.00    -0.270 OA
ATOM      8  N   UNL     1      34.766 -17.161 -21.580  0.00  0.00    -0.297 N 
ATOM      9  C   UNL     1      34.316 -16.356 -22.632  0.00  0.00    +0.246 C 
ATOM     10  H   UNL     1      34.576 -16.873 -20.658  0.00  0.00    +0.150 HD
BRANCH   8  11
ATOM     11  C   UNL     1      35.495 -18.395 -21.773  0.00  0.00    +0.119 C 
BRANCH  11  13
ATOM     12  F   UNL     1      37.097 -20.296 -20.431  0.00  0.00    -0.204 F 
ATOM     13  C   UNL     1      34.918 -19.520 -20.962  0.00  0.00    +0.025 C 
ATOM     14  C   UNL     1      35.766 -20.419 -20.328  0.00  0.00    +0.138 C 
ATOM     15  C   UNL     1      33.538 -19.648 -20.856  0.00  0.00    -0.000 C 
ATOM     16  C   UNL     1      35.228 -21.463 -19.575  0.00  0.00    +0.029 C 
ATOM     17  C   UNL     1      32.999 -20.692 -20.103  0.00  0.00    -0.000 C 
ATOM     18  C   UNL     1      33.844 -21.599 -19.463  0.00  0.00    +0.002 C 
ENDBRANCH  11  13
ENDBRANCH   8  11
ENDBRANCH   1   9
BRANCH   2  19
ATOM     19  S   UNL     1      31.440 -11.313 -21.158  0.00  0.00    +0.057 S 
ATOM     20  O   UNL     1      32.136 -10.190 -21.773  0.00  0.00    -0.153 OA
ATOM     21  O   UNL     1      30.017 -11.504 -21.402  0.00  0.00    -0.153 OA
BRANCH  19  22
ATOM     22  N   UNL     1      31.706 -11.267 -19.470  0.00  0.00    -0.203 NA
ATOM     23  H   UNL     1      32.579 -11.747 -19.251  0.00  0.00    +0.144 HD
ATOM     24  H   UNL     1      30.933 -11.731 -18.991  0.00  0.00    +0.144 HD
ENDBRANCH  19  22
ENDBRANCH   2  19
TORSDOF 5
ENDMDL
