MODEL 1
REMARK VINA RESULT:      -6.1      0.000      0.000
REMARK  Name = 51
REMARK  6 active torsions:
REMARK  status: ('A' for Active; 'I' for Inactive)
REMARK    1  A    between atoms: C_1  and  C_3
REMARK    2  A    between atoms: C_1  and  C_8
REMARK    3  A    between atoms: C_3  and  C_5
REMARK    4  A    between atoms: C_5  and  O_6
REMARK    5  A    between atoms: C_8  and  C_10
REMARK    6  A    between atoms: C_10  and  O_11
REMARK                            x       y       z     vdW  Elec       q    Type
REMARK                         _______ _______ _______ _____ _____    ______ ____
ROOT
ATOM      1  C   UNL     1      38.102 -25.679 -13.433  0.00  0.00    +0.088 C 
ENDROOT
BRANCH   1   3
ATOM      2  O   UNL     1      38.938 -23.993 -14.975  0.00  0.00    -0.284 OA
ATOM      3  C   UNL     1      39.069 -25.080 -14.432  0.00  0.00    +0.248 C 
BRANCH   3   5
ATOM      4  O   UNL     1      40.952 -26.477 -13.923  0.00  0.00    -0.242 OA
ATOM      5  C   UNL     1      40.280 -25.924 -14.770  0.00  0.00    +0.373 C 
BRANCH   5   6
ATOM      6  O   UNL     1      40.473 -25.954 -16.097  0.00  0.00    -0.475 OA
ATOM      7  H   UNL     1      40.964 -25.274 -16.515  0.00  0.00    +0.295 HD
ENDBRANCH   5   6
ENDBRANCH   3   5
ENDBRANCH   1   3
BRANCH   1   8
ATOM      8  C   UNL     1      37.297 -26.841 -14.008  0.00  0.00    +0.118 C 
BRANCH   8  10
ATOM      9  O   UNL     1      35.789 -25.555 -15.427  0.00  0.00    -0.250 OA
ATOM     10  C   UNL     1      36.580 -26.478 -15.291  0.00  0.00    +0.314 C 
BRANCH  10  11
ATOM     11  O   UNL     1      36.916 -27.321 -16.302  0.00  0.00    -0.480 OA
ATOM     12  H   UNL     1      37.608 -27.941 -16.184  0.00  0.00    +0.295 HD
ENDBRANCH  10  11
ENDBRANCH   8  10
ENDBRANCH   1   8
TORSDOF 6
ENDMDL
MODEL 2
REMARK VINA RESULT:      -5.9      2.353      3.360
REMARK  Name = 51
REMARK  6 active torsions:
REMARK  status: ('A' for Active; 'I' for Inactive)
REMARK    1  A    between atoms: C_1  and  C_3
REMARK    2  A    between atoms: C_1  and  C_8
REMARK    3  A    between atoms: C_3  and  C_5
REMARK    4  A    between atoms: C_5  and  O_6
REMARK    5  A    between atoms: C_8  and  C_10
REMARK    6  A    between atoms: C_10  and  O_11
REMARK                            x       y       z     vdW  Elec       q    Type
REMARK                         _______ _______ _______ _____ _____    ______ ____
ROOT
ATOM      1  C   UNL     1      37.933 -24.615 -14.035  0.00  0.00    +0.088 C 
ENDROOT
BRANCH   1   3
ATOM      2  O   UNL     1      38.422 -26.932 -14.591  0.00  0.00    -0.284 OA
ATOM      3  C   UNL     1      38.789 -25.770 -14.511  0.00  0.00    +0.248 C 
BRANCH   3   5
ATOM      4  O   UNL     1      40.928 -24.723 -14.220  0.00  0.00    -0.242 OA
ATOM      5  C   UNL     1      40.210 -25.424 -14.904  0.00  0.00    +0.373 C 
BRANCH   5   6
ATOM      6  O   UNL     1      40.523 -25.995 -16.076  0.00  0.00    -0.475 OA
ATOM      7  H   UNL     1      40.159 -25.661 -16.872  0.00  0.00    +0.295 HD
ENDBRANCH   5   6
ENDBRANCH   3   5
ENDBRANCH   1   3
BRANCH   1   8
ATOM      8  C   UNL     1      37.248 -24.894 -12.700  0.00  0.00    +0.118 C 
BRANCH   8  10
ATOM      9  O   UNL     1      38.521 -23.072 -11.701  0.00  0.00    -0.250 OA
ATOM     10  C   UNL     1      37.603 -23.879 -11.636  0.00  0.00    +0.314 C 
BRANCH  10  11
ATOM     11  O   UNL     1      36.771 -23.971 -10.566  0.00  0.00    -0.480 OA
ATOM     12  H   UNL     1      36.626 -24.799 -10.155  0.00  0.00    +0.295 HD
ENDBRANCH  10  11
ENDBRANCH   8  10
ENDBRANCH   1   8
TORSDOF 6
ENDMDL
MODEL 3
REMARK VINA RESULT:      -5.8      2.992      3.825
REMARK  Name = 51
REMARK  6 active torsions:
REMARK  status: ('A' for Active; 'I' for Inactive)
REMARK    1  A    between atoms: C_1  and  C_3
REMARK    2  A    between atoms: C_1  and  C_8
REMARK    3  A    between atoms: C_3  and  C_5
REMARK    4  A    between atoms: C_5  and  O_6
REMARK    5  A    between atoms: C_8  and  C_10
REMARK    6  A    between atoms: C_10  and  O_11
REMARK                            x       y       z     vdW  Elec       q    Type
REMARK                         _______ _______ _______ _____ _____    ______ ____
ROOT
ATOM      1  C   UNL     1      37.950 -24.487 -11.984  0.00  0.00    +0.088 C 
ENDROOT
BRANCH   1   3
ATOM      2  O   UNL     1      38.198 -24.013 -14.358  0.00  0.00    -0.284 OA
ATOM      3  C   UNL     1      38.014 -24.822 -13.460  0.00  0.00    +0.248 C 
BRANCH   3   5
ATOM      4  O   UNL     1      38.493 -26.845 -14.658  0.00  0.00    -0.242 OA
ATOM      5  C   UNL     1      37.822 -26.280 -13.818  0.00  0.00    +0.373 C 
BRANCH   5   6
ATOM      6  O   UNL     1      36.834 -26.814 -13.085  0.00  0.00    -0.475 OA
ATOM      7  H   UNL     1      36.987 -27.595 -12.590  0.00  0.00    +0.295 HD
ENDBRANCH   5   6
ENDBRANCH   3   5
ENDBRANCH   1   3
BRANCH   1   8
ATOM      8  C   UNL     1      36.756 -23.607 -11.625  0.00  0.00    +0.118 C 
BRANCH   8  10
ATOM      9  O   UNL     1      35.445 -24.488  -9.769  0.00  0.00    -0.250 OA
ATOM     10  C   UNL     1      35.632 -24.383 -10.974  0.00  0.00    +0.314 C 
BRANCH  10  11
ATOM     11  O   UNL     1      34.834 -24.973 -11.901  0.00  0.00    -0.480 OA
ATOM     12  H   UNL     1      34.453 -25.810 -11.727  0.00  0.00    +0.295 HD
ENDBRANCH  10  11
ENDBRANCH   8  10
ENDBRANCH   1   8
TORSDOF 6
ENDMDL
MODEL 4
REMARK VINA RESULT:      -5.7      3.139      4.473
REMARK  Name = 51
REMARK  6 active torsions:
REMARK  status: ('A' for Active; 'I' for Inactive)
REMARK    1  A    between atoms: C_1  and  C_3
REMARK    2  A    between atoms: C_1  and  C_8
REMARK    3  A    between atoms: C_3  and  C_5
REMARK    4  A    between atoms: C_5  and  O_6
REMARK    5  A    between atoms: C_8  and  C_10
REMARK    6  A    between atoms: C_10  and  O_11
REMARK                            x       y       z     vdW  Elec       q    Type
REMARK                         _______ _______ _______ _____ _____    ______ ____
ROOT
ATOM      1  C   UNL     1      38.031 -24.602 -12.060  0.00  0.00    +0.088 C 
ENDROOT
BRANCH   1   3
ATOM      2  O   UNL     1      37.201 -22.421 -11.370  0.00  0.00    -0.284 OA
ATOM      3  C   UNL     1      36.996 -23.609 -11.573  0.00  0.00    +0.248 C 
BRANCH   3   5
ATOM      4  O   UNL     1      35.395 -25.045 -10.511  0.00  0.00    -0.242 OA
ATOM      5  C   UNL     1      35.611 -24.166 -11.320  0.00  0.00    +0.373 C 
BRANCH   5   6
ATOM      6  O   UNL     1      34.711 -23.552 -12.102  0.00  0.00    -0.475 OA
ATOM      7  H   UNL     1      34.834 -23.532 -13.031  0.00  0.00    +0.295 HD
ENDBRANCH   5   6
ENDBRANCH   3   5
ENDBRANCH   1   3
BRANCH   1   8
ATOM      8  C   UNL     1      37.928 -24.882 -13.557  0.00  0.00    +0.118 C 
BRANCH   8  10
ATOM      9  O   UNL     1      38.358 -26.976 -14.726  0.00  0.00    -0.250 OA
ATOM     10  C   UNL     1      37.750 -26.352 -13.867  0.00  0.00    +0.314 C 
BRANCH  10  11
ATOM     11  O   UNL     1      36.807 -26.916 -13.068  0.00  0.00    -0.480 OA
ATOM     12  H   UNL     1      36.010 -26.459 -12.890  0.00  0.00    +0.295 HD
ENDBRANCH  10  11
ENDBRANCH   8  10
ENDBRANCH   1   8
TORSDOF 6
ENDMDL
MODEL 5
REMARK VINA RESULT:      -5.6      2.367      3.353
REMARK  Name = 51
REMARK  6 active torsions:
REMARK  status: ('A' for Active; 'I' for Inactive)
REMARK    1  A    between atoms: C_1  and  C_3
REMARK    2  A    between atoms: C_1  and  C_8
REMARK    3  A    between atoms: C_3  and  C_5
REMARK    4  A    between atoms: C_5  and  O_6
REMARK    5  A    between atoms: C_8  and  C_10
REMARK    6  A    between atoms: C_10  and  O_11
REMARK                            x       y       z     vdW  Elec       q    Type
REMARK                         _______ _______ _______ _____ _____    ______ ____
ROOT
ATOM      1  C   UNL     1      37.992 -25.817 -12.970  0.00  0.00    +0.088 C 
ENDROOT
BRANCH   1   3
ATOM      2  O   UNL     1      36.230 -25.370 -11.353  0.00  0.00    -0.284 OA
ATOM      3  C   UNL     1      37.124 -24.957 -12.076  0.00  0.00    +0.248 C 
BRANCH   3   5
ATOM      4  O   UNL     1      37.411 -22.778 -11.114  0.00  0.00    -0.242 OA
ATOM      5  C   UNL     1      37.405 -23.469 -12.112  0.00  0.00    +0.373 C 
BRANCH   5   6
ATOM      6  O   UNL     1      37.635 -23.068 -13.370  0.00  0.00    -0.475 OA
ATOM      7  H   UNL     1      37.218 -23.507 -14.086  0.00  0.00    +0.295 HD
ENDBRANCH   5   6
ENDBRANCH   3   5
ENDBRANCH   1   3
BRANCH   1   8
ATOM      8  C   UNL     1      37.183 -26.783 -13.832  0.00  0.00    +0.118 C 
BRANCH   8  10
ATOM      9  O   UNL     1      36.623 -25.038 -15.439  0.00  0.00    -0.250 OA
ATOM     10  C   UNL     1      36.855 -26.215 -15.196  0.00  0.00    +0.314 C 
BRANCH  10  11
ATOM     11  O   UNL     1      36.838 -27.185 -16.146  0.00  0.00    -0.480 OA
ATOM     12  H   UNL     1      36.443 -27.019 -16.979  0.00  0.00    +0.295 HD
ENDBRANCH  10  11
ENDBRANCH   8  10
ENDBRANCH   1   8
TORSDOF 6
ENDMDL
MODEL 6
REMARK VINA RESULT:      -5.5      2.766      4.170
REMARK  Name = 51
REMARK  6 active torsions:
REMARK  status: ('A' for Active; 'I' for Inactive)
REMARK    1  A    between atoms: C_1  and  C_3
REMARK    2  A    between atoms: C_1  and  C_8
REMARK    3  A    between atoms: C_3  and  C_5
REMARK    4  A    between atoms: C_5  and  O_6
REMARK    5  A    between atoms: C_8  and  C_10
REMARK    6  A    between atoms: C_10  and  O_11
REMARK                            x       y       z     vdW  Elec       q    Type
REMARK                         _______ _______ _______ _____ _____    ______ ____
ROOT
ATOM      1  C   UNL     1      37.174 -23.943 -14.121  0.00  0.00    +0.088 C 
ENDROOT
BRANCH   1   3
ATOM      2  O   UNL     1      35.826 -25.427 -15.500  0.00  0.00    -0.284 OA
ATOM      3  C   UNL     1      36.701 -25.277 -14.660  0.00  0.00    +0.248 C 
BRANCH   3   5
ATOM      4  O   UNL     1      38.275 -27.088 -14.658  0.00  0.00    -0.242 OA
ATOM      5  C   UNL     1      37.379 -26.503 -14.084  0.00  0.00    +0.373 C 
BRANCH   5   6
ATOM      6  O   UNL     1      36.848 -26.814 -12.893  0.00  0.00    -0.475 OA
ATOM      7  H   UNL     1      37.393 -26.844 -12.130  0.00  0.00    +0.295 HD
ENDBRANCH   5   6
ENDBRANCH   3   5
ENDBRANCH   1   3
BRANCH   1   8
ATOM      8  C   UNL     1      36.307 -23.423 -12.978  0.00  0.00    +0.118 C 
BRANCH   8  10
ATOM      9  O   UNL     1      37.181 -24.529 -10.989  0.00  0.00    -0.250 OA
ATOM     10  C   UNL     1      36.999 -23.505 -11.635  0.00  0.00    +0.314 C 
BRANCH  10  11
ATOM     11  O   UNL     1      37.400 -22.279 -11.208  0.00  0.00    -0.480 OA
ATOM     12  H   UNL     1      38.217 -22.183 -10.761  0.00  0.00    +0.295 HD
ENDBRANCH  10  11
ENDBRANCH   8  10
ENDBRANCH   1   8
TORSDOF 6
ENDMDL
MODEL 7
REMARK VINA RESULT:      -5.4      8.474     10.289
REMARK  Name = 51
REMARK  6 active torsions:
REMARK  status: ('A' for Active; 'I' for Inactive)
REMARK    1  A    between atoms: C_1  and  C_3
REMARK    2  A    between atoms: C_1  and  C_8
REMARK    3  A    between atoms: C_3  and  C_5
REMARK    4  A    between atoms: C_5  and  O_6
REMARK    5  A    between atoms: C_8  and  C_10
REMARK    6  A    between atoms: C_10  and  O_11
REMARK                            x       y       z     vdW  Elec       q    Type
REMARK                         _______ _______ _______ _____ _____    ______ ____
ROOT
ATOM      1  C   UNL     1      30.109 -23.013 -16.066  0.00  0.00    +0.088 C 
ENDROOT
BRANCH   1   3
ATOM      2  O   UNL     1      28.083 -21.833 -15.417  0.00  0.00    -0.284 OA
ATOM      3  C   UNL     1      28.645 -22.631 -16.150  0.00  0.00    +0.248 C 
BRANCH   3   5
ATOM      4  O   UNL     1      27.133 -22.713 -18.012  0.00  0.00    -0.242 OA
ATOM      5  C   UNL     1      27.842 -23.319 -17.234  0.00  0.00    +0.373 C 
BRANCH   5   6
ATOM      6  O   UNL     1      28.039 -24.645 -17.190  0.00  0.00    -0.475 OA
ATOM      7  H   UNL     1      27.407 -25.225 -17.569  0.00  0.00    +0.295 HD
ENDBRANCH   5   6
ENDBRANCH   3   5
ENDBRANCH   1   3
BRANCH   1   8
ATOM      8  C   UNL     1      30.567 -23.299 -14.639  0.00  0.00    +0.118 C 
BRANCH   8  10
ATOM      9  O   UNL     1      29.977 -25.640 -14.968  0.00  0.00    -0.250 OA
ATOM     10  C   UNL     1      30.330 -24.735 -14.224  0.00  0.00    +0.314 C 
BRANCH  10  11
ATOM     11  O   UNL     1      30.551 -24.910 -12.896  0.00  0.00    -0.480 OA
ATOM     12  H   UNL     1      29.836 -25.108 -12.324  0.00  0.00    +0.295 HD
ENDBRANCH  10  11
ENDBRANCH   8  10
ENDBRANCH   1   8
TORSDOF 6
ENDMDL
MODEL 8
REMARK VINA RESULT:      -5.4      2.317      4.643
REMARK  Name = 51
REMARK  6 active torsions:
REMARK  status: ('A' for Active; 'I' for Inactive)
REMARK    1  A    between atoms: C_1  and  C_3
REMARK    2  A    between atoms: C_1  and  C_8
REMARK    3  A    between atoms: C_3  and  C_5
REMARK    4  A    between atoms: C_5  and  O_6
REMARK    5  A    between atoms: C_8  and  C_10
REMARK    6  A    between atoms: C_10  and  O_11
REMARK                            x       y       z     vdW  Elec       q    Type
REMARK                         _______ _______ _______ _____ _____    ______ ____
ROOT
ATOM      1  C   UNL     1      38.466 -24.974 -12.925  0.00  0.00    +0.088 C 
ENDROOT
BRANCH   1   3
ATOM      2  O   UNL     1      36.962 -26.526 -11.806  0.00  0.00    -0.284 OA
ATOM      3  C   UNL     1      37.144 -25.452 -12.359  0.00  0.00    +0.248 C 
BRANCH   3   5
ATOM      4  O   UNL     1      36.049 -23.468 -13.147  0.00  0.00    -0.242 OA
ATOM      5  C   UNL     1      35.975 -24.503 -12.516  0.00  0.00    +0.373 C 
BRANCH   5   6
ATOM      6  O   UNL     1      34.899 -24.978 -11.871  0.00  0.00    -0.475 OA
ATOM      7  H   UNL     1      35.000 -25.409 -11.045  0.00  0.00    +0.295 HD
ENDBRANCH   5   6
ENDBRANCH   3   5
ENDBRANCH   1   3
BRANCH   1   8
ATOM      8  C   UNL     1      38.872 -25.718 -14.194  0.00  0.00    +0.118 C 
BRANCH   8  10
ATOM      9  O   UNL     1      41.028 -26.794 -14.561  0.00  0.00    -0.250 OA
ATOM     10  C   UNL     1      40.372 -25.776 -14.384  0.00  0.00    +0.314 C 
BRANCH  10  11
ATOM     11  O   UNL     1      40.927 -24.538 -14.328  0.00  0.00    -0.480 OA
ATOM     12  H   UNL     1      41.739 -24.368 -14.762  0.00  0.00    +0.295 HD
ENDBRANCH  10  11
ENDBRANCH   8  10
ENDBRANCH   1   8
TORSDOF 6
ENDMDL
MODEL 9
REMARK VINA RESULT:      -5.4      2.059      4.010
REMARK  Name = 51
REMARK  6 active torsions:
REMARK  status: ('A' for Active; 'I' for Inactive)
REMARK    1  A    between atoms: C_1  and  C_3
REMARK    2  A    between atoms: C_1  and  C_8
REMARK    3  A    between atoms: C_3  and  C_5
REMARK    4  A    between atoms: C_5  and  O_6
REMARK    5  A    between atoms: C_8  and  C_10
REMARK    6  A    between atoms: C_10  and  O_11
REMARK                            x       y       z     vdW  Elec       q    Type
REMARK                         _______ _______ _______ _____ _____    ______ ____
ROOT
ATOM      1  C   UNL     1      37.220 -25.998 -12.940  0.00  0.00    +0.088 C 
ENDROOT
BRANCH   1   3
ATOM      2  O   UNL     1      38.728 -27.003 -14.564  0.00  0.00    -0.284 OA
ATOM      3  C   UNL     1      37.638 -26.519 -14.300  0.00  0.00    +0.248 C 
BRANCH   3   5
ATOM      4  O   UNL     1      35.736 -25.557 -15.402  0.00  0.00    -0.242 OA
ATOM      5  C   UNL     1      36.601 -26.409 -15.399  0.00  0.00    +0.373 C 
BRANCH   5   6
ATOM      6  O   UNL     1      36.794 -27.365 -16.319  0.00  0.00    -0.475 OA
ATOM      7  H   UNL     1      36.126 -27.548 -16.951  0.00  0.00    +0.295 HD
ENDBRANCH   5   6
ENDBRANCH   3   5
ENDBRANCH   1   3
BRANCH   1   8
ATOM      8  C   UNL     1      38.258 -25.069 -12.316  0.00  0.00    +0.118 C 
BRANCH   8  10
ATOM      9  O   UNL     1      38.354 -22.741 -11.602  0.00  0.00    -0.250 OA
ATOM     10  C   UNL     1      37.704 -23.695 -12.007  0.00  0.00    +0.314 C 
BRANCH  10  11
ATOM     11  O   UNL     1      36.365 -23.640 -12.227  0.00  0.00    -0.480 OA
ATOM     12  H   UNL     1      36.018 -23.870 -13.066  0.00  0.00    +0.295 HD
ENDBRANCH  10  11
ENDBRANCH   8  10
ENDBRANCH   1   8
TORSDOF 6
ENDMDL
