MODEL 1
REMARK VINA RESULT:      -9.8      0.000      0.000
REMARK  Name = 21743
REMARK  7 active torsions:
REMARK  status: ('A' for Active; 'I' for Inactive)
REMARK    1  A    between atoms: CA_5  and  N_11
REMARK    2  A    between atoms: CA_7  and  C_22
REMARK    3  A    between atoms: C_8  and  C_23
REMARK    4  A    between atoms: C_12  and  C_14
REMARK    5  A    between atoms: C_14  and  C_16
REMARK    6  A    between atoms: C_23  and  N_24
REMARK    7  A    between atoms: C_29  and  C_32
REMARK                            x       y       z     vdW  Elec       q    Type
REMARK                         _______ _______ _______ _____ _____    ______ ____
ROOT
ATOM      1  S   UNL     1      37.273 -22.436 -16.122  0.00  0.00    -0.114 S 
ATOM      2  O   UNL     1      32.902 -23.961 -15.685  0.00  0.00    -0.273 OA
ATOM      3  N   UNL     1      34.669 -22.676 -16.564  0.00  0.00    -0.242 N 
ATOM      4  C   UNL     1      35.581 -22.018 -15.647  0.00  0.00    +0.155 C 
ATOM      5  CA  UNL     1      34.939 -22.888 -14.542  0.00  0.00    +0.178 C 
ATOM      6  C   UNL     1      33.912 -23.298 -15.637  0.00  0.00    +0.251 C 
ATOM      7  CA  UNL     1      34.735 -22.571 -17.915  0.00  0.00    +0.129 C 
ATOM      8  C   UNL     1      35.836 -22.073 -18.525  0.00  0.00    +0.007 C 
ATOM      9  C   UNL     1      37.111 -21.686 -17.779  0.00  0.00    +0.084 C 
ENDROOT
BRANCH   5  11
ATOM     10  O   UNL     1      35.030 -23.783 -11.798  0.00  0.00    -0.275 OA
ATOM     11  N   UNL     1      35.703 -24.015 -14.007  0.00  0.00    -0.296 N 
ATOM     12  C   UNL     1      35.682 -24.371 -12.660  0.00  0.00    +0.228 C 
ATOM     13  H   UNL     1      36.256 -24.545 -14.625  0.00  0.00    +0.150 HD
BRANCH  12  14
ATOM     14  C   UNL     1      36.536 -25.580 -12.337  0.00  0.00    +0.118 C 
BRANCH  14  16
ATOM     15  S   UNL     1      37.836 -26.468 -14.602  0.00  0.00    -0.090 S 
ATOM     16  C   UNL     1      37.781 -25.542 -13.178  0.00  0.00    +0.016 C 
ATOM     17  C   UNL     1      38.923 -24.835 -12.943  0.00  0.00    +0.003 C 
ATOM     18  C   UNL     1      39.886 -25.056 -13.969  0.00  0.00    +0.007 C 
ATOM     19  C   UNL     1      39.425 -25.924 -14.934  0.00  0.00    +0.035 C 
ENDBRANCH  14  16
ENDBRANCH  12  14
ENDBRANCH   5  11
BRANCH   7  22
ATOM     20  O   UNL     1      32.521 -22.346 -18.663  0.00  0.00    -0.239 OA
ATOM     21  OXT UNL     1      33.767 -24.123 -19.387  0.00  0.00    -0.239 OA
ATOM     22  C   UNL     1      33.551 -23.064 -18.740  0.00  0.00    +0.401 C 
ENDBRANCH   7  22
BRANCH   8  23
ATOM     23  C   UNL     1      35.989 -21.897 -20.018  0.00  0.00    +0.116 C 
BRANCH  23  24
ATOM     24  N   UNL     1      35.538 -20.554 -20.413  0.00  0.00    -0.299 N 
ATOM     25  C   UNL     1      36.458 -19.608 -20.611  0.00  0.00    +0.118 C 
ATOM     26  C   UNL     1      34.228 -20.341 -20.556  0.00  0.00    +0.062 C 
ATOM     27  C   UNL     1      36.062 -18.332 -20.986  0.00  0.00    -0.000 C 
ATOM     28  C   UNL     1      33.774 -19.084 -20.929  0.00  0.00    +0.020 C 
ATOM     29  C   UNL     1      34.704 -18.072 -21.145  0.00  0.00    +0.052 C 
BRANCH  29  32
ATOM     30  O   UNL     1      33.316 -16.178 -20.955  0.00  0.00    -0.270 OA
ATOM     31  N   UNL     1      34.935 -16.115 -22.577  0.00  0.00    -0.325 N 
ATOM     32  C   UNL     1      34.258 -16.744 -21.537  0.00  0.00    +0.243 C 
ATOM     33  H   UNL     1      34.661 -15.215 -22.870  0.00  0.00    +0.145 HD
ATOM     34  H   UNL     1      35.687 -16.569 -23.022  0.00  0.00    +0.145 HD
ENDBRANCH  29  32
ENDBRANCH  23  24
ENDBRANCH   8  23
TORSDOF 7
ENDMDL
MODEL 2
REMARK VINA RESULT:      -9.1      4.984     11.421
REMARK  Name = 21743
REMARK  7 active torsions:
REMARK  status: ('A' for Active; 'I' for Inactive)
REMARK    1  A    between atoms: CA_5  and  N_11
REMARK    2  A    between atoms: CA_7  and  C_22
REMARK    3  A    between atoms: C_8  and  C_23
REMARK    4  A    between atoms: C_12  and  C_14
REMARK    5  A    between atoms: C_14  and  C_16
REMARK    6  A    between atoms: C_23  and  N_24
REMARK    7  A    between atoms: C_29  and  C_32
REMARK                            x       y       z     vdW  Elec       q    Type
REMARK                         _______ _______ _______ _____ _____    ______ ____
ROOT
ATOM      1  S   UNL     1      34.016 -15.852 -20.944  0.00  0.00    -0.114 S 
ATOM      2  O   UNL     1      33.730 -14.596 -25.413  0.00  0.00    -0.273 OA
ATOM      3  N   UNL     1      34.452 -15.859 -23.561  0.00  0.00    -0.242 N 
ATOM      4  C   UNL     1      34.892 -15.163 -22.367  0.00  0.00    +0.155 C 
ATOM      5  CA  UNL     1      34.283 -13.892 -23.003  0.00  0.00    +0.178 C 
ATOM      6  C   UNL     1      34.103 -14.770 -24.276  0.00  0.00    +0.251 C 
ATOM      7  CA  UNL     1      34.464 -17.208 -23.708  0.00  0.00    +0.129 C 
ATOM      8  C   UNL     1      34.619 -18.026 -22.641  0.00  0.00    +0.007 C 
ATOM      9  C   UNL     1      34.693 -17.529 -21.200  0.00  0.00    +0.084 C 
ENDROOT
BRANCH   5  11
ATOM     10  O   UNL     1      33.003 -11.392 -23.671  0.00  0.00    -0.275 OA
ATOM     11  N   UNL     1      33.024 -13.376 -22.467  0.00  0.00    -0.296 N 
ATOM     12  C   UNL     1      32.484 -12.152 -22.853  0.00  0.00    +0.228 C 
ATOM     13  H   UNL     1      32.537 -13.917 -21.804  0.00  0.00    +0.150 HD
BRANCH  12  14
ATOM     14  C   UNL     1      31.166 -11.829 -22.181  0.00  0.00    +0.118 C 
BRANCH  14  16
ATOM     15  S   UNL     1      31.866  -9.340 -21.219  0.00  0.00    -0.090 S 
ATOM     16  C   UNL     1      31.425 -10.964 -20.979  0.00  0.00    +0.016 C 
ATOM     17  C   UNL     1      31.351 -11.320 -19.665  0.00  0.00    +0.003 C 
ATOM     18  C   UNL     1      31.667 -10.223 -18.814  0.00  0.00    +0.007 C 
ATOM     19  C   UNL     1      31.967  -9.083 -19.528  0.00  0.00    +0.035 C 
ENDBRANCH  14  16
ENDBRANCH  12  14
ENDBRANCH   5  11
BRANCH   7  22
ATOM     20  O   UNL     1      35.038 -17.332 -25.981  0.00  0.00    -0.239 OA
ATOM     21  OXT UNL     1      33.339 -18.643 -25.187  0.00  0.00    -0.239 OA
ATOM     22  C   UNL     1      34.259 -17.787 -25.103  0.00  0.00    +0.401 C 
ENDBRANCH   7  22
BRANCH   8  23
ATOM     23  C   UNL     1      34.668 -19.535 -22.712  0.00  0.00    +0.116 C 
BRANCH  23  24
ATOM     24  N   UNL     1      35.123 -20.082 -21.425  0.00  0.00    -0.299 N 
ATOM     25  C   UNL     1      34.241 -20.739 -20.668  0.00  0.00    +0.118 C 
ATOM     26  C   UNL     1      36.396 -19.898 -21.071  0.00  0.00    +0.062 C 
ATOM     27  C   UNL     1      34.642 -21.267 -19.449  0.00  0.00    -0.000 C 
ATOM     28  C   UNL     1      36.852 -20.405 -19.862  0.00  0.00    +0.020 C 
ATOM     29  C   UNL     1      35.962 -21.096 -19.046  0.00  0.00    +0.052 C 
BRANCH  29  32
ATOM     30  O   UNL     1      36.028 -22.751 -17.371  0.00  0.00    -0.270 OA
ATOM     31  N   UNL     1      37.304 -20.878 -17.024  0.00  0.00    -0.325 N 
ATOM     32  C   UNL     1      36.412 -21.639 -17.773  0.00  0.00    +0.243 C 
ATOM     33  H   UNL     1      37.630 -21.213 -16.158  0.00  0.00    +0.145 HD
ATOM     34  H   UNL     1      37.609 -20.004 -17.361  0.00  0.00    +0.145 HD
ENDBRANCH  29  32
ENDBRANCH  23  24
ENDBRANCH   8  23
TORSDOF 7
ENDMDL
MODEL 3
REMARK VINA RESULT:      -9.1      4.983     11.385
REMARK  Name = 21743
REMARK  7 active torsions:
REMARK  status: ('A' for Active; 'I' for Inactive)
REMARK    1  A    between atoms: CA_5  and  N_11
REMARK    2  A    between atoms: CA_7  and  C_22
REMARK    3  A    between atoms: C_8  and  C_23
REMARK    4  A    between atoms: C_12  and  C_14
REMARK    5  A    between atoms: C_14  and  C_16
REMARK    6  A    between atoms: C_23  and  N_24
REMARK    7  A    between atoms: C_29  and  C_32
REMARK                            x       y       z     vdW  Elec       q    Type
REMARK                         _______ _______ _______ _____ _____    ______ ____
ROOT
ATOM      1  S   UNL     1      34.019 -15.858 -20.937  0.00  0.00    -0.114 S 
ATOM      2  O   UNL     1      33.731 -14.596 -25.404  0.00  0.00    -0.273 OA
ATOM      3  N   UNL     1      34.456 -15.860 -23.553  0.00  0.00    -0.242 N 
ATOM      4  C   UNL     1      34.894 -15.165 -22.358  0.00  0.00    +0.155 C 
ATOM      5  CA  UNL     1      34.283 -13.895 -22.992  0.00  0.00    +0.178 C 
ATOM      6  C   UNL     1      34.105 -14.771 -24.267  0.00  0.00    +0.251 C 
ATOM      7  CA  UNL     1      34.469 -17.209 -23.703  0.00  0.00    +0.129 C 
ATOM      8  C   UNL     1      34.625 -18.029 -22.637  0.00  0.00    +0.007 C 
ATOM      9  C   UNL     1      34.698 -17.533 -21.195  0.00  0.00    +0.084 C 
ENDROOT
BRANCH   5  11
ATOM     10  O   UNL     1      33.003 -11.392 -23.651  0.00  0.00    -0.275 OA
ATOM     11  N   UNL     1      33.024 -13.381 -22.455  0.00  0.00    -0.296 N 
ATOM     12  C   UNL     1      32.484 -12.155 -22.838  0.00  0.00    +0.228 C 
ATOM     13  H   UNL     1      32.536 -13.925 -21.796  0.00  0.00    +0.150 HD
BRANCH  12  14
ATOM     14  C   UNL     1      31.165 -11.835 -22.165  0.00  0.00    +0.118 C 
BRANCH  14  16
ATOM     15  S   UNL     1      31.868  -9.344 -21.212  0.00  0.00    -0.090 S 
ATOM     16  C   UNL     1      31.421 -10.965 -20.966  0.00  0.00    +0.016 C 
ATOM     17  C   UNL     1      31.340 -11.315 -19.651  0.00  0.00    +0.003 C 
ATOM     18  C   UNL     1      31.656 -10.214 -18.805  0.00  0.00    +0.007 C 
ATOM     19  C   UNL     1      31.962  -9.079 -19.523  0.00  0.00    +0.035 C 
ENDBRANCH  14  16
ENDBRANCH  12  14
ENDBRANCH   5  11
BRANCH   7  22
ATOM     20  O   UNL     1      33.347 -18.643 -25.183  0.00  0.00    -0.239 OA
ATOM     21  OXT UNL     1      35.042 -17.327 -25.976  0.00  0.00    -0.239 OA
ATOM     22  C   UNL     1      34.265 -17.787 -25.099  0.00  0.00    +0.401 C 
ENDBRANCH   7  22
BRANCH   8  23
ATOM     23  C   UNL     1      34.677 -19.538 -22.710  0.00  0.00    +0.116 C 
BRANCH  23  24
ATOM     24  N   UNL     1      35.128 -20.086 -21.422  0.00  0.00    -0.299 N 
ATOM     25  C   UNL     1      36.401 -19.900 -21.065  0.00  0.00    +0.118 C 
ATOM     26  C   UNL     1      34.246 -20.744 -20.668  0.00  0.00    +0.062 C 
ATOM     27  C   UNL     1      36.855 -20.404 -19.855  0.00  0.00    -0.000 C 
ATOM     28  C   UNL     1      34.645 -21.271 -19.448  0.00  0.00    +0.020 C 
ATOM     29  C   UNL     1      35.965 -21.097 -19.041  0.00  0.00    +0.052 C 
BRANCH  29  32
ATOM     30  O   UNL     1      36.032 -22.751 -17.366  0.00  0.00    -0.270 OA
ATOM     31  N   UNL     1      37.297 -20.872 -17.014  0.00  0.00    -0.325 N 
ATOM     32  C   UNL     1      36.412 -21.637 -17.766  0.00  0.00    +0.243 C 
ATOM     33  H   UNL     1      37.621 -21.206 -16.146  0.00  0.00    +0.145 HD
ATOM     34  H   UNL     1      37.599 -19.997 -17.348  0.00  0.00    +0.145 HD
ENDBRANCH  29  32
ENDBRANCH  23  24
ENDBRANCH   8  23
TORSDOF 7
ENDMDL
MODEL 4
REMARK VINA RESULT:      -8.3      8.813     14.293
REMARK  Name = 21743
REMARK  7 active torsions:
REMARK  status: ('A' for Active; 'I' for Inactive)
REMARK    1  A    between atoms: CA_5  and  N_11
REMARK    2  A    between atoms: CA_7  and  C_22
REMARK    3  A    between atoms: C_8  and  C_23
REMARK    4  A    between atoms: C_12  and  C_14
REMARK    5  A    between atoms: C_14  and  C_16
REMARK    6  A    between atoms: C_23  and  N_24
REMARK    7  A    between atoms: C_29  and  C_32
REMARK                            x       y       z     vdW  Elec       q    Type
REMARK                         _______ _______ _______ _____ _____    ______ ____
ROOT
ATOM      1  S   UNL     1      32.015 -11.852 -21.829  0.00  0.00    -0.114 S 
ATOM      2  O   UNL     1      35.300 -10.660 -24.897  0.00  0.00    -0.273 OA
ATOM      3  N   UNL     1      33.336 -10.411 -23.622  0.00  0.00    -0.242 N 
ATOM      4  C   UNL     1      32.394 -11.513 -23.563  0.00  0.00    +0.155 C 
ATOM      5  CA  UNL     1      33.509 -12.370 -24.206  0.00  0.00    +0.178 C 
ATOM      6  C   UNL     1      34.269 -11.022 -24.381  0.00  0.00    +0.251 C 
ATOM      7  CA  UNL     1      33.147  -9.210 -23.020  0.00  0.00    +0.129 C 
ATOM      8  C   UNL     1      32.193  -9.045 -22.074  0.00  0.00    +0.007 C 
ATOM      9  C   UNL     1      31.329 -10.185 -21.538  0.00  0.00    +0.084 C 
ENDROOT
BRANCH   5  11
ATOM     10  O   UNL     1      33.461 -15.247 -24.447  0.00  0.00    -0.275 OA
ATOM     11  N   UNL     1      34.219 -13.336 -23.369  0.00  0.00    -0.296 N 
ATOM     12  C   UNL     1      34.132 -14.713 -23.565  0.00  0.00    +0.228 C 
ATOM     13  H   UNL     1      34.783 -13.000 -22.635  0.00  0.00    +0.150 HD
BRANCH  12  14
ATOM     14  C   UNL     1      34.965 -15.520 -22.591  0.00  0.00    +0.118 C 
BRANCH  14  16
ATOM     15  S   UNL     1      34.565 -18.099 -21.697  0.00  0.00    -0.090 S 
ATOM     16  C   UNL     1      34.858 -16.978 -22.941  0.00  0.00    +0.016 C 
ATOM     17  C   UNL     1      34.968 -17.548 -24.174  0.00  0.00    +0.003 C 
ATOM     18  C   UNL     1      34.807 -18.962 -24.105  0.00  0.00    +0.007 C 
ATOM     19  C   UNL     1      34.582 -19.395 -22.816  0.00  0.00    +0.035 C 
ENDBRANCH  14  16
ENDBRANCH  12  14
ENDBRANCH   5  11
BRANCH   7  22
ATOM     20  O   UNL     1      34.902  -7.734 -22.522  0.00  0.00    -0.239 OA
ATOM     21  OXT UNL     1      33.855  -7.577 -24.550  0.00  0.00    -0.239 OA
ATOM     22  C   UNL     1      34.063  -8.053 -23.403  0.00  0.00    +0.401 C 
ENDBRANCH   7  22
BRANCH   8  23
ATOM     23  C   UNL     1      31.895  -7.743 -21.368  0.00  0.00    +0.116 C 
BRANCH  23  24
ATOM     24  N   UNL     1      31.625  -6.688 -22.357  0.00  0.00    -0.299 N 
ATOM     25  C   UNL     1      30.921  -7.004 -23.446  0.00  0.00    +0.118 C 
ATOM     26  C   UNL     1      32.095  -5.461 -22.121  0.00  0.00    +0.062 C 
ATOM     27  C   UNL     1      30.650  -6.029 -24.395  0.00  0.00    -0.000 C 
ATOM     28  C   UNL     1      31.855  -4.447 -23.037  0.00  0.00    +0.020 C 
ATOM     29  C   UNL     1      31.124  -4.738 -24.185  0.00  0.00    +0.052 C 
BRANCH  29  32
ATOM     30  O   UNL     1      29.920  -2.890 -25.011  0.00  0.00    -0.270 OA
ATOM     31  N   UNL     1      31.695  -3.614 -26.269  0.00  0.00    -0.325 N 
ATOM     32  C   UNL     1      30.855  -3.695 -25.162  0.00  0.00    +0.243 C 
ATOM     33  H   UNL     1      31.543  -2.921 -26.952  0.00  0.00    +0.145 HD
ATOM     34  H   UNL     1      32.439  -4.250 -26.370  0.00  0.00    +0.145 HD
ENDBRANCH  29  32
ENDBRANCH  23  24
ENDBRANCH   8  23
TORSDOF 7
ENDMDL
MODEL 5
REMARK VINA RESULT:      -8.2      5.939     12.719
REMARK  Name = 21743
REMARK  7 active torsions:
REMARK  status: ('A' for Active; 'I' for Inactive)
REMARK    1  A    between atoms: CA_5  and  N_11
REMARK    2  A    between atoms: CA_7  and  C_22
REMARK    3  A    between atoms: C_8  and  C_23
REMARK    4  A    between atoms: C_12  and  C_14
REMARK    5  A    between atoms: C_14  and  C_16
REMARK    6  A    between atoms: C_23  and  N_24
REMARK    7  A    between atoms: C_29  and  C_32
REMARK                            x       y       z     vdW  Elec       q    Type
REMARK                         _______ _______ _______ _____ _____    ______ ____
ROOT
ATOM      1  S   UNL     1      33.343 -14.857 -21.321  0.00  0.00    -0.114 S 
ATOM      2  O   UNL     1      33.940 -13.326 -25.671  0.00  0.00    -0.273 OA
ATOM      3  N   UNL     1      34.185 -14.781 -23.835  0.00  0.00    -0.242 N 
ATOM      4  C   UNL     1      34.517 -14.223 -22.538  0.00  0.00    +0.155 C 
ATOM      5  CA  UNL     1      34.192 -12.844 -23.158  0.00  0.00    +0.178 C 
ATOM      6  C   UNL     1      34.101 -13.615 -24.508  0.00  0.00    +0.251 C 
ATOM      7  CA  UNL     1      34.040 -16.107 -24.083  0.00  0.00    +0.129 C 
ATOM      8  C   UNL     1      33.913 -16.998 -23.071  0.00  0.00    +0.007 C 
ATOM      9  C   UNL     1      33.823 -16.597 -21.601  0.00  0.00    +0.084 C 
ENDROOT
BRANCH   5  11
ATOM     10  O   UNL     1      33.493 -10.074 -23.574  0.00  0.00    -0.275 OA
ATOM     11  N   UNL     1      32.944 -12.184 -22.778  0.00  0.00    -0.296 N 
ATOM     12  C   UNL     1      32.698 -10.835 -23.023  0.00  0.00    +0.228 C 
ATOM     13  H   UNL     1      32.247 -12.715 -22.330  0.00  0.00    +0.150 HD
BRANCH  12  14
ATOM     14  C   UNL     1      31.333 -10.370 -22.558  0.00  0.00    +0.118 C 
BRANCH  14  16
ATOM     15  S   UNL     1      32.026  -8.099 -21.155  0.00  0.00    -0.090 S 
ATOM     16  C   UNL     1      31.319  -8.868 -22.496  0.00  0.00    +0.016 C 
ATOM     17  C   UNL     1      30.793  -8.002 -23.407  0.00  0.00    +0.003 C 
ATOM     18  C   UNL     1      30.973  -6.650 -22.997  0.00  0.00    +0.007 C 
ATOM     19  C   UNL     1      31.630  -6.558 -21.790  0.00  0.00    +0.035 C 
ENDBRANCH  14  16
ENDBRANCH  12  14
ENDBRANCH   5  11
BRANCH   7  22
ATOM     20  O   UNL     1      32.888 -16.355 -26.112  0.00  0.00    -0.239 OA
ATOM     21  OXT UNL     1      35.042 -17.110 -25.954  0.00  0.00    -0.239 OA
ATOM     22  C   UNL     1      33.984 -16.573 -25.533  0.00  0.00    +0.401 C 
ENDBRANCH   7  22
BRANCH   8  23
ATOM     23  C   UNL     1      33.772 -18.492 -23.250  0.00  0.00    +0.116 C 
BRANCH  23  24
ATOM     24  N   UNL     1      34.379 -19.192 -22.108  0.00  0.00    -0.299 N 
ATOM     25  C   UNL     1      33.587 -19.917 -21.314  0.00  0.00    +0.118 C 
ATOM     26  C   UNL     1      35.694 -19.073 -21.915  0.00  0.00    +0.062 C 
ATOM     27  C   UNL     1      34.131 -20.590 -20.230  0.00  0.00    -0.000 C 
ATOM     28  C   UNL     1      36.292 -19.724 -20.846  0.00  0.00    +0.020 C 
ATOM     29  C   UNL     1      35.499 -20.490 -19.997  0.00  0.00    +0.052 C 
BRANCH  29  32
ATOM     30  O   UNL     1      35.731 -22.325 -18.540  0.00  0.00    -0.270 OA
ATOM     31  N   UNL     1      37.115 -20.534 -18.174  0.00  0.00    -0.325 N 
ATOM     32  C   UNL     1      36.099 -21.184 -18.868  0.00  0.00    +0.243 C 
ATOM     33  H   UNL     1      37.544 -20.973 -17.404  0.00  0.00    +0.145 HD
ATOM     34  H   UNL     1      37.404 -19.635 -18.453  0.00  0.00    +0.145 HD
ENDBRANCH  29  32
ENDBRANCH  23  24
ENDBRANCH   8  23
TORSDOF 7
ENDMDL
MODEL 6
REMARK VINA RESULT:      -8.2      3.143      5.465
REMARK  Name = 21743
REMARK  7 active torsions:
REMARK  status: ('A' for Active; 'I' for Inactive)
REMARK    1  A    between atoms: CA_5  and  N_11
REMARK    2  A    between atoms: CA_7  and  C_22
REMARK    3  A    between atoms: C_8  and  C_23
REMARK    4  A    between atoms: C_12  and  C_14
REMARK    5  A    between atoms: C_14  and  C_16
REMARK    6  A    between atoms: C_23  and  N_24
REMARK    7  A    between atoms: C_29  and  C_32
REMARK                            x       y       z     vdW  Elec       q    Type
REMARK                         _______ _______ _______ _____ _____    ______ ____
ROOT
ATOM      1  S   UNL     1      32.493 -19.622 -20.227  0.00  0.00    -0.114 S 
ATOM      2  O   UNL     1      36.276 -22.169 -19.317  0.00  0.00    -0.273 OA
ATOM      3  N   UNL     1      34.962 -20.569 -20.439  0.00  0.00    -0.242 N 
ATOM      4  C   UNL     1      33.606 -20.917 -20.819  0.00  0.00    +0.155 C 
ATOM      5  CA  UNL     1      33.773 -22.153 -19.906  0.00  0.00    +0.178 C 
ATOM      6  C   UNL     1      35.267 -21.722 -19.811  0.00  0.00    +0.251 C 
ATOM      7  CA  UNL     1      35.555 -19.381 -20.722  0.00  0.00    +0.129 C 
ATOM      8  C   UNL     1      34.827 -18.317 -21.133  0.00  0.00    +0.007 C 
ATOM      9  C   UNL     1      33.302 -18.320 -21.218  0.00  0.00    +0.084 C 
ENDROOT
BRANCH   5  11
ATOM     10  O   UNL     1      33.745 -24.299 -17.974  0.00  0.00    -0.275 OA
ATOM     11  N   UNL     1      33.087 -22.168 -18.615  0.00  0.00    -0.296 N 
ATOM     12  C   UNL     1      33.133 -23.256 -17.747  0.00  0.00    +0.228 C 
ATOM     13  H   UNL     1      32.569 -21.374 -18.347  0.00  0.00    +0.150 HD
BRANCH  12  14
ATOM     14  C   UNL     1      32.362 -23.042 -16.461  0.00  0.00    +0.118 C 
BRANCH  14  16
ATOM     15  S   UNL     1      32.571 -24.221 -13.975  0.00  0.00    -0.090 S 
ATOM     16  C   UNL     1      33.245 -23.386 -15.294  0.00  0.00    +0.016 C 
ATOM     17  C   UNL     1      34.571 -23.107 -15.142  0.00  0.00    +0.003 C 
ATOM     18  C   UNL     1      35.062 -23.595 -13.898  0.00  0.00    +0.007 C 
ATOM     19  C   UNL     1      34.079 -24.222 -13.163  0.00  0.00    +0.035 C 
ENDBRANCH  14  16
ENDBRANCH  12  14
ENDBRANCH   5  11
BRANCH   7  22
ATOM     20  O   UNL     1      37.710 -19.035 -21.586  0.00  0.00    -0.239 OA
ATOM     21  OXT UNL     1      37.453 -19.396 -19.341  0.00  0.00    -0.239 OA
ATOM     22  C   UNL     1      37.062 -19.259 -20.530  0.00  0.00    +0.401 C 
ENDBRANCH   7  22
BRANCH   8  23
ATOM     23  C   UNL     1      35.402 -16.966 -21.493  0.00  0.00    +0.116 C 
BRANCH  23  24
ATOM     24  N   UNL     1      34.797 -16.482 -22.743  0.00  0.00    -0.299 N 
ATOM     25  C   UNL     1      34.096 -15.346 -22.711  0.00  0.00    +0.118 C 
ATOM     26  C   UNL     1      34.975 -17.198 -23.855  0.00  0.00    +0.062 C 
ATOM     27  C   UNL     1      33.515 -14.864 -23.875  0.00  0.00    -0.000 C 
ATOM     28  C   UNL     1      34.417 -16.764 -25.048  0.00  0.00    +0.020 C 
ATOM     29  C   UNL     1      33.680 -15.584 -25.054  0.00  0.00    +0.052 C 
BRANCH  29  32
ATOM     30  O   UNL     1      32.441 -15.862 -27.038  0.00  0.00    -0.270 OA
ATOM     31  N   UNL     1      33.237 -13.756 -26.603  0.00  0.00    -0.325 N 
ATOM     32  C   UNL     1      33.082 -15.104 -26.290  0.00  0.00    +0.243 C 
ATOM     33  H   UNL     1      32.846 -13.396 -27.432  0.00  0.00    +0.145 HD
ATOM     34  H   UNL     1      33.737 -13.164 -25.996  0.00  0.00    +0.145 HD
ENDBRANCH  29  32
ENDBRANCH  23  24
ENDBRANCH   8  23
TORSDOF 7
ENDMDL
MODEL 7
REMARK VINA RESULT:      -8.2      4.276      6.259
REMARK  Name = 21743
REMARK  7 active torsions:
REMARK  status: ('A' for Active; 'I' for Inactive)
REMARK    1  A    between atoms: CA_5  and  N_11
REMARK    2  A    between atoms: CA_7  and  C_22
REMARK    3  A    between atoms: C_8  and  C_23
REMARK    4  A    between atoms: C_12  and  C_14
REMARK    5  A    between atoms: C_14  and  C_16
REMARK    6  A    between atoms: C_23  and  N_24
REMARK    7  A    between atoms: C_29  and  C_32
REMARK                            x       y       z     vdW  Elec       q    Type
REMARK                         _______ _______ _______ _____ _____    ______ ____
ROOT
ATOM      1  S   UNL     1      32.432 -19.589 -20.132  0.00  0.00    -0.114 S 
ATOM      2  O   UNL     1      36.047 -22.264 -18.946  0.00  0.00    -0.273 OA
ATOM      3  N   UNL     1      34.849 -20.679 -20.211  0.00  0.00    -0.242 N 
ATOM      4  C   UNL     1      33.485 -20.981 -20.602  0.00  0.00    +0.155 C 
ATOM      5  CA  UNL     1      33.563 -22.156 -19.600  0.00  0.00    +0.178 C 
ATOM      6  C   UNL     1      35.075 -21.800 -19.496  0.00  0.00    +0.251 C 
ATOM      7  CA  UNL     1      35.513 -19.549 -20.561  0.00  0.00    +0.129 C 
ATOM      8  C   UNL     1      34.854 -18.479 -21.065  0.00  0.00    +0.007 C 
ATOM      9  C   UNL     1      33.334 -18.406 -21.190  0.00  0.00    +0.084 C 
ENDROOT
BRANCH   5  11
ATOM     10  O   UNL     1      33.529 -24.074 -17.443  0.00  0.00    -0.275 OA
ATOM     11  N   UNL     1      32.847 -22.041 -18.330  0.00  0.00    -0.296 N 
ATOM     12  C   UNL     1      32.893 -23.026 -17.346  0.00  0.00    +0.228 C 
ATOM     13  H   UNL     1      32.309 -21.234 -18.164  0.00  0.00    +0.150 HD
BRANCH  12  14
ATOM     14  C   UNL     1      32.089 -22.686 -16.108  0.00  0.00    +0.118 C 
BRANCH  14  16
ATOM     15  S   UNL     1      30.306 -24.745 -15.668  0.00  0.00    -0.090 S 
ATOM     16  C   UNL     1      30.687 -23.203 -16.274  0.00  0.00    +0.016 C 
ATOM     17  C   UNL     1      29.633 -22.576 -16.870  0.00  0.00    +0.003 C 
ATOM     18  C   UNL     1      28.462 -23.386 -16.832  0.00  0.00    +0.007 C 
ATOM     19  C   UNL     1      28.688 -24.593 -16.207  0.00  0.00    +0.035 C 
ENDBRANCH  14  16
ENDBRANCH  12  14
ENDBRANCH   5  11
BRANCH   7  22
ATOM     20  O   UNL     1      37.377 -19.609 -19.137  0.00  0.00    -0.239 OA
ATOM     21  OXT UNL     1      37.701 -19.341 -21.386  0.00  0.00    -0.239 OA
ATOM     22  C   UNL     1      37.020 -19.493 -20.338  0.00  0.00    +0.401 C 
ENDBRANCH   7  22
BRANCH   8  23
ATOM     23  C   UNL     1      35.511 -17.190 -21.503  0.00  0.00    +0.116 C 
BRANCH  23  24
ATOM     24  N   UNL     1      34.883 -16.705 -22.741  0.00  0.00    -0.299 N 
ATOM     25  C   UNL     1      35.001 -17.446 -23.846  0.00  0.00    +0.118 C 
ATOM     26  C   UNL     1      34.223 -15.545 -22.707  0.00  0.00    +0.062 C 
ATOM     27  C   UNL     1      34.418 -17.014 -25.028  0.00  0.00    -0.000 C 
ATOM     28  C   UNL     1      33.620 -15.065 -23.860  0.00  0.00    +0.020 C 
ATOM     29  C   UNL     1      33.721 -15.810 -25.031  0.00  0.00    +0.052 C 
BRANCH  29  32
ATOM     30  O   UNL     1      32.382 -16.071 -26.951  0.00  0.00    -0.270 OA
ATOM     31  N   UNL     1      33.319 -14.005 -26.618  0.00  0.00    -0.325 N 
ATOM     32  C   UNL     1      33.099 -15.331 -26.256  0.00  0.00    +0.243 C 
ATOM     33  H   UNL     1      32.914 -13.646 -27.441  0.00  0.00    +0.145 HD
ATOM     34  H   UNL     1      33.880 -13.427 -26.052  0.00  0.00    +0.145 HD
ENDBRANCH  29  32
ENDBRANCH  23  24
ENDBRANCH   8  23
TORSDOF 7
ENDMDL
MODEL 8
REMARK VINA RESULT:      -8.2      3.997      5.678
REMARK  Name = 21743
REMARK  7 active torsions:
REMARK  status: ('A' for Active; 'I' for Inactive)
REMARK    1  A    between atoms: CA_5  and  N_11
REMARK    2  A    between atoms: CA_7  and  C_22
REMARK    3  A    between atoms: C_8  and  C_23
REMARK    4  A    between atoms: C_12  and  C_14
REMARK    5  A    between atoms: C_14  and  C_16
REMARK    6  A    between atoms: C_23  and  N_24
REMARK    7  A    between atoms: C_29  and  C_32
REMARK                            x       y       z     vdW  Elec       q    Type
REMARK                         _______ _______ _______ _____ _____    ______ ____
ROOT
ATOM      1  S   UNL     1      32.645 -20.148 -20.742  0.00  0.00    -0.114 S 
ATOM      2  O   UNL     1      36.116 -22.157 -18.388  0.00  0.00    -0.273 OA
ATOM      3  N   UNL     1      35.092 -20.986 -20.156  0.00  0.00    -0.242 N 
ATOM      4  C   UNL     1      33.850 -21.493 -20.708  0.00  0.00    +0.155 C 
ATOM      5  CA  UNL     1      33.804 -22.431 -19.479  0.00  0.00    +0.178 C 
ATOM      6  C   UNL     1      35.243 -21.912 -19.189  0.00  0.00    +0.251 C 
ATOM      7  CA  UNL     1      35.742 -19.887 -20.618  0.00  0.00    +0.129 C 
ATOM      8  C   UNL     1      35.130 -19.010 -21.448  0.00  0.00    +0.007 C 
ATOM      9  C   UNL     1      33.662 -19.116 -21.853  0.00  0.00    +0.084 C 
ENDROOT
BRANCH   5  11
ATOM     10  O   UNL     1      33.231 -24.056 -17.163  0.00  0.00    -0.275 OA
ATOM     11  N   UNL     1      32.850 -22.137 -18.411  0.00  0.00    -0.296 N 
ATOM     12  C   UNL     1      32.642 -22.988 -17.328  0.00  0.00    +0.228 C 
ATOM     13  H   UNL     1      32.332 -21.301 -18.459  0.00  0.00    +0.150 HD
BRANCH  12  14
ATOM     14  C   UNL     1      31.620 -22.473 -16.336  0.00  0.00    +0.118 C 
BRANCH  14  16
ATOM     15  S   UNL     1      31.957 -23.733 -13.905  0.00  0.00    -0.090 S 
ATOM     16  C   UNL     1      31.208 -23.596 -15.425  0.00  0.00    +0.016 C 
ATOM     17  C   UNL     1      30.275 -24.561 -15.663  0.00  0.00    +0.003 C 
ATOM     18  C   UNL     1      30.163 -25.453 -14.558  0.00  0.00    +0.007 C 
ATOM     19  C   UNL     1      31.022 -25.119 -13.533  0.00  0.00    +0.035 C 
ENDBRANCH  14  16
ENDBRANCH  12  14
ENDBRANCH   5  11
BRANCH   7  22
ATOM     20  O   UNL     1      38.005 -19.465 -21.075  0.00  0.00    -0.239 OA
ATOM     21  OXT UNL     1      37.321 -19.639 -18.899  0.00  0.00    -0.239 OA
ATOM     22  C   UNL     1      37.171 -19.638 -20.149  0.00  0.00    +0.401 C 
ENDBRANCH   7  22
BRANCH   8  23
ATOM     23  C   UNL     1      35.780 -17.776 -22.030  0.00  0.00    +0.116 C 
BRANCH  23  24
ATOM     24  N   UNL     1      34.883 -16.620 -21.881  0.00  0.00    -0.299 N 
ATOM     25  C   UNL     1      34.648 -16.154 -20.652  0.00  0.00    +0.118 C 
ATOM     26  C   UNL     1      34.344 -16.088 -22.980  0.00  0.00    +0.062 C 
ATOM     27  C   UNL     1      33.807 -15.064 -20.481  0.00  0.00    -0.000 C 
ATOM     28  C   UNL     1      33.495 -14.997 -22.868  0.00  0.00    +0.020 C 
ATOM     29  C   UNL     1      33.227 -14.482 -21.604  0.00  0.00    +0.052 C 
BRANCH  29  32
ATOM     30  O   UNL     1      32.126 -12.824 -20.345  0.00  0.00    -0.270 OA
ATOM     31  N   UNL     1      31.752 -12.822 -22.607  0.00  0.00    -0.325 N 
ATOM     32  C   UNL     1      32.341 -13.338 -21.456  0.00  0.00    +0.243 C 
ATOM     33  H   UNL     1      31.146 -12.048 -22.545  0.00  0.00    +0.145 HD
ATOM     34  H   UNL     1      31.940 -13.231 -23.482  0.00  0.00    +0.145 HD
ENDBRANCH  29  32
ENDBRANCH  23  24
ENDBRANCH   8  23
TORSDOF 7
ENDMDL
MODEL 9
REMARK VINA RESULT:      -8.1      2.658      9.247
REMARK  Name = 21743
REMARK  7 active torsions:
REMARK  status: ('A' for Active; 'I' for Inactive)
REMARK    1  A    between atoms: CA_5  and  N_11
REMARK    2  A    between atoms: CA_7  and  C_22
REMARK    3  A    between atoms: C_8  and  C_23
REMARK    4  A    between atoms: C_12  and  C_14
REMARK    5  A    between atoms: C_14  and  C_16
REMARK    6  A    between atoms: C_23  and  N_24
REMARK    7  A    between atoms: C_29  and  C_32
REMARK                            x       y       z     vdW  Elec       q    Type
REMARK                         _______ _______ _______ _____ _____    ______ ____
ROOT
ATOM      1  S   UNL     1      36.536 -21.304 -18.013  0.00  0.00    -0.114 S 
ATOM      2  O   UNL     1      32.535 -21.178 -20.380  0.00  0.00    -0.273 OA
ATOM      3  N   UNL     1      34.158 -22.055 -18.917  0.00  0.00    -0.242 N 
ATOM      4  C   UNL     1      35.549 -22.052 -19.329  0.00  0.00    +0.155 C 
ATOM      5  CA  UNL     1      35.104 -21.115 -20.475  0.00  0.00    +0.178 C 
ATOM      6  C   UNL     1      33.655 -21.435 -20.003  0.00  0.00    +0.251 C 
ATOM      7  CA  UNL     1      33.709 -22.573 -17.746  0.00  0.00    +0.129 C 
ATOM      8  C   UNL     1      34.563 -22.871 -16.739  0.00  0.00    +0.007 C 
ATOM      9  C   UNL     1      36.059 -22.568 -16.785  0.00  0.00    +0.084 C 
ENDROOT
BRANCH   5  11
ATOM     10  O   UNL     1      34.475 -19.057 -22.401  0.00  0.00    -0.275 OA
ATOM     11  N   UNL     1      35.445 -19.695 -20.391  0.00  0.00    -0.296 N 
ATOM     12  C   UNL     1      35.096 -18.775 -21.376  0.00  0.00    +0.228 C 
ATOM     13  H   UNL     1      35.944 -19.376 -19.604  0.00  0.00    +0.150 HD
BRANCH  12  14
ATOM     14  C   UNL     1      35.539 -17.359 -21.071  0.00  0.00    +0.118 C 
BRANCH  14  16
ATOM     15  S   UNL     1      34.640 -15.675 -23.062  0.00  0.00    -0.090 S 
ATOM     16  C   UNL     1      34.478 -16.400 -21.533  0.00  0.00    +0.016 C 
ATOM     17  C   UNL     1      33.353 -16.016 -20.865  0.00  0.00    +0.003 C 
ATOM     18  C   UNL     1      32.589 -15.090 -21.631  0.00  0.00    +0.007 C 
ATOM     19  C   UNL     1      33.174 -14.816 -22.848  0.00  0.00    +0.035 C 
ENDBRANCH  14  16
ENDBRANCH  12  14
ENDBRANCH   5  11
BRANCH   7  22
ATOM     20  O   UNL     1      31.861 -23.971 -17.369  0.00  0.00    -0.239 OA
ATOM     21  OXT UNL     1      31.522 -21.726 -17.652  0.00  0.00    -0.239 OA
ATOM     22  C   UNL     1      32.208 -22.778 -17.571  0.00  0.00    +0.401 C 
ENDBRANCH   7  22
BRANCH   8  23
ATOM     23  C   UNL     1      34.158 -23.471 -15.413  0.00  0.00    +0.116 C 
BRANCH  23  24
ATOM     24  N   UNL     1      35.322 -24.100 -14.771  0.00  0.00    -0.299 N 
ATOM     25  C   UNL     1      35.964 -23.423 -13.816  0.00  0.00    +0.118 C 
ATOM     26  C   UNL     1      35.686 -25.320 -15.171  0.00  0.00    +0.062 C 
ATOM     27  C   UNL     1      37.064 -23.992 -13.192  0.00  0.00    -0.000 C 
ATOM     28  C   UNL     1      36.779 -25.938 -14.582  0.00  0.00    +0.020 C 
ATOM     29  C   UNL     1      37.473 -25.263 -13.582  0.00  0.00    +0.052 C 
BRANCH  29  32
ATOM     30  O   UNL     1      38.571 -26.303 -11.776  0.00  0.00    -0.270 OA
ATOM     31  N   UNL     1      39.787 -26.017 -13.699  0.00  0.00    -0.325 N 
ATOM     32  C   UNL     1      38.624 -25.885 -12.946  0.00  0.00    +0.243 C 
ATOM     33  H   UNL     1      40.586 -26.433 -13.301  0.00  0.00    +0.145 HD
ATOM     34  H   UNL     1      39.811 -25.693 -14.628  0.00  0.00    +0.145 HD
ENDBRANCH  29  32
ENDBRANCH  23  24
ENDBRANCH   8  23
TORSDOF 7
ENDMDL
