MODEL 1
REMARK VINA RESULT:     -10.9      0.000      0.000
REMARK  Name = 33625
REMARK  5 active torsions:
REMARK  status: ('A' for Active; 'I' for Inactive)
REMARK    1  A    between atoms: N_1  and  C_18
REMARK    2  A    between atoms: C_2  and  N_9
REMARK    3  A    between atoms: C_10  and  C_12
REMARK    4  A    between atoms: C_18  and  C_19
REMARK    5  A    between atoms: C_19  and  C_21
REMARK                            x       y       z     vdW  Elec       q    Type
REMARK                         _______ _______ _______ _____ _____    ______ ____
ROOT
ATOM      1  N   UNL     1      33.915 -15.492 -22.101  0.00  0.00    +0.387 N 
ATOM      2  C   UNL     1      32.048 -13.281 -22.616  0.00  0.00    +0.068 C 
ATOM      3  C   UNL     1      32.305 -13.835 -21.212  0.00  0.00    -0.003 C 
ATOM      4  C   UNL     1      32.382 -14.340 -23.668  0.00  0.00    -0.003 C 
ATOM      5  C   UNL     1      33.699 -14.455 -21.084  0.00  0.00    -0.076 C 
ATOM      6  C   UNL     1      33.774 -14.944 -23.457  0.00  0.00    -0.076 C 
ATOM      7  H   UNL     1      33.198 -16.208 -21.977  0.00  0.00    -0.080 HD
ENDROOT
BRANCH   2   9
ATOM      8  O   UNL     1      31.046 -10.593 -22.465  0.00  0.00    -0.270 OA
ATOM      9  N   UNL     1      32.798 -12.066 -22.841  0.00  0.00    -0.303 N 
ATOM     10  C   UNL     1      32.223 -10.808 -22.744  0.00  0.00    +0.246 C 
ATOM     11  H   UNL     1      33.753 -12.134 -23.072  0.00  0.00    +0.150 HD
BRANCH  10  12
ATOM     12  C   UNL     1      33.121  -9.661 -23.031  0.00  0.00    +0.053 C 
ATOM     13  C   UNL     1      34.131  -9.821 -23.960  0.00  0.00    +0.005 C 
ATOM     14  C   UNL     1      32.919  -8.472 -22.362  0.00  0.00    +0.005 C 
ATOM     15  C   UNL     1      34.975  -8.744 -24.229  0.00  0.00    +0.000 C 
ATOM     16  C   UNL     1      33.764  -7.395 -22.632  0.00  0.00    +0.000 C 
ATOM     17  C   UNL     1      34.791  -7.531 -23.566  0.00  0.00    +0.000 C 
ENDBRANCH  10  12
ENDBRANCH   2   9
BRANCH   1  18
ATOM     18  C   UNL     1      35.229 -16.111 -21.932  0.00  0.00    -0.073 C 
BRANCH  18  19
ATOM     19  C   UNL     1      35.300 -17.455 -22.659  0.00  0.00    +0.005 C 
BRANCH  19  21
ATOM     20  N   UNL     1      36.850 -19.962 -20.504  0.00  0.00    -0.312 N 
ATOM     21  C   UNL     1      35.667 -18.575 -21.719  0.00  0.00    -0.008 C 
ATOM     22  C   UNL     1      34.759 -19.435 -21.079  0.00  0.00    +0.011 C 
ATOM     23  C   UNL     1      36.936 -18.901 -21.364  0.00  0.00    +0.057 C 
ATOM     24  C   UNL     1      35.531 -20.310 -20.312  0.00  0.00    +0.048 C 
ATOM     25  C   UNL     1      33.357 -19.576 -21.062  0.00  0.00    +0.001 C 
ATOM     26  C   UNL     1      34.970 -21.321 -19.526  0.00  0.00    +0.015 C 
ATOM     27  C   UNL     1      32.782 -20.583 -20.280  0.00  0.00    +0.000 C 
ATOM     28  C   UNL     1      33.577 -21.443 -19.525  0.00  0.00    +0.001 C 
ATOM     29  H   UNL     1      37.618 -20.411 -20.084  0.00  0.00    +0.152 HD
ENDBRANCH  19  21
ENDBRANCH  18  19
ENDBRANCH   1  18
TORSDOF 5
ENDMDL
MODEL 2
REMARK VINA RESULT:     -10.5      2.498      9.886
REMARK  Name = 33625
REMARK  5 active torsions:
REMARK  status: ('A' for Active; 'I' for Inactive)
REMARK    1  A    between atoms: N_1  and  C_18
REMARK    2  A    between atoms: C_2  and  N_9
REMARK    3  A    between atoms: C_10  and  C_12
REMARK    4  A    between atoms: C_18  and  C_19
REMARK    5  A    between atoms: C_19  and  C_21
REMARK                            x       y       z     vdW  Elec       q    Type
REMARK                         _______ _______ _______ _____ _____    ______ ____
ROOT
ATOM      1  N   UNL     1      32.942 -13.717 -21.649  0.00  0.00    +0.387 N 
ATOM      2  C   UNL     1      34.771 -15.889 -22.410  0.00  0.00    +0.068 C 
ATOM      3  C   UNL     1      35.155 -14.800 -21.406  0.00  0.00    -0.003 C 
ATOM      4  C   UNL     1      33.659 -15.385 -23.333  0.00  0.00    -0.003 C 
ATOM      5  C   UNL     1      33.932 -14.220 -20.688  0.00  0.00    -0.076 C 
ATOM      6  C   UNL     1      32.487 -14.785 -22.550  0.00  0.00    -0.076 C 
ATOM      7  H   UNL     1      33.391 -12.998 -22.216  0.00  0.00    -0.080 HD
ENDROOT
BRANCH   2   9
ATOM      8  O   UNL     1      36.372 -18.244 -22.040  0.00  0.00    -0.270 OA
ATOM      9  N   UNL     1      34.375 -17.104 -21.734  0.00  0.00    -0.303 N 
ATOM     10  C   UNL     1      35.224 -18.193 -21.606  0.00  0.00    +0.246 C 
ATOM     11  H   UNL     1      33.470 -17.161 -21.350  0.00  0.00    +0.150 HD
BRANCH  10  12
ATOM     12  C   UNL     1      34.659 -19.376 -20.907  0.00  0.00    +0.053 C 
ATOM     13  C   UNL     1      33.288 -19.501 -20.812  0.00  0.00    +0.005 C 
ATOM     14  C   UNL     1      35.523 -20.311 -20.376  0.00  0.00    +0.005 C 
ATOM     15  C   UNL     1      32.757 -20.612 -20.155  0.00  0.00    +0.000 C 
ATOM     16  C   UNL     1      34.991 -21.422 -19.720  0.00  0.00    +0.000 C 
ATOM     17  C   UNL     1      33.609 -21.573 -19.610  0.00  0.00    +0.000 C 
ENDBRANCH  10  12
ENDBRANCH   2   9
BRANCH   1  18
ATOM     18  C   UNL     1      31.805 -13.119 -20.949  0.00  0.00    -0.073 C 
BRANCH  18  19
ATOM     19  C   UNL     1      31.354 -11.830 -21.636  0.00  0.00    +0.005 C 
BRANCH  19  21
ATOM     20  N   UNL     1      32.153  -9.338 -19.091  0.00  0.00    -0.312 N 
ATOM     21  C   UNL     1      31.686 -10.616 -20.809  0.00  0.00    -0.008 C 
ATOM     22  C   UNL     1      31.847  -9.310 -21.301  0.00  0.00    +0.011 C 
ATOM     23  C   UNL     1      31.873 -10.625 -19.463  0.00  0.00    +0.057 C 
ATOM     24  C   UNL     1      32.144  -8.513 -20.194  0.00  0.00    +0.048 C 
ATOM     25  C   UNL     1      31.775  -8.705 -22.572  0.00  0.00    +0.001 C 
ATOM     26  C   UNL     1      32.373  -7.137 -20.293  0.00  0.00    +0.015 C 
ATOM     27  C   UNL     1      32.002  -7.329 -22.686  0.00  0.00    +0.000 C 
ATOM     28  C   UNL     1      32.296  -6.558 -21.564  0.00  0.00    +0.001 C 
ATOM     29  H   UNL     1      32.335  -9.045 -18.169  0.00  0.00    +0.152 HD
ENDBRANCH  19  21
ENDBRANCH  18  19
ENDBRANCH   1  18
TORSDOF 5
ENDMDL
MODEL 3
REMARK VINA RESULT:     -10.4      2.871      5.260
REMARK  Name = 33625
REMARK  5 active torsions:
REMARK  status: ('A' for Active; 'I' for Inactive)
REMARK    1  A    between atoms: N_1  and  C_18
REMARK    2  A    between atoms: C_2  and  N_9
REMARK    3  A    between atoms: C_10  and  C_12
REMARK    4  A    between atoms: C_18  and  C_19
REMARK    5  A    between atoms: C_19  and  C_21
REMARK                            x       y       z     vdW  Elec       q    Type
REMARK                         _______ _______ _______ _____ _____    ______ ____
ROOT
ATOM      1  N   UNL     1      35.356 -19.989 -21.242  0.00  0.00    +0.387 N 
ATOM      2  C   UNL     1      35.313 -17.774 -23.175  0.00  0.00    +0.068 C 
ATOM      3  C   UNL     1      34.413 -19.004 -23.309  0.00  0.00    -0.003 C 
ATOM      4  C   UNL     1      36.548 -18.115 -22.338  0.00  0.00    -0.003 C 
ATOM      5  C   UNL     1      34.116 -19.652 -21.953  0.00  0.00    -0.076 C 
ATOM      6  C   UNL     1      36.179 -18.793 -21.015  0.00  0.00    -0.076 C 
ATOM      7  H   UNL     1      35.890 -20.630 -21.830  0.00  0.00    -0.080 HD
ENDROOT
BRANCH   2   9
ATOM      8  O   UNL     1      33.887 -15.740 -24.616  0.00  0.00    -0.270 OA
ATOM      9  N   UNL     1      34.589 -16.659 -22.606  0.00  0.00    -0.303 N 
ATOM     10  C   UNL     1      33.929 -15.725 -23.389  0.00  0.00    +0.246 C 
ATOM     11  H   UNL     1      34.564 -16.560 -21.627  0.00  0.00    +0.150 HD
BRANCH  10  12
ATOM     12  C   UNL     1      33.255 -14.624 -22.654  0.00  0.00    +0.053 C 
ATOM     13  C   UNL     1      33.059 -14.753 -21.293  0.00  0.00    +0.005 C 
ATOM     14  C   UNL     1      32.846 -13.508 -23.354  0.00  0.00    +0.005 C 
ATOM     15  C   UNL     1      32.426 -13.720 -20.603  0.00  0.00    +0.000 C 
ATOM     16  C   UNL     1      32.213 -12.475 -22.662  0.00  0.00    +0.000 C 
ATOM     17  C   UNL     1      32.003 -12.580 -21.287  0.00  0.00    +0.000 C 
ENDBRANCH  10  12
ENDBRANCH   2   9
BRANCH   1  18
ATOM     18  C   UNL     1      35.057 -20.654 -19.974  0.00  0.00    -0.073 C 
BRANCH  18  19
ATOM     19  C   UNL     1      36.215 -21.552 -19.540  0.00  0.00    +0.005 C 
BRANCH  19  21
ATOM     20  N   UNL     1      36.616 -22.246 -15.978  0.00  0.00    -0.312 N 
ATOM     21  C   UNL     1      36.106 -21.931 -18.085  0.00  0.00    -0.008 C 
ATOM     22  C   UNL     1      34.970 -22.479 -17.466  0.00  0.00    +0.011 C 
ATOM     23  C   UNL     1      37.104 -21.792 -17.174  0.00  0.00    +0.057 C 
ATOM     24  C   UNL     1      35.315 -22.672 -16.126  0.00  0.00    +0.048 C 
ATOM     25  C   UNL     1      33.676 -22.838 -17.891  0.00  0.00    +0.001 C 
ATOM     26  C   UNL     1      34.427 -23.206 -15.188  0.00  0.00    +0.015 C 
ATOM     27  C   UNL     1      32.777 -23.374 -16.962  0.00  0.00    +0.000 C 
ATOM     28  C   UNL     1      33.148 -23.556 -15.632  0.00  0.00    +0.001 C 
ATOM     29  H   UNL     1      37.122 -22.265 -15.134  0.00  0.00    +0.152 HD
ENDBRANCH  19  21
ENDBRANCH  18  19
ENDBRANCH   1  18
TORSDOF 5
ENDMDL
MODEL 4
REMARK VINA RESULT:     -10.3      2.969      5.601
REMARK  Name = 33625
REMARK  5 active torsions:
REMARK  status: ('A' for Active; 'I' for Inactive)
REMARK    1  A    between atoms: N_1  and  C_18
REMARK    2  A    between atoms: C_2  and  N_9
REMARK    3  A    between atoms: C_10  and  C_12
REMARK    4  A    between atoms: C_18  and  C_19
REMARK    5  A    between atoms: C_19  and  C_21
REMARK                            x       y       z     vdW  Elec       q    Type
REMARK                         _______ _______ _______ _____ _____    ______ ____
ROOT
ATOM      1  N   UNL     1      35.146 -19.981 -21.309  0.00  0.00    +0.387 N 
ATOM      2  C   UNL     1      35.617 -17.881 -23.311  0.00  0.00    +0.068 C 
ATOM      3  C   UNL     1      34.659 -19.050 -23.551  0.00  0.00    -0.003 C 
ATOM      4  C   UNL     1      36.656 -18.261 -22.254  0.00  0.00    -0.003 C 
ATOM      5  C   UNL     1      34.079 -19.598 -22.243  0.00  0.00    -0.076 C 
ATOM      6  C   UNL     1      36.009 -18.836 -20.990  0.00  0.00    -0.076 C 
ATOM      7  H   UNL     1      35.721 -20.690 -21.764  0.00  0.00    -0.080 HD
ENDROOT
BRANCH   2   9
ATOM      8  O   UNL     1      34.252 -16.065 -25.068  0.00  0.00    -0.270 OA
ATOM      9  N   UNL     1      34.896 -16.688 -22.929  0.00  0.00    -0.303 N 
ATOM     10  C   UNL     1      34.267 -15.871 -23.856  0.00  0.00    +0.246 C 
ATOM     11  H   UNL     1      34.851 -16.446 -21.976  0.00  0.00    +0.150 HD
BRANCH  10  12
ATOM     12  C   UNL     1      33.592 -14.668 -23.306  0.00  0.00    +0.053 C 
ATOM     13  C   UNL     1      32.870 -14.785 -22.135  0.00  0.00    +0.005 C 
ATOM     14  C   UNL     1      33.707 -13.471 -23.983  0.00  0.00    +0.005 C 
ATOM     15  C   UNL     1      32.236 -13.655 -21.619  0.00  0.00    +0.000 C 
ATOM     16  C   UNL     1      33.072 -12.342 -23.465  0.00  0.00    +0.000 C 
ATOM     17  C   UNL     1      32.337 -12.433 -22.283  0.00  0.00    +0.000 C 
ENDBRANCH  10  12
ENDBRANCH   2   9
BRANCH   1  18
ATOM     18  C   UNL     1      34.578 -20.551 -20.088  0.00  0.00    -0.073 C 
BRANCH  18  19
ATOM     19  C   UNL     1      35.453 -21.685 -19.553  0.00  0.00    +0.005 C 
BRANCH  19  21
ATOM     20  N   UNL     1      33.405 -23.268 -16.977  0.00  0.00    -0.312 N 
ATOM     21  C   UNL     1      34.848 -22.321 -18.328  0.00  0.00    -0.008 C 
ATOM     22  C   UNL     1      35.513 -22.547 -17.111  0.00  0.00    +0.011 C 
ATOM     23  C   UNL     1      33.566 -22.762 -18.239  0.00  0.00    +0.057 C 
ATOM     24  C   UNL     1      34.579 -23.150 -16.266  0.00  0.00    +0.048 C 
ATOM     25  C   UNL     1      36.813 -22.308 -16.623  0.00  0.00    +0.001 C 
ATOM     26  C   UNL     1      34.881 -23.527 -14.953  0.00  0.00    +0.015 C 
ATOM     27  C   UNL     1      37.129 -22.680 -15.312  0.00  0.00    +0.000 C 
ATOM     28  C   UNL     1      36.177 -23.279 -14.491  0.00  0.00    +0.001 C 
ATOM     29  H   UNL     1      32.573 -23.660 -16.629  0.00  0.00    +0.152 HD
ENDBRANCH  19  21
ENDBRANCH  18  19
ENDBRANCH   1  18
TORSDOF 5
ENDMDL
MODEL 5
REMARK VINA RESULT:     -10.0      2.239      9.402
REMARK  Name = 33625
REMARK  5 active torsions:
REMARK  status: ('A' for Active; 'I' for Inactive)
REMARK    1  A    between atoms: N_1  and  C_18
REMARK    2  A    between atoms: C_2  and  N_9
REMARK    3  A    between atoms: C_10  and  C_12
REMARK    4  A    between atoms: C_18  and  C_19
REMARK    5  A    between atoms: C_19  and  C_21
REMARK                            x       y       z     vdW  Elec       q    Type
REMARK                         _______ _______ _______ _____ _____    ______ ____
ROOT
ATOM      1  N   UNL     1      33.075 -13.660 -21.883  0.00  0.00    +0.387 N 
ATOM      2  C   UNL     1      34.828 -15.917 -22.570  0.00  0.00    +0.068 C 
ATOM      3  C   UNL     1      35.247 -14.812 -21.597  0.00  0.00    -0.003 C 
ATOM      4  C   UNL     1      33.739 -15.401 -23.513  0.00  0.00    -0.003 C 
ATOM      5  C   UNL     1      34.043 -14.168 -20.903  0.00  0.00    -0.076 C 
ATOM      6  C   UNL     1      32.586 -14.736 -22.754  0.00  0.00    -0.076 C 
ATOM      7  H   UNL     1      33.552 -12.974 -22.469  0.00  0.00    -0.080 HD
ENDROOT
BRANCH   2   9
ATOM      8  O   UNL     1      36.373 -18.280 -22.044  0.00  0.00    -0.270 OA
ATOM      9  N   UNL     1      34.387 -17.096 -21.859  0.00  0.00    -0.303 N 
ATOM     10  C   UNL     1      35.211 -18.192 -21.655  0.00  0.00    +0.246 C 
ATOM     11  H   UNL     1      33.468 -17.122 -21.508  0.00  0.00    +0.150 HD
BRANCH  10  12
ATOM     12  C   UNL     1      34.600 -19.336 -20.930  0.00  0.00    +0.053 C 
ATOM     13  C   UNL     1      35.427 -20.299 -20.387  0.00  0.00    +0.005 C 
ATOM     14  C   UNL     1      33.226 -19.400 -20.824  0.00  0.00    +0.005 C 
ATOM     15  C   UNL     1      34.853 -21.373 -19.707  0.00  0.00    +0.000 C 
ATOM     16  C   UNL     1      32.653 -20.474 -20.143  0.00  0.00    +0.000 C 
ATOM     17  C   UNL     1      33.466 -21.461 -19.584  0.00  0.00    +0.000 C 
ENDBRANCH  10  12
ENDBRANCH   2   9
BRANCH   1  18
ATOM     18  C   UNL     1      31.958 -13.001 -21.206  0.00  0.00    -0.073 C 
BRANCH  18  19
ATOM     19  C   UNL     1      31.237 -12.037 -22.150  0.00  0.00    +0.005 C 
BRANCH  19  21
ATOM     20  N   UNL     1      32.774  -8.725 -22.153  0.00  0.00    -0.312 N 
ATOM     21  C   UNL     1      32.033 -10.776 -22.368  0.00  0.00    -0.008 C 
ATOM     22  C   UNL     1      33.043 -10.603 -23.329  0.00  0.00    +0.011 C 
ATOM     23  C   UNL     1      31.874  -9.630 -21.656  0.00  0.00    +0.057 C 
ATOM     24  C   UNL     1      33.501  -9.292 -23.176  0.00  0.00    +0.048 C 
ATOM     25  C   UNL     1      33.628 -11.414 -24.321  0.00  0.00    +0.001 C 
ATOM     26  C   UNL     1      34.518  -8.751 -23.968  0.00  0.00    +0.015 C 
ATOM     27  C   UNL     1      34.647 -10.885 -25.121  0.00  0.00    +0.000 C 
ATOM     28  C   UNL     1      35.084  -9.574 -24.947  0.00  0.00    +0.001 C 
ATOM     29  H   UNL     1      32.885  -7.804 -21.826  0.00  0.00    +0.152 HD
ENDBRANCH  19  21
ENDBRANCH  18  19
ENDBRANCH   1  18
TORSDOF 5
ENDMDL
MODEL 6
REMARK VINA RESULT:     -10.0      3.283     10.141
REMARK  Name = 33625
REMARK  5 active torsions:
REMARK  status: ('A' for Active; 'I' for Inactive)
REMARK    1  A    between atoms: N_1  and  C_18
REMARK    2  A    between atoms: C_2  and  N_9
REMARK    3  A    between atoms: C_10  and  C_12
REMARK    4  A    between atoms: C_18  and  C_19
REMARK    5  A    between atoms: C_19  and  C_21
REMARK                            x       y       z     vdW  Elec       q    Type
REMARK                         _______ _______ _______ _____ _____    ______ ____
ROOT
ATOM      1  N   UNL     1      34.344 -17.477 -21.519  0.00  0.00    +0.387 N 
ATOM      2  C   UNL     1      34.444 -20.407 -21.314  0.00  0.00    +0.068 C 
ATOM      3  C   UNL     1      35.424 -19.606 -22.174  0.00  0.00    -0.003 C 
ATOM      4  C   UNL     1      33.156 -19.609 -21.102  0.00  0.00    -0.003 C 
ATOM      5  C   UNL     1      35.625 -18.183 -21.645  0.00  0.00    -0.076 C 
ATOM      6  C   UNL     1      33.434 -18.185 -20.609  0.00  0.00    -0.076 C 
ATOM      7  H   UNL     1      33.907 -17.451 -22.441  0.00  0.00    -0.080 HD
ENDROOT
BRANCH   2   9
ATOM      8  O   UNL     1      33.793 -22.701 -19.713  0.00  0.00    -0.270 OA
ATOM      9  N   UNL     1      35.043 -20.777 -20.051  0.00  0.00    -0.303 N 
ATOM     10  C   UNL     1      34.659 -21.909 -19.349  0.00  0.00    +0.246 C 
ATOM     11  H   UNL     1      35.749 -20.202 -19.675  0.00  0.00    +0.150 HD
BRANCH  10  12
ATOM     12  C   UNL     1      35.351 -22.135 -18.055  0.00  0.00    +0.053 C 
ATOM     13  C   UNL     1      34.684 -22.807 -17.050  0.00  0.00    +0.005 C 
ATOM     14  C   UNL     1      36.639 -21.665 -17.897  0.00  0.00    +0.005 C 
ATOM     15  C   UNL     1      35.334 -23.018 -15.834  0.00  0.00    +0.000 C 
ATOM     16  C   UNL     1      37.288 -21.878 -16.680  0.00  0.00    +0.000 C 
ATOM     17  C   UNL     1      36.636 -22.554 -15.649  0.00  0.00    +0.000 C 
ENDBRANCH  10  12
ENDBRANCH   2   9
BRANCH   1  18
ATOM     18  C   UNL     1      34.557 -16.103 -21.063  0.00  0.00    -0.073 C 
BRANCH  18  19
ATOM     19  C   UNL     1      33.246 -15.470 -20.597  0.00  0.00    +0.005 C 
BRANCH  19  21
ATOM     20  N   UNL     1      32.413 -13.174 -23.310  0.00  0.00    -0.312 N 
ATOM     21  C   UNL     1      32.822 -14.343 -21.503  0.00  0.00    -0.008 C 
ATOM     22  C   UNL     1      32.308 -13.105 -21.082  0.00  0.00    +0.011 C 
ATOM     23  C   UNL     1      32.883 -14.378 -22.859  0.00  0.00    +0.057 C 
ATOM     24  C   UNL     1      32.055 -12.376 -22.246  0.00  0.00    +0.048 C 
ATOM     25  C   UNL     1      32.026 -12.511 -19.836  0.00  0.00    +0.001 C 
ATOM     26  C   UNL     1      31.531 -11.079 -22.226  0.00  0.00    +0.015 C 
ATOM     27  C   UNL     1      31.502 -11.215 -19.801  0.00  0.00    +0.000 C 
ATOM     28  C   UNL     1      31.259 -10.510 -20.978  0.00  0.00    +0.001 C 
ATOM     29  H   UNL     1      32.341 -12.916 -24.257  0.00  0.00    +0.152 HD
ENDBRANCH  19  21
ENDBRANCH  18  19
ENDBRANCH   1  18
TORSDOF 5
ENDMDL
MODEL 7
REMARK VINA RESULT:      -9.7      2.664      9.167
REMARK  Name = 33625
REMARK  5 active torsions:
REMARK  status: ('A' for Active; 'I' for Inactive)
REMARK    1  A    between atoms: N_1  and  C_18
REMARK    2  A    between atoms: C_2  and  N_9
REMARK    3  A    between atoms: C_10  and  C_12
REMARK    4  A    between atoms: C_18  and  C_19
REMARK    5  A    between atoms: C_19  and  C_21
REMARK                            x       y       z     vdW  Elec       q    Type
REMARK                         _______ _______ _______ _____ _____    ______ ____
ROOT
ATOM      1  N   UNL     1      33.700 -14.936 -24.293  0.00  0.00    +0.387 N 
ATOM      2  C   UNL     1      35.453 -17.256 -23.858  0.00  0.00    +0.068 C 
ATOM      3  C   UNL     1      35.715 -15.891 -23.217  0.00  0.00    -0.003 C 
ATOM      4  C   UNL     1      34.602 -17.089 -25.119  0.00  0.00    -0.003 C 
ATOM      5  C   UNL     1      34.425 -15.087 -23.025  0.00  0.00    -0.076 C 
ATOM      6  C   UNL     1      33.350 -16.244 -24.863  0.00  0.00    -0.076 C 
ATOM      7  H   UNL     1      34.317 -14.462 -24.953  0.00  0.00    -0.080 HD
ENDROOT
BRANCH   2   9
ATOM      8  O   UNL     1      36.727 -18.629 -21.681  0.00  0.00    -0.270 OA
ATOM      9  N   UNL     1      34.824 -18.159 -22.921  0.00  0.00    -0.303 N 
ATOM     10  C   UNL     1      35.527 -18.777 -21.898  0.00  0.00    +0.246 C 
ATOM     11  H   UNL     1      33.861 -18.343 -23.012  0.00  0.00    +0.150 HD
BRANCH  10  12
ATOM     12  C   UNL     1      34.743 -19.698 -21.036  0.00  0.00    +0.053 C 
ATOM     13  C   UNL     1      35.409 -20.681 -20.332  0.00  0.00    +0.005 C 
ATOM     14  C   UNL     1      33.374 -19.542 -20.967  0.00  0.00    +0.005 C 
ATOM     15  C   UNL     1      34.671 -21.546 -19.523  0.00  0.00    +0.000 C 
ATOM     16  C   UNL     1      32.638 -20.407 -20.158  0.00  0.00    +0.000 C 
ATOM     17  C   UNL     1      33.286 -21.409 -19.435  0.00  0.00    +0.000 C 
ENDBRANCH  10  12
ENDBRANCH   2   9
BRANCH   1  18
ATOM     18  C   UNL     1      32.500 -14.122 -24.104  0.00  0.00    -0.073 C 
BRANCH  18  19
ATOM     19  C   UNL     1      32.359 -13.683 -22.646  0.00  0.00    +0.005 C 
BRANCH  19  21
ATOM     20  N   UNL     1      32.650 -10.061 -22.993  0.00  0.00    -0.312 N 
ATOM     21  C   UNL     1      32.386 -12.182 -22.514  0.00  0.00    -0.008 C 
ATOM     22  C   UNL     1      32.035 -11.456 -21.364  0.00  0.00    +0.011 C 
ATOM     23  C   UNL     1      32.760 -11.327 -23.501  0.00  0.00    +0.057 C 
ATOM     24  C   UNL     1      32.209 -10.109 -21.689  0.00  0.00    +0.048 C 
ATOM     25  C   UNL     1      31.585 -11.788 -20.071  0.00  0.00    +0.001 C 
ATOM     26  C   UNL     1      31.955  -9.074 -20.784  0.00  0.00    +0.015 C 
ATOM     27  C   UNL     1      31.326 -10.763 -19.154  0.00  0.00    +0.000 C 
ATOM     28  C   UNL     1      31.509  -9.427 -19.506  0.00  0.00    +0.001 C 
ATOM     29  H   UNL     1      32.856  -9.235 -23.488  0.00  0.00    +0.152 HD
ENDBRANCH  19  21
ENDBRANCH  18  19
ENDBRANCH   1  18
TORSDOF 5
ENDMDL
MODEL 8
REMARK VINA RESULT:      -9.6      3.582      6.294
REMARK  Name = 33625
REMARK  5 active torsions:
REMARK  status: ('A' for Active; 'I' for Inactive)
REMARK    1  A    between atoms: N_1  and  C_18
REMARK    2  A    between atoms: C_2  and  N_9
REMARK    3  A    between atoms: C_10  and  C_12
REMARK    4  A    between atoms: C_18  and  C_19
REMARK    5  A    between atoms: C_19  and  C_21
REMARK                            x       y       z     vdW  Elec       q    Type
REMARK                         _______ _______ _______ _____ _____    ______ ____
ROOT
ATOM      1  N   UNL     1      33.448  -9.894 -23.605  0.00  0.00    +0.387 N 
ATOM      2  C   UNL     1      33.217  -7.012 -23.072  0.00  0.00    +0.068 C 
ATOM      3  C   UNL     1      34.539  -7.773 -22.943  0.00  0.00    -0.003 C 
ATOM      4  C   UNL     1      32.039  -7.976 -22.919  0.00  0.00    -0.003 C 
ATOM      5  C   UNL     1      34.589  -9.003 -23.854  0.00  0.00    -0.076 C 
ATOM      6  C   UNL     1      32.173  -9.200 -23.831  0.00  0.00    -0.076 C 
ATOM      7  H   UNL     1      33.480 -10.179 -22.626  0.00  0.00    -0.080 HD
ENDROOT
BRANCH   2   9
ATOM      8  O   UNL     1      31.708  -4.629 -23.611  0.00  0.00    -0.270 OA
ATOM      9  N   UNL     1      33.148  -6.299 -24.328  0.00  0.00    -0.303 N 
ATOM     10  C   UNL     1      32.387  -5.152 -24.490  0.00  0.00    +0.246 C 
ATOM     11  H   UNL     1      33.661  -6.641 -25.096  0.00  0.00    +0.150 HD
BRANCH  10  12
ATOM     12  C   UNL     1      32.400  -4.553 -25.850  0.00  0.00    +0.053 C 
ATOM     13  C   UNL     1      33.174  -5.141 -26.830  0.00  0.00    +0.005 C 
ATOM     14  C   UNL     1      31.639  -3.427 -26.089  0.00  0.00    +0.005 C 
ATOM     15  C   UNL     1      33.187  -4.578 -28.106  0.00  0.00    +0.000 C 
ATOM     16  C   UNL     1      31.652  -2.866 -27.366  0.00  0.00    +0.000 C 
ATOM     17  C   UNL     1      32.426  -3.441 -28.374  0.00  0.00    +0.000 C 
ENDBRANCH  10  12
ENDBRANCH   2   9
BRANCH   1  18
ATOM     18  C   UNL     1      33.537 -11.088 -24.444  0.00  0.00    -0.073 C 
BRANCH  18  19
ATOM     19  C   UNL     1      33.369 -12.359 -23.610  0.00  0.00    +0.005 C 
BRANCH  19  21
ATOM     20  N   UNL     1      33.219 -14.962 -26.164  0.00  0.00    -0.312 N 
ATOM     21  C   UNL     1      33.442 -13.597 -24.465  0.00  0.00    -0.008 C 
ATOM     22  C   UNL     1      34.004 -14.825 -24.080  0.00  0.00    +0.011 C 
ATOM     23  C   UNL     1      32.966 -13.688 -25.735  0.00  0.00    +0.057 C 
ATOM     24  C   UNL     1      33.853 -15.680 -25.174  0.00  0.00    +0.048 C 
ATOM     25  C   UNL     1      34.630 -15.317 -22.918  0.00  0.00    +0.001 C 
ATOM     26  C   UNL     1      34.298 -17.006 -25.164  0.00  0.00    +0.015 C 
ATOM     27  C   UNL     1      35.081 -16.641 -22.893  0.00  0.00    +0.000 C 
ATOM     28  C   UNL     1      34.916 -17.472 -23.999  0.00  0.00    +0.001 C 
ATOM     29  H   UNL     1      32.984 -15.315 -27.052  0.00  0.00    +0.152 HD
ENDBRANCH  19  21
ENDBRANCH  18  19
ENDBRANCH   1  18
TORSDOF 5
ENDMDL
MODEL 9
REMARK VINA RESULT:      -9.6      2.367      9.417
REMARK  Name = 33625
REMARK  5 active torsions:
REMARK  status: ('A' for Active; 'I' for Inactive)
REMARK    1  A    between atoms: N_1  and  C_18
REMARK    2  A    between atoms: C_2  and  N_9
REMARK    3  A    between atoms: C_10  and  C_12
REMARK    4  A    between atoms: C_18  and  C_19
REMARK    5  A    between atoms: C_19  and  C_21
REMARK                            x       y       z     vdW  Elec       q    Type
REMARK                         _______ _______ _______ _____ _____    ______ ____
ROOT
ATOM      1  N   UNL     1      33.712 -14.985 -24.389  0.00  0.00    +0.387 N 
ATOM      2  C   UNL     1      35.449 -17.315 -23.949  0.00  0.00    +0.068 C 
ATOM      3  C   UNL     1      35.728 -15.947 -23.323  0.00  0.00    -0.003 C 
ATOM      4  C   UNL     1      34.588 -17.153 -25.204  0.00  0.00    -0.003 C 
ATOM      5  C   UNL     1      34.448 -15.130 -23.126  0.00  0.00    -0.076 C 
ATOM      6  C   UNL     1      33.346 -16.295 -24.944  0.00  0.00    -0.076 C 
ATOM      7  H   UNL     1      34.326 -14.522 -25.059  0.00  0.00    -0.080 HD
ENDROOT
BRANCH   2   9
ATOM      8  O   UNL     1      36.702 -18.572 -21.691  0.00  0.00    -0.270 OA
ATOM      9  N   UNL     1      34.821 -18.205 -22.997  0.00  0.00    -0.303 N 
ATOM     10  C   UNL     1      35.514 -18.764 -21.935  0.00  0.00    +0.246 C 
ATOM     11  H   UNL     1      33.867 -18.421 -23.108  0.00  0.00    +0.150 HD
BRANCH  10  12
ATOM     12  C   UNL     1      34.733 -19.679 -21.062  0.00  0.00    +0.053 C 
ATOM     13  C   UNL     1      33.366 -19.508 -20.973  0.00  0.00    +0.005 C 
ATOM     14  C   UNL     1      35.399 -20.669 -20.370  0.00  0.00    +0.005 C 
ATOM     15  C   UNL     1      32.633 -20.367 -20.153  0.00  0.00    +0.000 C 
ATOM     16  C   UNL     1      34.665 -21.527 -19.551  0.00  0.00    +0.000 C 
ATOM     17  C   UNL     1      33.282 -21.376 -19.442  0.00  0.00    +0.000 C 
ENDBRANCH  10  12
ENDBRANCH   2   9
BRANCH   1  18
ATOM     18  C   UNL     1      32.520 -14.159 -24.196  0.00  0.00    -0.073 C 
BRANCH  18  19
ATOM     19  C   UNL     1      32.406 -13.692 -22.745  0.00  0.00    +0.005 C 
BRANCH  19  21
ATOM     20  N   UNL     1      31.506 -10.209 -22.116  0.00  0.00    -0.312 N 
ATOM     21  C   UNL     1      32.262 -12.194 -22.655  0.00  0.00    -0.008 C 
ATOM     22  C   UNL     1      33.093 -11.254 -23.287  0.00  0.00    +0.011 C 
ATOM     23  C   UNL     1      31.299 -11.552 -21.945  0.00  0.00    +0.057 C 
ATOM     24  C   UNL     1      32.595  -9.998 -22.932  0.00  0.00    +0.048 C 
ATOM     25  C   UNL     1      34.221 -11.322 -24.129  0.00  0.00    +0.001 C 
ATOM     26  C   UNL     1      33.172  -8.804 -23.378  0.00  0.00    +0.015 C 
ATOM     27  C   UNL     1      34.808 -10.136 -24.582  0.00  0.00    +0.000 C 
ATOM     28  C   UNL     1      34.290  -8.897 -24.212  0.00  0.00    +0.001 C 
ATOM     29  H   UNL     1      30.957  -9.499 -21.715  0.00  0.00    +0.152 HD
ENDBRANCH  19  21
ENDBRANCH  18  19
ENDBRANCH   1  18
TORSDOF 5
ENDMDL
