MODEL 1
REMARK VINA RESULT:      -8.5      0.000      0.000
REMARK  Name = 21722
REMARK  4 active torsions:
REMARK  status: ('A' for Active; 'I' for Inactive)
REMARK    1  A    between atoms: N_1  and  C_16
REMARK    2  A    between atoms: C_16  and  C_17
REMARK    3  A    between atoms: C_17  and  C_18
REMARK    4  A    between atoms: C_18  and  N_19
REMARK                            x       y       z     vdW  Elec       q    Type
REMARK                         _______ _______ _______ _____ _____    ______ ____
ROOT
ATOM      1  N   UNL     1      33.563 -14.920 -24.158  0.00  0.00    -0.331 N 
ATOM      2  C   UNL     1      34.461 -15.945 -24.014  0.00  0.00    +0.033 A 
ATOM      3  C   UNL     1      34.662 -16.157 -22.661  0.00  0.00    -0.009 A 
ATOM      4  C   UNL     1      35.040 -16.664 -25.181  0.00  0.00    +0.043 C 
ATOM      5  C   UNL     1      35.574 -17.182 -22.069  0.00  0.00    +0.028 C 
ATOM      6  C   UNL     1      34.235 -17.910 -25.550  0.00  0.00    +0.006 C 
ATOM      7  C   UNL     1      33.834 -15.218 -21.965  0.00  0.00    +0.013 A 
ATOM      8  C   UNL     1      35.021 -18.609 -22.106  0.00  0.00    +0.005 C 
ATOM      9  C   UNL     1      33.162 -14.461 -22.926  0.00  0.00    +0.059 A 
ATOM     10  C   UNL     1      33.857 -18.853 -24.399  0.00  0.00    +0.000 C 
ATOM     11  C   UNL     1      35.014 -19.280 -23.489  0.00  0.00    +0.000 C 
ATOM     12  C   UNL     1      33.590 -14.941 -20.602  0.00  0.00    +0.001 C 
ATOM     13  C   UNL     1      32.260 -13.442 -22.595  0.00  0.00    +0.017 C 
ATOM     14  C   UNL     1      32.691 -13.925 -20.257  0.00  0.00    +0.000 C 
ATOM     15  C   UNL     1      32.038 -13.187 -21.240  0.00  0.00    +0.001 C 
ENDROOT
BRANCH   1  16
ATOM     16  C   UNL     1      33.073 -14.395 -25.417  0.00  0.00    +0.104 C 
BRANCH  16  17
ATOM     17  C   UNL     1      34.007 -13.334 -25.999  0.00  0.00    +0.002 C 
BRANCH  17  18
ATOM     18  C   UNL     1      33.517 -11.927 -25.661  0.00  0.00    -0.076 C 
BRANCH  18  19
ATOM     19  N   UNL     1      34.531 -11.205 -24.902  0.00  0.00    +0.384 N 
ATOM     20  C   UNL     1      33.905 -10.332 -23.908  0.00  0.00    -0.101 C 
ATOM     21  C   UNL     1      35.386 -10.425 -25.797  0.00  0.00    -0.101 C 
ATOM     22  H   UNL     1      35.110 -11.888 -24.415  0.00  0.00    -0.080 HD
ENDBRANCH  18  19
ENDBRANCH  17  18
ENDBRANCH  16  17
ENDBRANCH   1  16
TORSDOF 4
ENDMDL
MODEL 2
REMARK VINA RESULT:      -8.1      4.466      7.455
REMARK  Name = 21722
REMARK  4 active torsions:
REMARK  status: ('A' for Active; 'I' for Inactive)
REMARK    1  A    between atoms: N_1  and  C_16
REMARK    2  A    between atoms: C_16  and  C_17
REMARK    3  A    between atoms: C_17  and  C_18
REMARK    4  A    between atoms: C_18  and  N_19
REMARK                            x       y       z     vdW  Elec       q    Type
REMARK                         _______ _______ _______ _____ _____    ______ ____
ROOT
ATOM      1  N   UNL     1      33.332  -8.553 -23.058  0.00  0.00    -0.331 N 
ATOM      2  C   UNL     1      32.282  -8.972 -22.284  0.00  0.00    +0.033 A 
ATOM      3  C   UNL     1      32.034 -10.302 -22.577  0.00  0.00    -0.009 A 
ATOM      4  C   UNL     1      31.610  -8.078 -21.303  0.00  0.00    +0.043 C 
ATOM      5  C   UNL     1      30.965 -11.143 -21.957  0.00  0.00    +0.028 C 
ATOM      6  C   UNL     1      32.213  -8.198 -19.903  0.00  0.00    +0.006 C 
ATOM      7  C   UNL     1      32.991 -10.697 -23.566  0.00  0.00    +0.013 A 
ATOM      8  C   UNL     1      31.285 -11.620 -20.538  0.00  0.00    +0.005 C 
ATOM      9  C   UNL     1      33.786  -9.584 -23.846  0.00  0.00    +0.059 A 
ATOM     10  C   UNL     1      32.423  -9.620 -19.364  0.00  0.00    +0.000 C 
ATOM     11  C   UNL     1      31.203 -10.543 -19.444  0.00  0.00    +0.000 C 
ATOM     12  C   UNL     1      33.260 -11.902 -24.251  0.00  0.00    +0.001 C 
ATOM     13  C   UNL     1      34.833  -9.613 -24.774  0.00  0.00    +0.017 C 
ATOM     14  C   UNL     1      34.304 -11.946 -25.182  0.00  0.00    +0.000 C 
ATOM     15  C   UNL     1      35.077 -10.817 -25.439  0.00  0.00    +0.001 C 
ENDROOT
BRANCH   1  16
ATOM     16  C   UNL     1      33.913  -7.225 -23.048  0.00  0.00    +0.104 C 
BRANCH  16  17
ATOM     17  C   UNL     1      33.627  -6.462 -24.341  0.00  0.00    +0.002 C 
BRANCH  17  18
ATOM     18  C   UNL     1      32.140  -6.131 -24.464  0.00  0.00    -0.076 C 
BRANCH  18  19
ATOM     19  N   UNL     1      31.890  -4.759 -24.041  0.00  0.00    +0.384 N 
ATOM     20  C   UNL     1      31.054  -4.735 -22.839  0.00  0.00    -0.101 C 
ATOM     21  C   UNL     1      31.255  -3.996 -25.116  0.00  0.00    -0.101 C 
ATOM     22  H   UNL     1      32.786  -4.325 -23.821  0.00  0.00    -0.080 HD
ENDBRANCH  18  19
ENDBRANCH  17  18
ENDBRANCH  16  17
ENDBRANCH   1  16
TORSDOF 4
ENDMDL
MODEL 3
REMARK VINA RESULT:      -8.0      2.311      6.460
REMARK  Name = 21722
REMARK  4 active torsions:
REMARK  status: ('A' for Active; 'I' for Inactive)
REMARK    1  A    between atoms: N_1  and  C_16
REMARK    2  A    between atoms: C_16  and  C_17
REMARK    3  A    between atoms: C_17  and  C_18
REMARK    4  A    between atoms: C_18  and  N_19
REMARK                            x       y       z     vdW  Elec       q    Type
REMARK                         _______ _______ _______ _____ _____    ______ ____
ROOT
ATOM      1  N   UNL     1      32.291 -11.637 -22.592  0.00  0.00    -0.331 N 
ATOM      2  C   UNL     1      32.577 -10.578 -23.412  0.00  0.00    +0.033 A 
ATOM      3  C   UNL     1      32.456  -9.414 -22.673  0.00  0.00    -0.009 A 
ATOM      4  C   UNL     1      32.971 -10.758 -24.836  0.00  0.00    +0.043 C 
ATOM      5  C   UNL     1      32.677  -8.030 -23.190  0.00  0.00    +0.028 C 
ATOM      6  C   UNL     1      34.488 -10.832 -25.012  0.00  0.00    +0.006 C 
ATOM      7  C   UNL     1      32.091  -9.801 -21.343  0.00  0.00    +0.013 A 
ATOM      8  C   UNL     1      34.151  -7.650 -23.358  0.00  0.00    +0.005 C 
ATOM      9  C   UNL     1      31.994 -11.193 -21.325  0.00  0.00    +0.059 A 
ATOM     10  C   UNL     1      35.317  -9.755 -24.297  0.00  0.00    +0.000 C 
ATOM     11  C   UNL     1      34.873  -8.309 -24.544  0.00  0.00    +0.000 C 
ATOM     12  C   UNL     1      31.834  -9.095 -20.147  0.00  0.00    +0.001 C 
ATOM     13  C   UNL     1      31.654 -11.916 -20.176  0.00  0.00    +0.017 C 
ATOM     14  C   UNL     1      31.492  -9.804 -18.990  0.00  0.00    +0.000 C 
ATOM     15  C   UNL     1      31.403 -11.194 -19.006  0.00  0.00    +0.001 C 
ENDROOT
BRANCH   1  16
ATOM     16  C   UNL     1      32.313 -13.034 -22.976  0.00  0.00    +0.104 C 
BRANCH  16  17
ATOM     17  C   UNL     1      33.693 -13.662 -22.778  0.00  0.00    +0.002 C 
BRANCH  17  18
ATOM     18  C   UNL     1      33.980 -14.705 -23.857  0.00  0.00    -0.076 C 
BRANCH  18  19
ATOM     19  N   UNL     1      34.921 -15.702 -23.361  0.00  0.00    +0.384 N 
ATOM     20  C   UNL     1      34.844 -16.925 -24.163  0.00  0.00    -0.101 C 
ATOM     21  C   UNL     1      34.660 -16.001 -21.953  0.00  0.00    -0.101 C 
ATOM     22  H   UNL     1      35.863 -15.320 -23.443  0.00  0.00    -0.080 HD
ENDBRANCH  18  19
ENDBRANCH  17  18
ENDBRANCH  16  17
ENDBRANCH   1  16
TORSDOF 4
ENDMDL
MODEL 4
REMARK VINA RESULT:      -8.0      9.767     13.212
REMARK  Name = 21722
REMARK  4 active torsions:
REMARK  status: ('A' for Active; 'I' for Inactive)
REMARK    1  A    between atoms: N_1  and  C_16
REMARK    2  A    between atoms: C_16  and  C_17
REMARK    3  A    between atoms: C_17  and  C_18
REMARK    4  A    between atoms: C_18  and  N_19
REMARK                            x       y       z     vdW  Elec       q    Type
REMARK                         _______ _______ _______ _____ _____    ______ ____
ROOT
ATOM      1  N   UNL     1      34.530 -23.561 -14.498  0.00  0.00    -0.331 N 
ATOM      2  C   UNL     1      35.135 -23.551 -15.727  0.00  0.00    +0.033 A 
ATOM      3  C   UNL     1      34.156 -23.369 -16.689  0.00  0.00    -0.009 A 
ATOM      4  C   UNL     1      36.607 -23.690 -15.890  0.00  0.00    +0.043 C 
ATOM      5  C   UNL     1      34.388 -23.304 -18.163  0.00  0.00    +0.028 C 
ATOM      6  C   UNL     1      37.314 -22.335 -15.939  0.00  0.00    +0.006 C 
ATOM      7  C   UNL     1      32.907 -23.254 -15.996  0.00  0.00    +0.013 A 
ATOM      8  C   UNL     1      34.970 -21.973 -18.649  0.00  0.00    +0.005 C 
ATOM      9  C   UNL     1      33.174 -23.379 -14.632  0.00  0.00    +0.059 A 
ATOM     10  C   UNL     1      36.710 -21.276 -16.872  0.00  0.00    +0.000 C 
ATOM     11  C   UNL     1      36.450 -21.736 -18.310  0.00  0.00    +0.000 C 
ATOM     12  C   UNL     1      31.570 -23.051 -16.402  0.00  0.00    +0.001 C 
ATOM     13  C   UNL     1      32.174 -23.313 -13.654  0.00  0.00    +0.017 C 
ATOM     14  C   UNL     1      30.560 -22.984 -15.436  0.00  0.00    +0.000 C 
ATOM     15  C   UNL     1      30.860 -23.114 -14.082  0.00  0.00    +0.001 C 
ENDROOT
BRANCH   1  16
ATOM     16  C   UNL     1      35.205 -23.717 -13.225  0.00  0.00    +0.104 C 
BRANCH  16  17
ATOM     17  C   UNL     1      35.720 -25.141 -13.017  0.00  0.00    +0.002 C 
BRANCH  17  18
ATOM     18  C   UNL     1      37.091 -25.134 -12.343  0.00  0.00    -0.076 C 
BRANCH  18  19
ATOM     19  N   UNL     1      37.979 -26.093 -12.990  0.00  0.00    +0.384 N 
ATOM     20  C   UNL     1      39.157 -25.416 -13.537  0.00  0.00    -0.101 C 
ATOM     21  C   UNL     1      37.273 -26.816 -14.049  0.00  0.00    -0.101 C 
ATOM     22  H   UNL     1      38.287 -26.765 -12.288  0.00  0.00    -0.080 HD
ENDBRANCH  18  19
ENDBRANCH  17  18
ENDBRANCH  16  17
ENDBRANCH   1  16
TORSDOF 4
ENDMDL
MODEL 5
REMARK VINA RESULT:      -7.9      9.592     13.159
REMARK  Name = 21722
REMARK  4 active torsions:
REMARK  status: ('A' for Active; 'I' for Inactive)
REMARK    1  A    between atoms: N_1  and  C_16
REMARK    2  A    between atoms: C_16  and  C_17
REMARK    3  A    between atoms: C_17  and  C_18
REMARK    4  A    between atoms: C_18  and  N_19
REMARK                            x       y       z     vdW  Elec       q    Type
REMARK                         _______ _______ _______ _____ _____    ______ ____
ROOT
ATOM      1  N   UNL     1      33.355 -23.316 -15.136  0.00  0.00    -0.331 N 
ATOM      2  C   UNL     1      32.001 -23.248 -14.939  0.00  0.00    +0.033 A 
ATOM      3  C   UNL     1      31.413 -22.831 -16.120  0.00  0.00    -0.009 A 
ATOM      4  C   UNL     1      31.367 -23.613 -13.643  0.00  0.00    +0.043 C 
ATOM      5  C   UNL     1      29.949 -22.621 -16.334  0.00  0.00    +0.028 C 
ATOM      6  C   UNL     1      30.929 -25.078 -13.605  0.00  0.00    +0.006 C 
ATOM      7  C   UNL     1      32.469 -22.652 -17.071  0.00  0.00    +0.013 A 
ATOM      8  C   UNL     1      29.149 -23.914 -16.511  0.00  0.00    +0.005 C 
ATOM      9  C   UNL     1      33.668 -22.961 -16.427  0.00  0.00    +0.059 A 
ATOM     10  C   UNL     1      30.142 -25.593 -14.818  0.00  0.00    +0.000 C 
ATOM     11  C   UNL     1      28.938 -24.741 -15.233  0.00  0.00    +0.000 C 
ATOM     12  C   UNL     1      32.518 -22.257 -18.426  0.00  0.00    +0.001 C 
ATOM     13  C   UNL     1      34.912 -22.895 -17.065  0.00  0.00    +0.017 C 
ATOM     14  C   UNL     1      33.754 -22.186 -19.077  0.00  0.00    +0.000 C 
ATOM     15  C   UNL     1      34.933 -22.500 -18.405  0.00  0.00    +0.001 C 
ENDROOT
BRANCH   1  16
ATOM     16  C   UNL     1      34.334 -23.722 -14.148  0.00  0.00    +0.104 C 
BRANCH  16  17
ATOM     17  C   UNL     1      35.163 -24.917 -14.619  0.00  0.00    +0.002 C 
BRANCH  17  18
ATOM     18  C   UNL     1      36.640 -24.730 -14.274  0.00  0.00    -0.076 C 
BRANCH  18  19
ATOM     19  N   UNL     1      37.474 -25.524 -15.168  0.00  0.00    +0.384 N 
ATOM     20  C   UNL     1      36.912 -26.866 -15.339  0.00  0.00    -0.101 C 
ATOM     21  C   UNL     1      38.842 -25.609 -14.657  0.00  0.00    -0.101 C 
ATOM     22  H   UNL     1      37.495 -25.063 -16.077  0.00  0.00    -0.080 HD
ENDBRANCH  18  19
ENDBRANCH  17  18
ENDBRANCH  16  17
ENDBRANCH   1  16
TORSDOF 4
ENDMDL
MODEL 6
REMARK VINA RESULT:      -7.8      3.073      6.156
REMARK  Name = 21722
REMARK  4 active torsions:
REMARK  status: ('A' for Active; 'I' for Inactive)
REMARK    1  A    between atoms: N_1  and  C_16
REMARK    2  A    between atoms: C_16  and  C_17
REMARK    3  A    between atoms: C_17  and  C_18
REMARK    4  A    between atoms: C_18  and  N_19
REMARK                            x       y       z     vdW  Elec       q    Type
REMARK                         _______ _______ _______ _____ _____    ______ ____
ROOT
ATOM      1  N   UNL     1      32.583  -9.952 -22.552  0.00  0.00    -0.331 N 
ATOM      2  C   UNL     1      32.053 -11.211 -22.444  0.00  0.00    +0.033 A 
ATOM      3  C   UNL     1      32.656 -12.017 -23.394  0.00  0.00    -0.009 A 
ATOM      4  C   UNL     1      31.028 -11.557 -21.423  0.00  0.00    +0.043 C 
ATOM      5  C   UNL     1      32.360 -13.464 -23.620  0.00  0.00    +0.028 C 
ATOM      6  C   UNL     1      31.652 -12.108 -20.140  0.00  0.00    +0.006 C 
ATOM      7  C   UNL     1      33.600 -11.199 -24.095  0.00  0.00    +0.013 A 
ATOM      8  C   UNL     1      32.980 -14.400 -22.579  0.00  0.00    +0.005 C 
ATOM      9  C   UNL     1      33.530  -9.917 -23.547  0.00  0.00    +0.059 A 
ATOM     10  C   UNL     1      32.717 -13.201 -20.307  0.00  0.00    +0.000 C 
ATOM     11  C   UNL     1      32.315 -14.384 -21.194  0.00  0.00    +0.000 C 
ATOM     12  C   UNL     1      34.513 -11.430 -25.147  0.00  0.00    +0.001 C 
ATOM     13  C   UNL     1      34.325  -8.856 -23.997  0.00  0.00    +0.017 C 
ATOM     14  C   UNL     1      35.313 -10.378 -25.607  0.00  0.00    +0.000 C 
ATOM     15  C   UNL     1      35.218  -9.110 -25.039  0.00  0.00    +0.001 C 
ENDROOT
BRANCH   1  16
ATOM     16  C   UNL     1      32.229  -8.812 -21.730  0.00  0.00    +0.104 C 
BRANCH  16  17
ATOM     17  C   UNL     1      31.319  -7.831 -22.469  0.00  0.00    +0.002 C 
BRANCH  17  18
ATOM     18  C   UNL     1      31.586  -6.394 -22.024  0.00  0.00    -0.076 C 
BRANCH  18  19
ATOM     19  N   UNL     1      31.945  -5.567 -23.169  0.00  0.00    +0.384 N 
ATOM     20  C   UNL     1      31.239  -4.285 -23.119  0.00  0.00    -0.101 C 
ATOM     21  C   UNL     1      31.647  -6.262 -24.421  0.00  0.00    -0.101 C 
ATOM     22  H   UNL     1      32.948  -5.386 -23.129  0.00  0.00    -0.080 HD
ENDBRANCH  18  19
ENDBRANCH  17  18
ENDBRANCH  16  17
ENDBRANCH   1  16
TORSDOF 4
ENDMDL
MODEL 7
REMARK VINA RESULT:      -7.8      2.582      7.131
REMARK  Name = 21722
REMARK  4 active torsions:
REMARK  status: ('A' for Active; 'I' for Inactive)
REMARK    1  A    between atoms: N_1  and  C_16
REMARK    2  A    between atoms: C_16  and  C_17
REMARK    3  A    between atoms: C_17  and  C_18
REMARK    4  A    between atoms: C_18  and  N_19
REMARK                            x       y       z     vdW  Elec       q    Type
REMARK                         _______ _______ _______ _____ _____    ______ ____
ROOT
ATOM      1  N   UNL     1      34.745 -17.382 -21.843  0.00  0.00    -0.331 N 
ATOM      2  C   UNL     1      34.588 -16.022 -21.779  0.00  0.00    +0.033 A 
ATOM      3  C   UNL     1      34.426 -15.544 -23.068  0.00  0.00    -0.009 A 
ATOM      4  C   UNL     1      34.577 -15.284 -20.487  0.00  0.00    +0.043 C 
ATOM      5  C   UNL     1      34.232 -14.111 -23.444  0.00  0.00    +0.028 C 
ATOM      6  C   UNL     1      33.163 -15.104 -19.934  0.00  0.00    +0.006 C 
ATOM      7  C   UNL     1      34.479 -16.677 -23.942  0.00  0.00    +0.013 A 
ATOM      8  C   UNL     1      32.821 -13.579 -23.179  0.00  0.00    +0.005 C 
ATOM      9  C   UNL     1      34.679 -17.808 -23.148  0.00  0.00    +0.059 A 
ATOM     10  C   UNL     1      32.099 -14.597 -20.918  0.00  0.00    +0.000 C 
ATOM     11  C   UNL     1      32.473 -13.335 -21.702  0.00  0.00    +0.000 C 
ATOM     12  C   UNL     1      34.372 -16.849 -25.339  0.00  0.00    +0.001 C 
ATOM     13  C   UNL     1      34.778 -19.100 -23.679  0.00  0.00    +0.017 C 
ATOM     14  C   UNL     1      34.469 -18.134 -25.884  0.00  0.00    +0.000 C 
ATOM     15  C   UNL     1      34.671 -19.242 -25.064  0.00  0.00    +0.001 C 
ENDROOT
BRANCH   1  16
ATOM     16  C   UNL     1      34.930 -18.267 -20.711  0.00  0.00    +0.104 C 
BRANCH  16  17
ATOM     17  C   UNL     1      36.278 -18.987 -20.758  0.00  0.00    +0.002 C 
BRANCH  17  18
ATOM     18  C   UNL     1      36.096 -20.499 -20.638  0.00  0.00    -0.076 C 
BRANCH  18  19
ATOM     19  N   UNL     1      35.571 -20.843 -19.322  0.00  0.00    +0.384 N 
ATOM     20  C   UNL     1      36.589 -21.533 -18.527  0.00  0.00    -0.101 C 
ATOM     21  C   UNL     1      34.373 -21.674 -19.446  0.00  0.00    -0.101 C 
ATOM     22  H   UNL     1      35.318 -19.978 -18.844  0.00  0.00    -0.080 HD
ENDBRANCH  18  19
ENDBRANCH  17  18
ENDBRANCH  16  17
ENDBRANCH   1  16
TORSDOF 4
ENDMDL
MODEL 8
REMARK VINA RESULT:      -7.8      2.922      6.541
REMARK  Name = 21722
REMARK  4 active torsions:
REMARK  status: ('A' for Active; 'I' for Inactive)
REMARK    1  A    between atoms: N_1  and  C_16
REMARK    2  A    between atoms: C_16  and  C_17
REMARK    3  A    between atoms: C_17  and  C_18
REMARK    4  A    between atoms: C_18  and  N_19
REMARK                            x       y       z     vdW  Elec       q    Type
REMARK                         _______ _______ _______ _____ _____    ______ ____
ROOT
ATOM      1  N   UNL     1      32.778 -10.415 -23.505  0.00  0.00    -0.331 N 
ATOM      2  C   UNL     1      31.885 -10.094 -22.518  0.00  0.00    +0.033 A 
ATOM      3  C   UNL     1      31.549 -11.255 -21.843  0.00  0.00    -0.009 A 
ATOM      4  C   UNL     1      31.438  -8.695 -22.274  0.00  0.00    +0.043 C 
ATOM      5  C   UNL     1      30.597 -11.349 -20.696  0.00  0.00    +0.028 C 
ATOM      6  C   UNL     1      32.294  -7.989 -21.223  0.00  0.00    +0.006 C 
ATOM      7  C   UNL     1      32.289 -12.319 -22.453  0.00  0.00    +0.013 A 
ATOM      8  C   UNL     1      31.170 -10.861 -19.363  0.00  0.00    +0.005 C 
ATOM      9  C   UNL     1      33.045 -11.763 -23.487  0.00  0.00    +0.059 A 
ATOM     10  C   UNL     1      32.565  -8.761 -19.924  0.00  0.00    +0.000 C 
ATOM     11  C   UNL     1      31.328  -9.337 -19.229  0.00  0.00    +0.000 C 
ATOM     12  C   UNL     1      32.389 -13.708 -22.221  0.00  0.00    +0.001 C 
ATOM     13  C   UNL     1      33.893 -12.524 -24.300  0.00  0.00    +0.017 C 
ATOM     14  C   UNL     1      33.233 -14.481 -23.026  0.00  0.00    +0.000 C 
ATOM     15  C   UNL     1      33.973 -13.896 -24.051  0.00  0.00    +0.001 C 
ENDROOT
BRANCH   1  16
ATOM     16  C   UNL     1      33.386  -9.482 -24.433  0.00  0.00    +0.104 C 
BRANCH  16  17
ATOM     17  C   UNL     1      34.708  -8.926 -23.905  0.00  0.00    +0.002 C 
BRANCH  17  18
ATOM     18  C   UNL     1      34.644  -7.406 -23.758  0.00  0.00    -0.076 C 
BRANCH  18  19
ATOM     19  N   UNL     1      33.829  -6.829 -24.820  0.00  0.00    +0.384 N 
ATOM     20  C   UNL     1      34.666  -6.086 -25.764  0.00  0.00    -0.101 C 
ATOM     21  C   UNL     1      32.797  -5.955 -24.260  0.00  0.00    -0.101 C 
ATOM     22  H   UNL     1      33.372  -7.590 -25.321  0.00  0.00    -0.080 HD
ENDBRANCH  18  19
ENDBRANCH  17  18
ENDBRANCH  16  17
ENDBRANCH   1  16
TORSDOF 4
ENDMDL
MODEL 9
REMARK VINA RESULT:      -7.6      1.590      6.496
REMARK  Name = 21722
REMARK  4 active torsions:
REMARK  status: ('A' for Active; 'I' for Inactive)
REMARK    1  A    between atoms: N_1  and  C_16
REMARK    2  A    between atoms: C_16  and  C_17
REMARK    3  A    between atoms: C_17  and  C_18
REMARK    4  A    between atoms: C_18  and  N_19
REMARK                            x       y       z     vdW  Elec       q    Type
REMARK                         _______ _______ _______ _____ _____    ______ ____
ROOT
ATOM      1  N   UNL     1      33.093 -14.009 -23.188  0.00  0.00    -0.331 N 
ATOM      2  C   UNL     1      33.166 -12.750 -22.653  0.00  0.00    +0.033 A 
ATOM      3  C   UNL     1      33.354 -11.851 -23.688  0.00  0.00    -0.009 A 
ATOM      4  C   UNL     1      33.026 -12.498 -21.193  0.00  0.00    +0.043 C 
ATOM      5  C   UNL     1      33.493 -10.371 -23.538  0.00  0.00    +0.028 C 
ATOM      6  C   UNL     1      31.583 -12.183 -20.797  0.00  0.00    +0.006 C 
ATOM      7  C   UNL     1      33.382 -12.612 -24.901  0.00  0.00    +0.013 A 
ATOM      8  C   UNL     1      32.173  -9.640 -23.277  0.00  0.00    +0.005 C 
ATOM      9  C   UNL     1      33.217 -13.954 -24.556  0.00  0.00    +0.059 A 
ATOM     10  C   UNL     1      30.844 -11.146 -21.654  0.00  0.00    +0.000 C 
ATOM     11  C   UNL     1      31.583  -9.821 -21.870  0.00  0.00    +0.000 C 
ATOM     12  C   UNL     1      33.530 -12.284 -26.266  0.00  0.00    +0.001 C 
ATOM     13  C   UNL     1      33.194 -14.984 -25.504  0.00  0.00    +0.017 C 
ATOM     14  C   UNL     1      33.509 -13.303 -27.225  0.00  0.00    +0.000 C 
ATOM     15  C   UNL     1      33.344 -14.633 -26.847  0.00  0.00    +0.001 C 
ENDROOT
BRANCH   1  16
ATOM     16  C   UNL     1      32.888 -15.235 -22.442  0.00  0.00    +0.104 C 
BRANCH  16  17
ATOM     17  C   UNL     1      34.174 -15.723 -21.776  0.00  0.00    +0.002 C 
BRANCH  17  18
ATOM     18  C   UNL     1      34.963 -16.638 -22.711  0.00  0.00    -0.076 C 
BRANCH  18  19
ATOM     19  N   UNL     1      34.790 -18.032 -22.321  0.00  0.00    +0.384 N 
ATOM     20  C   UNL     1      35.754 -18.400 -21.282  0.00  0.00    -0.101 C 
ATOM     21  C   UNL     1      34.934 -18.913 -23.481  0.00  0.00    -0.101 C 
ATOM     22  H   UNL     1      33.849 -18.143 -21.945  0.00  0.00    -0.080 HD
ENDBRANCH  18  19
ENDBRANCH  17  18
ENDBRANCH  16  17
ENDBRANCH   1  16
TORSDOF 4
ENDMDL
