MODEL 1
REMARK VINA RESULT:      -9.8      0.000      0.000
REMARK  Name = 446491
REMARK  8 active torsions:
REMARK  status: ('A' for Active; 'I' for Inactive)
REMARK    1  A    between atoms: C_2  and  O_16
REMARK    2  A    between atoms: C_3  and  N_6
REMARK    3  A    between atoms: C_4  and  O_18
REMARK    4  A    between atoms: C_5  and  C_20
REMARK    5  A    between atoms: C_20  and  O_21
REMARK    6  A    between atoms: O_21  and  P_22
REMARK    7  A    between atoms: P_22  and  O_24
REMARK    8  A    between atoms: P_22  and  O_26
REMARK                            x       y       z     vdW  Elec       q    Type
REMARK                         _______ _______ _______ _____ _____    ______ ____
ROOT
ATOM      1  O   UNL     1      35.808 -25.257 -15.538  0.00  0.00    -0.333 OA
ATOM      2  C   UNL     1      35.580 -23.577 -13.862  0.00  0.00    +0.187 C 
ATOM      3  C   UNL     1      34.817 -24.539 -14.770  0.00  0.00    +0.224 C 
ATOM      4  C   UNL     1      36.814 -24.408 -13.572  0.00  0.00    +0.171 C 
ATOM      5  C   UNL     1      37.096 -25.026 -14.936  0.00  0.00    +0.176 C 
ENDROOT
BRANCH   3   6
ATOM      6  N   UNL     1      33.829 -23.927 -15.652  0.00  0.00    -0.262 N 
ATOM      7  N   UNL     1      32.972 -22.996 -17.488  0.00  0.00    -0.247 NA
ATOM      8  C   UNL     1      32.512 -23.664 -15.357  0.00  0.00    +0.064 C 
ATOM      9  C   UNL     1      34.051 -23.510 -16.939  0.00  0.00    +0.222 C 
ATOM     10  C   UNL     1      32.001 -23.084 -16.516  0.00  0.00    +0.090 C 
ATOM     11  C   UNL     1      31.750 -23.876 -14.208  0.00  0.00    -0.006 C 
ATOM     12  C   UNL     1      30.654 -22.688 -16.548  0.00  0.00    +0.012 C 
ATOM     13  C   UNL     1      29.870 -22.892 -15.405  0.00  0.00    -0.038 C 
ATOM     14  C   UNL     1      30.410 -23.476 -14.257  0.00  0.00    +0.049 C 
ATOM     15  C   UNL     1      28.436 -22.479 -15.416  0.00  0.00    +0.027 C 
ENDBRANCH   3   6
BRANCH   2  16
ATOM     16  O   UNL     1      35.945 -22.396 -14.572  0.00  0.00    -0.378 OA
ATOM     17  H   UNL     1      36.085 -22.612 -15.507  0.00  0.00    +0.211 HD
ENDBRANCH   2  16
BRANCH   4  18
ATOM     18  O   UNL     1      37.904 -23.647 -13.100  0.00  0.00    -0.379 OA
ATOM     19  H   UNL     1      37.955 -23.718 -12.134  0.00  0.00    +0.211 HD
ENDBRANCH   4  18
BRANCH   5  20
ATOM     20  C   UNL     1      37.864 -26.333 -14.855  0.00  0.00    +0.186 C 
BRANCH  20  21
ATOM     21  O   UNL     1      38.923 -26.185 -13.923  0.00  0.00    -0.271 OA
BRANCH  21  22
ATOM     22  P   UNL     1      40.379 -25.745 -14.476  0.00  0.00    +0.473 P 
ATOM     23  O   UNL     1      40.859 -24.405 -14.002  0.00  0.00    -0.227 OA
BRANCH  22  24
ATOM     24  O   UNL     1      40.246 -25.904 -16.080  0.00  0.00    -0.303 OA
ATOM     25  H   UNL     1      41.015 -25.498 -16.510  0.00  0.00    +0.222 HD
ENDBRANCH  22  24
BRANCH  22  26
ATOM     26  O   UNL     1      41.317 -26.994 -14.056  0.00  0.00    -0.303 OA
ATOM     27  H   UNL     1      42.245 -26.712 -14.043  0.00  0.00    +0.222 HD
ENDBRANCH  22  26
ENDBRANCH  21  22
ENDBRANCH  20  21
ENDBRANCH   5  20
TORSDOF 8
ENDMDL
MODEL 2
REMARK VINA RESULT:      -9.3      8.907     11.283
REMARK  Name = 446491
REMARK  8 active torsions:
REMARK  status: ('A' for Active; 'I' for Inactive)
REMARK    1  A    between atoms: C_2  and  O_16
REMARK    2  A    between atoms: C_3  and  N_6
REMARK    3  A    between atoms: C_4  and  O_18
REMARK    4  A    between atoms: C_5  and  C_20
REMARK    5  A    between atoms: C_20  and  O_21
REMARK    6  A    between atoms: O_21  and  P_22
REMARK    7  A    between atoms: P_22  and  O_24
REMARK    8  A    between atoms: P_22  and  O_26
REMARK                            x       y       z     vdW  Elec       q    Type
REMARK                         _______ _______ _______ _____ _____    ______ ____
ROOT
ATOM      1  O   UNL     1      34.903 -16.541 -22.120  0.00  0.00    -0.333 OA
ATOM      2  C   UNL     1      34.573 -18.173 -23.826  0.00  0.00    +0.187 C 
ATOM      3  C   UNL     1      34.419 -17.885 -22.334  0.00  0.00    +0.224 C 
ATOM      4  C   UNL     1      34.295 -16.795 -24.392  0.00  0.00    +0.171 C 
ATOM      5  C   UNL     1      35.034 -15.901 -23.404  0.00  0.00    +0.176 C 
ENDROOT
BRANCH   3   6
ATOM      6  N   UNL     1      35.088 -18.820 -21.437  0.00  0.00    -0.262 N 
ATOM      7  N   UNL     1      36.745 -19.800 -20.313  0.00  0.00    -0.247 NA
ATOM      8  C   UNL     1      34.502 -19.832 -20.713  0.00  0.00    +0.064 C 
ATOM      9  C   UNL     1      36.431 -18.845 -21.159  0.00  0.00    +0.222 C 
ATOM     10  C   UNL     1      35.555 -20.427 -20.023  0.00  0.00    +0.090 C 
ATOM     11  C   UNL     1      33.179 -20.263 -20.612  0.00  0.00    -0.006 C 
ATOM     12  C   UNL     1      35.290 -21.516 -19.177  0.00  0.00    +0.012 C 
ATOM     13  C   UNL     1      33.969 -21.966 -19.059  0.00  0.00    -0.038 C 
ATOM     14  C   UNL     1      32.933 -21.349 -19.764  0.00  0.00    +0.049 C 
ATOM     15  C   UNL     1      33.665 -23.123 -18.165  0.00  0.00    +0.027 C 
ENDBRANCH   3   6
BRANCH   2  16
ATOM     16  O   UNL     1      35.910 -18.562 -24.128  0.00  0.00    -0.378 OA
ATOM     17  H   UNL     1      36.387 -18.747 -23.304  0.00  0.00    +0.211 HD
ENDBRANCH   2  16
BRANCH   4  18
ATOM     18  O   UNL     1      34.765 -16.626 -25.712  0.00  0.00    -0.379 OA
ATOM     19  H   UNL     1      34.392 -15.813 -26.086  0.00  0.00    +0.211 HD
ENDBRANCH   4  18
BRANCH   5  20
ATOM     20  C   UNL     1      34.473 -14.492 -23.333  0.00  0.00    +0.186 C 
BRANCH  20  21
ATOM     21  O   UNL     1      34.167 -14.189 -21.981  0.00  0.00    -0.271 OA
BRANCH  21  22
ATOM     22  P   UNL     1      32.617 -13.965 -21.574  0.00  0.00    +0.473 P 
ATOM     23  O   UNL     1      32.395 -13.048 -20.407  0.00  0.00    -0.227 OA
BRANCH  22  24
ATOM     24  O   UNL     1      32.047 -15.468 -21.391  0.00  0.00    -0.303 OA
ATOM     25  H   UNL     1      32.693 -16.104 -21.737  0.00  0.00    +0.222 HD
ENDBRANCH  22  24
BRANCH  22  26
ATOM     26  O   UNL     1      31.946 -13.480 -22.962  0.00  0.00    -0.303 OA
ATOM     27  H   UNL     1      32.235 -14.061 -23.682  0.00  0.00    +0.222 HD
ENDBRANCH  22  26
ENDBRANCH  21  22
ENDBRANCH  20  21
ENDBRANCH   5  20
TORSDOF 8
ENDMDL
MODEL 3
REMARK VINA RESULT:      -9.2      2.419      4.089
REMARK  Name = 446491
REMARK  8 active torsions:
REMARK  status: ('A' for Active; 'I' for Inactive)
REMARK    1  A    between atoms: C_2  and  O_16
REMARK    2  A    between atoms: C_3  and  N_6
REMARK    3  A    between atoms: C_4  and  O_18
REMARK    4  A    between atoms: C_5  and  C_20
REMARK    5  A    between atoms: C_20  and  O_21
REMARK    6  A    between atoms: O_21  and  P_22
REMARK    7  A    between atoms: P_22  and  O_24
REMARK    8  A    between atoms: P_22  and  O_26
REMARK                            x       y       z     vdW  Elec       q    Type
REMARK                         _______ _______ _______ _____ _____    ______ ____
ROOT
ATOM      1  O   UNL     1      35.974 -23.206 -15.415  0.00  0.00    -0.333 OA
ATOM      2  C   UNL     1      33.892 -23.946 -14.518  0.00  0.00    +0.187 C 
ATOM      3  C   UNL     1      34.745 -23.870 -15.783  0.00  0.00    +0.224 C 
ATOM      4  C   UNL     1      34.979 -24.130 -13.477  0.00  0.00    +0.171 C 
ATOM      5  C   UNL     1      36.049 -23.168 -13.977  0.00  0.00    +0.176 C 
ENDROOT
BRANCH   3   6
ATOM      6  N   UNL     1      34.125 -23.206 -16.924  0.00  0.00    -0.262 N 
ATOM      7  N   UNL     1      32.528 -22.560 -18.340  0.00  0.00    -0.247 NA
ATOM      8  C   UNL     1      34.751 -22.415 -17.858  0.00  0.00    +0.064 C 
ATOM      9  C   UNL     1      32.796 -23.258 -17.259  0.00  0.00    +0.222 C 
ATOM     10  C   UNL     1      33.735 -22.026 -18.728  0.00  0.00    +0.090 C 
ATOM     11  C   UNL     1      36.081 -22.021 -18.010  0.00  0.00    -0.006 C 
ATOM     12  C   UNL     1      34.047 -21.196 -19.818  0.00  0.00    +0.012 C 
ATOM     13  C   UNL     1      35.376 -20.789 -19.989  0.00  0.00    -0.038 C 
ATOM     14  C   UNL     1      36.374 -21.195 -19.100  0.00  0.00    +0.049 C 
ATOM     15  C   UNL     1      35.730 -19.907 -21.141  0.00  0.00    +0.027 C 
ENDBRANCH   3   6
BRANCH   2  16
ATOM     16  O   UNL     1      33.210 -22.715 -14.295  0.00  0.00    -0.378 OA
ATOM     17  H   UNL     1      32.643 -22.797 -13.512  0.00  0.00    +0.211 HD
ENDBRANCH   2  16
BRANCH   4  18
ATOM     18  O   UNL     1      34.558 -23.818 -12.167  0.00  0.00    -0.379 OA
ATOM     19  H   UNL     1      34.057 -24.564 -11.802  0.00  0.00    +0.211 HD
ENDBRANCH   4  18
BRANCH   5  20
ATOM     20  C   UNL     1      37.451 -23.543 -13.529  0.00  0.00    +0.186 C 
BRANCH  20  21
ATOM     21  O   UNL     1      38.180 -24.012 -14.652  0.00  0.00    -0.271 OA
BRANCH  21  22
ATOM     22  P   UNL     1      38.564 -25.583 -14.720  0.00  0.00    +0.473 P 
ATOM     23  O   UNL     1      38.735 -26.252 -13.388  0.00  0.00    -0.227 OA
BRANCH  22  24
ATOM     24  O   UNL     1      39.864 -25.619 -15.683  0.00  0.00    -0.303 OA
ATOM     25  H   UNL     1      39.644 -26.084 -16.506  0.00  0.00    +0.222 HD
ENDBRANCH  22  24
BRANCH  22  26
ATOM     26  O   UNL     1      37.395 -26.201 -15.651  0.00  0.00    -0.303 OA
ATOM     27  H   UNL     1      36.666 -26.509 -15.091  0.00  0.00    +0.222 HD
ENDBRANCH  22  26
ENDBRANCH  21  22
ENDBRANCH  20  21
ENDBRANCH   5  20
TORSDOF 8
ENDMDL
MODEL 4
REMARK VINA RESULT:      -8.8      1.336      2.770
REMARK  Name = 446491
REMARK  8 active torsions:
REMARK  status: ('A' for Active; 'I' for Inactive)
REMARK    1  A    between atoms: C_2  and  O_16
REMARK    2  A    between atoms: C_3  and  N_6
REMARK    3  A    between atoms: C_4  and  O_18
REMARK    4  A    between atoms: C_5  and  C_20
REMARK    5  A    between atoms: C_20  and  O_21
REMARK    6  A    between atoms: O_21  and  P_22
REMARK    7  A    between atoms: P_22  and  O_24
REMARK    8  A    between atoms: P_22  and  O_26
REMARK                            x       y       z     vdW  Elec       q    Type
REMARK                         _______ _______ _______ _____ _____    ______ ____
ROOT
ATOM      1  O   UNL     1      35.761 -25.232 -15.530  0.00  0.00    -0.333 OA
ATOM      2  C   UNL     1      35.548 -23.671 -13.741  0.00  0.00    +0.187 C 
ATOM      3  C   UNL     1      34.781 -24.609 -14.671  0.00  0.00    +0.224 C 
ATOM      4  C   UNL     1      36.829 -24.462 -13.564  0.00  0.00    +0.171 C 
ATOM      5  C   UNL     1      37.067 -24.981 -14.977  0.00  0.00    +0.176 C 
ENDROOT
BRANCH   3   6
ATOM      6  N   UNL     1      33.725 -23.989 -15.463  0.00  0.00    -0.262 N 
ATOM      7  N   UNL     1      31.671 -23.366 -16.066  0.00  0.00    -0.247 NA
ATOM      8  C   UNL     1      33.877 -23.281 -16.632  0.00  0.00    +0.064 C 
ATOM      9  C   UNL     1      32.385 -24.008 -15.169  0.00  0.00    +0.222 C 
ATOM     10  C   UNL     1      32.584 -22.905 -16.986  0.00  0.00    +0.090 C 
ATOM     11  C   UNL     1      35.004 -22.951 -17.385  0.00  0.00    -0.006 C 
ATOM     12  C   UNL     1      32.386 -22.154 -18.157  0.00  0.00    +0.012 C 
ATOM     13  C   UNL     1      33.503 -21.811 -18.929  0.00  0.00    -0.038 C 
ATOM     14  C   UNL     1      34.789 -22.203 -18.548  0.00  0.00    +0.049 C 
ATOM     15  C   UNL     1      33.316 -21.014 -20.177  0.00  0.00    +0.027 C 
ENDBRANCH   3   6
BRANCH   2  16
ATOM     16  O   UNL     1      35.827 -22.434 -14.391  0.00  0.00    -0.378 OA
ATOM     17  H   UNL     1      35.028 -22.120 -14.844  0.00  0.00    +0.211 HD
ENDBRANCH   2  16
BRANCH   4  18
ATOM     18  O   UNL     1      37.909 -23.682 -13.098  0.00  0.00    -0.379 OA
ATOM     19  H   UNL     1      37.574 -22.977 -12.523  0.00  0.00    +0.211 HD
ENDBRANCH   4  18
BRANCH   5  20
ATOM     20  C   UNL     1      37.893 -26.254 -15.018  0.00  0.00    +0.186 C 
BRANCH  20  21
ATOM     21  O   UNL     1      38.898 -26.179 -14.020  0.00  0.00    -0.271 OA
BRANCH  21  22
ATOM     22  P   UNL     1      40.436 -25.990 -14.488  0.00  0.00    +0.473 P 
ATOM     23  O   UNL     1      41.388 -27.031 -13.975  0.00  0.00    -0.227 OA
BRANCH  22  24
ATOM     24  O   UNL     1      40.783 -24.468 -14.066  0.00  0.00    -0.303 OA
ATOM     25  H   UNL     1      41.668 -24.236 -14.389  0.00  0.00    +0.222 HD
ENDBRANCH  22  24
BRANCH  22  26
ATOM     26  O   UNL     1      40.315 -25.910 -16.099  0.00  0.00    -0.303 OA
ATOM     27  H   UNL     1      39.980 -26.754 -16.440  0.00  0.00    +0.222 HD
ENDBRANCH  22  26
ENDBRANCH  21  22
ENDBRANCH  20  21
ENDBRANCH   5  20
TORSDOF 8
ENDMDL
MODEL 5
REMARK VINA RESULT:      -8.7      5.104      8.361
REMARK  Name = 446491
REMARK  8 active torsions:
REMARK  status: ('A' for Active; 'I' for Inactive)
REMARK    1  A    between atoms: C_2  and  O_16
REMARK    2  A    between atoms: C_3  and  N_6
REMARK    3  A    between atoms: C_4  and  O_18
REMARK    4  A    between atoms: C_5  and  C_20
REMARK    5  A    between atoms: C_20  and  O_21
REMARK    6  A    between atoms: O_21  and  P_22
REMARK    7  A    between atoms: P_22  and  O_24
REMARK    8  A    between atoms: P_22  and  O_26
REMARK                            x       y       z     vdW  Elec       q    Type
REMARK                         _______ _______ _______ _____ _____    ______ ____
ROOT
ATOM      1  O   UNL     1      31.611 -22.690 -15.187  0.00  0.00    -0.333 OA
ATOM      2  C   UNL     1      31.794 -24.585 -13.752  0.00  0.00    +0.187 C 
ATOM      3  C   UNL     1      32.496 -23.316 -14.232  0.00  0.00    +0.224 C 
ATOM      4  C   UNL     1      30.352 -24.118 -13.782  0.00  0.00    +0.171 C 
ATOM      5  C   UNL     1      30.317 -23.313 -15.074  0.00  0.00    +0.176 C 
ENDROOT
BRANCH   3   6
ATOM      6  N   UNL     1      33.822 -23.506 -14.808  0.00  0.00    -0.262 N 
ATOM      7  N   UNL     1      35.438 -23.534 -16.344  0.00  0.00    -0.247 NA
ATOM      8  C   UNL     1      34.950 -23.945 -14.156  0.00  0.00    +0.064 C 
ATOM      9  C   UNL     1      34.170 -23.274 -16.114  0.00  0.00    +0.222 C 
ATOM     10  C   UNL     1      35.941 -23.954 -15.134  0.00  0.00    +0.090 C 
ATOM     11  C   UNL     1      35.176 -24.325 -12.833  0.00  0.00    -0.006 C 
ATOM     12  C   UNL     1      37.240 -24.362 -14.789  0.00  0.00    +0.012 C 
ATOM     13  C   UNL     1      37.491 -24.748 -13.466  0.00  0.00    -0.038 C 
ATOM     14  C   UNL     1      36.476 -24.729 -12.506  0.00  0.00    +0.049 C 
ATOM     15  C   UNL     1      38.864 -25.185 -13.077  0.00  0.00    +0.027 C 
ENDBRANCH   3   6
BRANCH   2  16
ATOM     16  O   UNL     1      31.981 -25.647 -14.683  0.00  0.00    -0.378 OA
ATOM     17  H   UNL     1      32.575 -26.312 -14.301  0.00  0.00    +0.211 HD
ENDBRANCH   2  16
BRANCH   4  18
ATOM     18  O   UNL     1      29.421 -25.178 -13.794  0.00  0.00    -0.379 OA
ATOM     19  H   UNL     1      28.892 -25.153 -12.981  0.00  0.00    +0.211 HD
ENDBRANCH   4  18
BRANCH   5  20
ATOM     20  C   UNL     1      29.235 -22.248 -15.089  0.00  0.00    +0.186 C 
BRANCH  20  21
ATOM     21  O   UNL     1      28.867 -21.988 -16.434  0.00  0.00    -0.271 OA
BRANCH  21  22
ATOM     22  P   UNL     1      27.408 -22.469 -16.941  0.00  0.00    +0.473 P 
ATOM     23  O   UNL     1      27.395 -23.760 -17.705  0.00  0.00    -0.227 OA
BRANCH  22  24
ATOM     24  O   UNL     1      26.837 -21.185 -17.743  0.00  0.00    -0.303 OA
ATOM     25  H   UNL     1      25.869 -21.236 -17.787  0.00  0.00    +0.222 HD
ENDBRANCH  22  24
BRANCH  22  26
ATOM     26  O   UNL     1      26.536 -22.473 -15.579  0.00  0.00    -0.303 OA
ATOM     27  H   UNL     1      26.718 -21.664 -15.076  0.00  0.00    +0.222 HD
ENDBRANCH  22  26
ENDBRANCH  21  22
ENDBRANCH  20  21
ENDBRANCH   5  20
TORSDOF 8
ENDMDL
MODEL 6
REMARK VINA RESULT:      -8.7      2.656      4.396
REMARK  Name = 446491
REMARK  8 active torsions:
REMARK  status: ('A' for Active; 'I' for Inactive)
REMARK    1  A    between atoms: C_2  and  O_16
REMARK    2  A    between atoms: C_3  and  N_6
REMARK    3  A    between atoms: C_4  and  O_18
REMARK    4  A    between atoms: C_5  and  C_20
REMARK    5  A    between atoms: C_20  and  O_21
REMARK    6  A    between atoms: O_21  and  P_22
REMARK    7  A    between atoms: P_22  and  O_24
REMARK    8  A    between atoms: P_22  and  O_26
REMARK                            x       y       z     vdW  Elec       q    Type
REMARK                         _______ _______ _______ _____ _____    ______ ____
ROOT
ATOM      1  O   UNL     1      35.753 -22.944 -15.565  0.00  0.00    -0.333 OA
ATOM      2  C   UNL     1      33.685 -23.917 -14.885  0.00  0.00    +0.187 C 
ATOM      3  C   UNL     1      34.613 -23.672 -16.073  0.00  0.00    +0.224 C 
ATOM      4  C   UNL     1      34.709 -24.097 -13.781  0.00  0.00    +0.171 C 
ATOM      5  C   UNL     1      35.726 -23.015 -14.127  0.00  0.00    +0.176 C 
ENDROOT
BRANCH   3   6
ATOM      6  N   UNL     1      34.019 -22.971 -17.205  0.00  0.00    -0.262 N 
ATOM      7  N   UNL     1      32.446 -22.240 -18.607  0.00  0.00    -0.247 NA
ATOM      8  C   UNL     1      34.676 -22.203 -18.138  0.00  0.00    +0.064 C 
ATOM      9  C   UNL     1      32.687 -22.958 -17.532  0.00  0.00    +0.222 C 
ATOM     10  C   UNL     1      33.676 -21.761 -18.998  0.00  0.00    +0.090 C 
ATOM     11  C   UNL     1      36.023 -21.873 -18.294  0.00  0.00    -0.006 C 
ATOM     12  C   UNL     1      34.020 -20.938 -20.084  0.00  0.00    +0.012 C 
ATOM     13  C   UNL     1      35.366 -20.593 -20.261  0.00  0.00    -0.038 C 
ATOM     14  C   UNL     1      36.348 -21.053 -19.381  0.00  0.00    +0.049 C 
ATOM     15  C   UNL     1      35.755 -19.720 -21.408  0.00  0.00    +0.027 C 
ENDBRANCH   3   6
BRANCH   2  16
ATOM     16  O   UNL     1      32.886 -22.767 -14.624  0.00  0.00    -0.378 OA
ATOM     17  H   UNL     1      32.546 -22.413 -15.461  0.00  0.00    +0.211 HD
ENDBRANCH   2  16
BRANCH   4  18
ATOM     18  O   UNL     1      34.174 -23.925 -12.487  0.00  0.00    -0.379 OA
ATOM     19  H   UNL     1      33.549 -23.184 -12.492  0.00  0.00    +0.211 HD
ENDBRANCH   4  18
BRANCH   5  20
ATOM     20  C   UNL     1      37.120 -23.312 -13.604  0.00  0.00    +0.186 C 
BRANCH  20  21
ATOM     21  O   UNL     1      37.496 -24.615 -14.020  0.00  0.00    -0.271 OA
BRANCH  21  22
ATOM     22  P   UNL     1      38.105 -25.630 -12.916  0.00  0.00    +0.473 P 
ATOM     23  O   UNL     1      39.446 -26.210 -13.259  0.00  0.00    -0.227 OA
BRANCH  22  24
ATOM     24  O   UNL     1      36.922 -26.710 -12.692  0.00  0.00    -0.303 OA
ATOM     25  H   UNL     1      36.360 -26.425 -11.953  0.00  0.00    +0.222 HD
ENDBRANCH  22  24
BRANCH  22  26
ATOM     26  O   UNL     1      38.068 -24.752 -11.559  0.00  0.00    -0.303 OA
ATOM     27  H   UNL     1      37.984 -23.812 -11.784  0.00  0.00    +0.222 HD
ENDBRANCH  22  26
ENDBRANCH  21  22
ENDBRANCH  20  21
ENDBRANCH   5  20
TORSDOF 8
ENDMDL
MODEL 7
REMARK VINA RESULT:      -8.5      4.516      8.093
REMARK  Name = 446491
REMARK  8 active torsions:
REMARK  status: ('A' for Active; 'I' for Inactive)
REMARK    1  A    between atoms: C_2  and  O_16
REMARK    2  A    between atoms: C_3  and  N_6
REMARK    3  A    between atoms: C_4  and  O_18
REMARK    4  A    between atoms: C_5  and  C_20
REMARK    5  A    between atoms: C_20  and  O_21
REMARK    6  A    between atoms: O_21  and  P_22
REMARK    7  A    between atoms: P_22  and  O_24
REMARK    8  A    between atoms: P_22  and  O_26
REMARK                            x       y       z     vdW  Elec       q    Type
REMARK                         _______ _______ _______ _____ _____    ______ ____
ROOT
ATOM      1  O   UNL     1      32.543 -23.859 -13.581  0.00  0.00    -0.333 OA
ATOM      2  C   UNL     1      33.732 -23.908 -15.646  0.00  0.00    +0.187 C 
ATOM      3  C   UNL     1      33.651 -24.507 -14.244  0.00  0.00    +0.224 C 
ATOM      4  C   UNL     1      32.259 -23.680 -15.923  0.00  0.00    +0.171 C 
ATOM      5  C   UNL     1      31.771 -23.161 -14.577  0.00  0.00    +0.176 C 
ENDROOT
BRANCH   3   6
ATOM      6  N   UNL     1      34.863 -24.400 -13.439  0.00  0.00    -0.262 N 
ATOM      7  N   UNL     1      36.177 -23.872 -11.717  0.00  0.00    -0.247 NA
ATOM      8  C   UNL     1      36.116 -24.858 -13.771  0.00  0.00    +0.064 C 
ATOM      9  C   UNL     1      34.956 -23.821 -12.200  0.00  0.00    +0.222 C 
ATOM     10  C   UNL     1      36.915 -24.517 -12.683  0.00  0.00    +0.090 C 
ATOM     11  C   UNL     1      36.601 -25.520 -14.900  0.00  0.00    -0.006 C 
ATOM     12  C   UNL     1      38.281 -24.848 -12.705  0.00  0.00    +0.012 C 
ATOM     13  C   UNL     1      38.789 -25.513 -13.828  0.00  0.00    -0.038 C 
ATOM     14  C   UNL     1      37.963 -25.842 -14.905  0.00  0.00    +0.049 C 
ATOM     15  C   UNL     1      40.237 -25.875 -13.873  0.00  0.00    +0.027 C 
ENDBRANCH   3   6
BRANCH   2  16
ATOM     16  O   UNL     1      34.421 -22.660 -15.622  0.00  0.00    -0.378 OA
ATOM     17  H   UNL     1      33.820 -21.965 -15.310  0.00  0.00    +0.211 HD
ENDBRANCH   2  16
BRANCH   4  18
ATOM     18  O   UNL     1      32.022 -22.756 -16.963  0.00  0.00    -0.379 OA
ATOM     19  H   UNL     1      32.125 -23.201 -17.819  0.00  0.00    +0.211 HD
ENDBRANCH   4  18
BRANCH   5  20
ATOM     20  C   UNL     1      30.291 -23.406 -14.340  0.00  0.00    +0.186 C 
BRANCH  20  21
ATOM     21  O   UNL     1      29.737 -24.014 -15.497  0.00  0.00    -0.271 OA
BRANCH  21  22
ATOM     22  P   UNL     1      28.476 -23.297 -16.214  0.00  0.00    +0.473 P 
ATOM     23  O   UNL     1      27.439 -22.753 -15.276  0.00  0.00    -0.227 OA
BRANCH  22  24
ATOM     24  O   UNL     1      27.945 -24.410 -17.261  0.00  0.00    -0.303 OA
ATOM     25  H   UNL     1      27.473 -23.973 -17.987  0.00  0.00    +0.222 HD
ENDBRANCH  22  24
BRANCH  22  26
ATOM     26  O   UNL     1      29.180 -22.197 -17.167  0.00  0.00    -0.303 OA
ATOM     27  H   UNL     1      28.511 -21.790 -17.740  0.00  0.00    +0.222 HD
ENDBRANCH  22  26
ENDBRANCH  21  22
ENDBRANCH  20  21
ENDBRANCH   5  20
TORSDOF 8
ENDMDL
MODEL 8
REMARK VINA RESULT:      -8.5      9.064     10.670
REMARK  Name = 446491
REMARK  8 active torsions:
REMARK  status: ('A' for Active; 'I' for Inactive)
REMARK    1  A    between atoms: C_2  and  O_16
REMARK    2  A    between atoms: C_3  and  N_6
REMARK    3  A    between atoms: C_4  and  O_18
REMARK    4  A    between atoms: C_5  and  C_20
REMARK    5  A    between atoms: C_20  and  O_21
REMARK    6  A    between atoms: O_21  and  P_22
REMARK    7  A    between atoms: P_22  and  O_24
REMARK    8  A    between atoms: P_22  and  O_26
REMARK                            x       y       z     vdW  Elec       q    Type
REMARK                         _______ _______ _______ _____ _____    ______ ____
ROOT
ATOM      1  O   UNL     1      33.806 -18.893 -22.117  0.00  0.00    -0.333 OA
ATOM      2  C   UNL     1      35.926 -17.853 -21.788  0.00  0.00    +0.187 C 
ATOM      3  C   UNL     1      34.486 -17.625 -22.244  0.00  0.00    +0.224 C 
ATOM      4  C   UNL     1      35.699 -18.881 -20.697  0.00  0.00    +0.171 C 
ATOM      5  C   UNL     1      34.635 -19.769 -21.329  0.00  0.00    +0.176 C 
ENDROOT
BRANCH   3   6
ATOM      6  N   UNL     1      34.327 -17.090 -23.591  0.00  0.00    -0.262 N 
ATOM      7  N   UNL     1      34.202 -17.062 -25.818  0.00  0.00    -0.247 NA
ATOM      8  C   UNL     1      34.095 -15.779 -23.937  0.00  0.00    +0.064 C 
ATOM      9  C   UNL     1      34.381 -17.814 -24.755  0.00  0.00    +0.222 C 
ATOM     10  C   UNL     1      34.021 -15.789 -25.327  0.00  0.00    +0.090 C 
ATOM     11  C   UNL     1      33.949 -14.622 -23.170  0.00  0.00    -0.006 C 
ATOM     12  C   UNL     1      33.789 -14.583 -26.009  0.00  0.00    +0.012 C 
ATOM     13  C   UNL     1      33.639 -13.409 -25.260  0.00  0.00    -0.038 C 
ATOM     14  C   UNL     1      33.718 -13.430 -23.866  0.00  0.00    +0.049 C 
ATOM     15  C   UNL     1      33.392 -12.116 -25.964  0.00  0.00    +0.027 C 
ENDBRANCH   3   6
BRANCH   2  16
ATOM     16  O   UNL     1      36.703 -18.422 -22.838  0.00  0.00    -0.378 OA
ATOM     17  H   UNL     1      37.388 -17.791 -23.112  0.00  0.00    +0.211 HD
ENDBRANCH   2  16
BRANCH   4  18
ATOM     18  O   UNL     1      36.861 -19.606 -20.361  0.00  0.00    -0.379 OA
ATOM     19  H   UNL     1      36.690 -20.555 -20.461  0.00  0.00    +0.211 HD
ENDBRANCH   4  18
BRANCH   5  20
ATOM     20  C   UNL     1      33.780 -20.500 -20.310  0.00  0.00    +0.186 C 
BRANCH  20  21
ATOM     21  O   UNL     1      34.624 -21.288 -19.486  0.00  0.00    -0.271 OA
BRANCH  21  22
ATOM     22  P   UNL     1      34.025 -22.650 -18.849  0.00  0.00    +0.473 P 
ATOM     23  O   UNL     1      34.115 -23.858 -19.735  0.00  0.00    -0.227 OA
BRANCH  22  24
ATOM     24  O   UNL     1      32.529 -22.236 -18.394  0.00  0.00    -0.303 OA
ATOM     25  H   UNL     1      32.463 -21.270 -18.341  0.00  0.00    +0.222 HD
ENDBRANCH  22  24
BRANCH  22  26
ATOM     26  O   UNL     1      34.819 -22.772 -17.445  0.00  0.00    -0.303 OA
ATOM     27  H   UNL     1      34.210 -23.075 -16.754  0.00  0.00    +0.222 HD
ENDBRANCH  22  26
ENDBRANCH  21  22
ENDBRANCH  20  21
ENDBRANCH   5  20
TORSDOF 8
ENDMDL
MODEL 9
REMARK VINA RESULT:      -8.3      8.543     10.099
REMARK  Name = 446491
REMARK  8 active torsions:
REMARK  status: ('A' for Active; 'I' for Inactive)
REMARK    1  A    between atoms: C_2  and  O_16
REMARK    2  A    between atoms: C_3  and  N_6
REMARK    3  A    between atoms: C_4  and  O_18
REMARK    4  A    between atoms: C_5  and  C_20
REMARK    5  A    between atoms: C_20  and  O_21
REMARK    6  A    between atoms: O_21  and  P_22
REMARK    7  A    between atoms: P_22  and  O_24
REMARK    8  A    between atoms: P_22  and  O_26
REMARK                            x       y       z     vdW  Elec       q    Type
REMARK                         _______ _______ _______ _____ _____    ______ ____
ROOT
ATOM      1  O   UNL     1      33.432 -18.371 -21.321  0.00  0.00    -0.333 OA
ATOM      2  C   UNL     1      35.767 -17.896 -21.403  0.00  0.00    +0.187 C 
ATOM      3  C   UNL     1      34.377 -17.282 -21.243  0.00  0.00    +0.224 C 
ATOM      4  C   UNL     1      35.551 -19.224 -20.704  0.00  0.00    +0.171 C 
ATOM      5  C   UNL     1      34.161 -19.607 -21.195  0.00  0.00    +0.176 C 
ENDROOT
BRANCH   3   6
ATOM      6  N   UNL     1      34.035 -16.236 -22.200  0.00  0.00    -0.262 N 
ATOM      7  N   UNL     1      33.883 -15.173 -24.154  0.00  0.00    -0.247 NA
ATOM      8  C   UNL     1      33.376 -15.058 -21.935  0.00  0.00    +0.064 C 
ATOM      9  C   UNL     1      34.313 -16.254 -23.543  0.00  0.00    +0.222 C 
ATOM     10  C   UNL     1      33.295 -14.415 -23.167  0.00  0.00    +0.090 C 
ATOM     11  C   UNL     1      32.863 -14.520 -20.755  0.00  0.00    -0.006 C 
ATOM     12  C   UNL     1      32.668 -13.160 -23.245  0.00  0.00    +0.012 C 
ATOM     13  C   UNL     1      32.145 -12.601 -22.073  0.00  0.00    -0.038 C 
ATOM     14  C   UNL     1      32.241 -13.270 -20.850  0.00  0.00    +0.049 C 
ATOM     15  C   UNL     1      31.474 -11.268 -22.131  0.00  0.00    +0.027 C 
ENDBRANCH   3   6
BRANCH   2  16
ATOM     16  O   UNL     1      36.067 -18.114 -22.779  0.00  0.00    -0.378 OA
ATOM     17  H   UNL     1      36.381 -19.023 -22.901  0.00  0.00    +0.211 HD
ENDBRANCH   2  16
BRANCH   4  18
ATOM     18  O   UNL     1      36.517 -20.196 -21.040  0.00  0.00    -0.379 OA
ATOM     19  H   UNL     1      36.540 -20.311 -22.003  0.00  0.00    +0.211 HD
ENDBRANCH   4  18
BRANCH   5  20
ATOM     20  C   UNL     1      33.426 -20.540 -20.249  0.00  0.00    +0.186 C 
BRANCH  20  21
ATOM     21  O   UNL     1      34.377 -21.341 -19.566  0.00  0.00    -0.271 OA
BRANCH  21  22
ATOM     22  P   UNL     1      33.843 -22.594 -18.693  0.00  0.00    +0.473 P 
ATOM     23  O   UNL     1      32.436 -22.462 -18.187  0.00  0.00    -0.227 OA
BRANCH  22  24
ATOM     24  O   UNL     1      34.973 -22.777 -17.550  0.00  0.00    -0.303 OA
ATOM     25  H   UNL     1      35.129 -23.722 -17.397  0.00  0.00    +0.222 HD
ENDBRANCH  22  24
BRANCH  22  26
ATOM     26  O   UNL     1      34.100 -23.853 -19.674  0.00  0.00    -0.303 OA
ATOM     27  H   UNL     1      33.273 -24.345 -19.793  0.00  0.00    +0.222 HD
ENDBRANCH  22  26
ENDBRANCH  21  22
ENDBRANCH  20  21
ENDBRANCH   5  20
TORSDOF 8
ENDMDL
