MODEL 1
REMARK VINA RESULT:     -10.7      0.000      0.000
REMARK  Name = 9926933
REMARK  4 active torsions:
REMARK  status: ('A' for Active; 'I' for Inactive)
REMARK    1  A    between atoms: N_2  and  C_15
REMARK    2  A    between atoms: C_3  and  C_9
REMARK    3  A    between atoms: C_16  and  S_21
REMARK    4  A    between atoms: S_21  and  N_24
REMARK                            x       y       z     vdW  Elec       q    Type
REMARK                         _______ _______ _______ _____ _____    ______ ____
ROOT
ATOM      1  O   UNL     1      34.954 -16.195 -20.110  0.00  0.00    -0.268 OA
ATOM      2  N   UNL     1      34.019 -17.672 -21.675  0.00  0.00    -0.279 N 
ATOM      3  C   UNL     1      34.456 -16.405 -21.237  0.00  0.00    +0.269 C 
ATOM      4  H   UNL     1      33.646 -17.699 -22.586  0.00  0.00    +0.155 HD
ENDROOT
BRANCH   3   9
ATOM      5  N   UNL     1      34.561 -14.168 -23.893  0.00  0.00    -0.276 N 
ATOM      6  N   UNL     1      34.964 -15.306 -23.302  0.00  0.00    -0.168 NA
ATOM      7  C   UNL     1      33.446 -14.187 -22.006  0.00  0.00    +0.041 A 
ATOM      8  C   UNL     1      33.651 -13.450 -23.167  0.00  0.00    +0.075 A 
ATOM      9  C   UNL     1      34.282 -15.313 -22.154  0.00  0.00    +0.155 A 
ATOM     10  C   UNL     1      32.548 -13.708 -21.037  0.00  0.00    +0.003 C 
ATOM     11  C   UNL     1      33.001 -12.241 -23.427  0.00  0.00    +0.019 C 
ATOM     12  C   UNL     1      31.887 -12.497 -21.278  0.00  0.00    +0.000 C 
ATOM     13  C   UNL     1      32.112 -11.777 -22.452  0.00  0.00    +0.002 C 
ATOM     14  H   UNL     1      34.893 -13.877 -24.773  0.00  0.00    +0.189 HD
ENDBRANCH   3   9
BRANCH   2  15
ATOM     15  C   UNL     1      34.040 -18.912 -20.990  0.00  0.00    +0.051 C 
ATOM     16  C   UNL     1      34.080 -21.334 -19.650  0.00  0.00    +0.122 C 
ATOM     17  C   UNL     1      32.848 -19.459 -20.549  0.00  0.00    +0.016 C 
ATOM     18  C   UNL     1      35.251 -19.545 -20.777  0.00  0.00    +0.016 C 
ATOM     19  C   UNL     1      32.869 -20.680 -19.874  0.00  0.00    +0.021 C 
ATOM     20  C   UNL     1      35.271 -20.767 -20.102  0.00  0.00    +0.021 C 
BRANCH  16  21
ATOM     21  S   UNL     1      34.106 -22.860 -18.805  0.00  0.00    +0.057 S 
ATOM     22  O   UNL     1      34.080 -23.933 -19.789  0.00  0.00    -0.153 OA
ATOM     23  O   UNL     1      35.167 -22.819 -17.807  0.00  0.00    -0.153 OA
BRANCH  21  24
ATOM     24  N   UNL     1      32.598 -22.813 -18.001  0.00  0.00    -0.203 NA
ATOM     25  H   UNL     1      32.180 -23.743 -18.010  0.00  0.00    +0.144 HD
ATOM     26  H   UNL     1      31.979 -22.157 -18.478  0.00  0.00    +0.144 HD
ENDBRANCH  21  24
ENDBRANCH  16  21
ENDBRANCH   2  15
TORSDOF 4
ENDMDL
MODEL 2
REMARK VINA RESULT:     -10.7      0.009      1.030
REMARK  Name = 9926933
REMARK  4 active torsions:
REMARK  status: ('A' for Active; 'I' for Inactive)
REMARK    1  A    between atoms: N_2  and  C_15
REMARK    2  A    between atoms: C_3  and  C_9
REMARK    3  A    between atoms: C_16  and  S_21
REMARK    4  A    between atoms: S_21  and  N_24
REMARK                            x       y       z     vdW  Elec       q    Type
REMARK                         _______ _______ _______ _____ _____    ______ ____
ROOT
ATOM      1  O   UNL     1      34.951 -16.190 -20.116  0.00  0.00    -0.268 OA
ATOM      2  N   UNL     1      34.018 -17.669 -21.679  0.00  0.00    -0.279 N 
ATOM      3  C   UNL     1      34.454 -16.401 -21.243  0.00  0.00    +0.269 C 
ATOM      4  H   UNL     1      33.646 -17.697 -22.590  0.00  0.00    +0.155 HD
ENDROOT
BRANCH   3   9
ATOM      5  N   UNL     1      34.563 -14.169 -23.903  0.00  0.00    -0.276 N 
ATOM      6  N   UNL     1      34.964 -15.306 -23.309  0.00  0.00    -0.168 NA
ATOM      7  C   UNL     1      33.445 -14.184 -22.017  0.00  0.00    +0.041 A 
ATOM      8  C   UNL     1      33.652 -13.450 -23.179  0.00  0.00    +0.075 A 
ATOM      9  C   UNL     1      34.282 -15.311 -22.162  0.00  0.00    +0.155 A 
ATOM     10  C   UNL     1      32.547 -13.703 -21.050  0.00  0.00    +0.003 C 
ATOM     11  C   UNL     1      33.003 -12.241 -23.441  0.00  0.00    +0.019 C 
ATOM     12  C   UNL     1      31.887 -12.493 -21.293  0.00  0.00    +0.000 C 
ATOM     13  C   UNL     1      32.113 -11.775 -22.468  0.00  0.00    +0.002 C 
ATOM     14  H   UNL     1      34.895 -13.879 -24.783  0.00  0.00    +0.189 HD
ENDBRANCH   3   9
BRANCH   2  15
ATOM     15  C   UNL     1      34.038 -18.907 -20.992  0.00  0.00    +0.051 C 
ATOM     16  C   UNL     1      34.077 -21.328 -19.650  0.00  0.00    +0.122 C 
ATOM     17  C   UNL     1      35.249 -19.541 -20.778  0.00  0.00    +0.016 C 
ATOM     18  C   UNL     1      32.846 -19.455 -20.552  0.00  0.00    +0.016 C 
ATOM     19  C   UNL     1      35.269 -20.761 -20.101  0.00  0.00    +0.021 C 
ATOM     20  C   UNL     1      32.866 -20.675 -19.875  0.00  0.00    +0.021 C 
BRANCH  16  21
ATOM     21  S   UNL     1      34.102 -22.855 -18.805  0.00  0.00    +0.057 S 
ATOM     22  O   UNL     1      34.074 -23.927 -19.790  0.00  0.00    -0.153 OA
ATOM     23  O   UNL     1      35.162 -22.816 -17.808  0.00  0.00    -0.153 OA
BRANCH  21  24
ATOM     24  N   UNL     1      32.594 -22.807 -18.002  0.00  0.00    -0.203 NA
ATOM     25  H   UNL     1      31.847 -22.998 -18.669  0.00  0.00    +0.144 HD
ATOM     26  H   UNL     1      32.456 -21.883 -17.592  0.00  0.00    +0.144 HD
ENDBRANCH  21  24
ENDBRANCH  16  21
ENDBRANCH   2  15
TORSDOF 4
ENDMDL
MODEL 3
REMARK VINA RESULT:     -10.6      4.794      7.321
REMARK  Name = 9926933
REMARK  4 active torsions:
REMARK  status: ('A' for Active; 'I' for Inactive)
REMARK    1  A    between atoms: N_2  and  C_15
REMARK    2  A    between atoms: C_3  and  C_9
REMARK    3  A    between atoms: C_16  and  S_21
REMARK    4  A    between atoms: S_21  and  N_24
REMARK                            x       y       z     vdW  Elec       q    Type
REMARK                         _______ _______ _______ _____ _____    ______ ____
ROOT
ATOM      1  O   UNL     1      33.811 -23.847 -18.531  0.00  0.00    -0.268 OA
ATOM      2  N   UNL     1      35.080 -22.307 -17.296  0.00  0.00    -0.279 N 
ATOM      3  C   UNL     1      34.254 -22.689 -18.374  0.00  0.00    +0.269 C 
ATOM      4  H   UNL     1      35.359 -21.364 -17.292  0.00  0.00    +0.155 HD
ENDROOT
BRANCH   3   9
ATOM      5  N   UNL     1      32.762 -20.482 -20.603  0.00  0.00    -0.276 N 
ATOM      6  N   UNL     1      32.679 -21.490 -19.719  0.00  0.00    -0.168 NA
ATOM      7  C   UNL     1      34.841 -20.784 -19.974  0.00  0.00    +0.041 A 
ATOM      8  C   UNL     1      34.032 -20.013 -20.802  0.00  0.00    +0.075 A 
ATOM      9  C   UNL     1      33.946 -21.670 -19.339  0.00  0.00    +0.155 A 
ATOM     10  C   UNL     1      36.225 -20.544 -19.947  0.00  0.00    +0.003 C 
ATOM     11  C   UNL     1      34.530 -18.996 -21.620  0.00  0.00    +0.019 C 
ATOM     12  C   UNL     1      36.744 -19.530 -20.760  0.00  0.00    +0.000 C 
ATOM     13  C   UNL     1      35.911 -18.771 -21.583  0.00  0.00    +0.002 C 
ATOM     14  H   UNL     1      31.977 -20.112 -21.069  0.00  0.00    +0.189 HD
ENDBRANCH   3   9
BRANCH   2  15
ATOM     15  C   UNL     1      35.565 -23.090 -16.220  0.00  0.00    +0.051 C 
ATOM     16  C   UNL     1      36.512 -24.621 -14.117  0.00  0.00    +0.122 C 
ATOM     17  C   UNL     1      36.910 -23.041 -15.901  0.00  0.00    +0.016 C 
ATOM     18  C   UNL     1      34.682 -23.887 -15.512  0.00  0.00    +0.016 C 
ATOM     19  C   UNL     1      37.387 -23.812 -14.841  0.00  0.00    +0.021 C 
ATOM     20  C   UNL     1      35.159 -24.658 -14.452  0.00  0.00    +0.021 C 
BRANCH  16  21
ATOM     21  S   UNL     1      37.109 -25.587 -12.792  0.00  0.00    +0.057 S 
ATOM     22  O   UNL     1      38.530 -25.315 -12.627  0.00  0.00    -0.153 OA
ATOM     23  O   UNL     1      36.207 -25.429 -11.660  0.00  0.00    -0.153 OA
BRANCH  21  24
ATOM     24  N   UNL     1      36.921 -27.163 -13.426  0.00  0.00    -0.203 NA
ATOM     25  H   UNL     1      35.951 -27.460 -13.315  0.00  0.00    +0.144 HD
ATOM     26  H   UNL     1      37.533 -27.807 -12.926  0.00  0.00    +0.144 HD
ENDBRANCH  21  24
ENDBRANCH  16  21
ENDBRANCH   2  15
TORSDOF 4
ENDMDL
MODEL 4
REMARK VINA RESULT:     -10.2      1.790      2.308
REMARK  Name = 9926933
REMARK  4 active torsions:
REMARK  status: ('A' for Active; 'I' for Inactive)
REMARK    1  A    between atoms: N_2  and  C_15
REMARK    2  A    between atoms: C_3  and  C_9
REMARK    3  A    between atoms: C_16  and  S_21
REMARK    4  A    between atoms: S_21  and  N_24
REMARK                            x       y       z     vdW  Elec       q    Type
REMARK                         _______ _______ _______ _____ _____    ______ ____
ROOT
ATOM      1  O   UNL     1      35.310 -17.825 -23.556  0.00  0.00    -0.268 OA
ATOM      2  N   UNL     1      34.007 -17.478 -21.635  0.00  0.00    -0.279 N 
ATOM      3  C   UNL     1      34.613 -17.071 -22.842  0.00  0.00    +0.269 C 
ATOM      4  H   UNL     1      33.485 -16.785 -21.171  0.00  0.00    +0.155 HD
ENDROOT
BRANCH   3   9
ATOM      5  N   UNL     1      34.438 -13.608 -23.058  0.00  0.00    -0.276 N 
ATOM      6  N   UNL     1      34.745 -14.727 -22.379  0.00  0.00    -0.168 NA
ATOM      7  C   UNL     1      33.903 -15.215 -24.450  0.00  0.00    +0.041 A 
ATOM      8  C   UNL     1      33.928 -13.833 -24.308  0.00  0.00    +0.075 A 
ATOM      9  C   UNL     1      34.418 -15.702 -23.229  0.00  0.00    +0.155 A 
ATOM     10  C   UNL     1      33.424 -15.775 -25.646  0.00  0.00    +0.003 C 
ATOM     11  C   UNL     1      33.496 -12.956 -25.306  0.00  0.00    +0.019 C 
ATOM     12  C   UNL     1      32.986 -14.914 -26.659  0.00  0.00    +0.000 C 
ATOM     13  C   UNL     1      33.021 -13.529 -26.490  0.00  0.00    +0.002 C 
ATOM     14  H   UNL     1      34.569 -12.705 -22.688  0.00  0.00    +0.189 HD
ENDBRANCH   3   9
BRANCH   2  15
ATOM     15  C   UNL     1      34.045 -18.742 -20.997  0.00  0.00    +0.051 C 
ATOM     16  C   UNL     1      34.117 -21.211 -19.749  0.00  0.00    +0.122 C 
ATOM     17  C   UNL     1      32.857 -19.340 -20.615  0.00  0.00    +0.016 C 
ATOM     18  C   UNL     1      35.267 -19.348 -20.769  0.00  0.00    +0.016 C 
ATOM     19  C   UNL     1      32.894 -20.585 -19.987  0.00  0.00    +0.021 C 
ATOM     20  C   UNL     1      35.304 -20.593 -20.140  0.00  0.00    +0.021 C 
BRANCH  16  21
ATOM     21  S   UNL     1      34.163 -22.768 -18.960  0.00  0.00    +0.057 S 
ATOM     22  O   UNL     1      34.119 -23.803 -19.983  0.00  0.00    -0.153 OA
ATOM     23  O   UNL     1      35.243 -22.761 -17.984  0.00  0.00    -0.153 OA
BRANCH  21  24
ATOM     24  N   UNL     1      32.671 -22.754 -18.125  0.00  0.00    -0.203 NA
ATOM     25  H   UNL     1      31.966 -22.290 -18.698  0.00  0.00    +0.144 HD
ATOM     26  H   UNL     1      32.779 -22.252 -17.245  0.00  0.00    +0.144 HD
ENDBRANCH  21  24
ENDBRANCH  16  21
ENDBRANCH   2  15
TORSDOF 4
ENDMDL
MODEL 5
REMARK VINA RESULT:      -9.8      5.748      9.377
REMARK  Name = 9926933
REMARK  4 active torsions:
REMARK  status: ('A' for Active; 'I' for Inactive)
REMARK    1  A    between atoms: N_2  and  C_15
REMARK    2  A    between atoms: C_3  and  C_9
REMARK    3  A    between atoms: C_16  and  S_21
REMARK    4  A    between atoms: S_21  and  N_24
REMARK                            x       y       z     vdW  Elec       q    Type
REMARK                         _______ _______ _______ _____ _____    ______ ____
ROOT
ATOM      1  O   UNL     1      32.604 -14.241 -25.625  0.00  0.00    -0.268 OA
ATOM      2  N   UNL     1      33.735 -13.609 -23.670  0.00  0.00    -0.279 N 
ATOM      3  C   UNL     1      33.396 -14.512 -24.698  0.00  0.00    +0.269 C 
ATOM      4  H   UNL     1      34.372 -13.949 -23.001  0.00  0.00    +0.155 HD
ENDROOT
BRANCH   3   9
ATOM      5  N   UNL     1      34.740 -17.655 -25.322  0.00  0.00    -0.276 N 
ATOM      6  N   UNL     1      34.166 -16.518 -25.752  0.00  0.00    -0.168 NA
ATOM      7  C   UNL     1      34.455 -16.496 -23.482  0.00  0.00    +0.041 A 
ATOM      8  C   UNL     1      34.940 -17.705 -23.969  0.00  0.00    +0.075 A 
ATOM      9  C   UNL     1      33.995 -15.816 -24.630  0.00  0.00    +0.155 A 
ATOM     10  C   UNL     1      34.518 -16.235 -22.103  0.00  0.00    +0.003 C 
ATOM     11  C   UNL     1      35.496 -18.688 -23.148  0.00  0.00    +0.019 C 
ATOM     12  C   UNL     1      35.072 -17.208 -21.263  0.00  0.00    +0.000 C 
ATOM     13  C   UNL     1      35.551 -18.414 -21.778  0.00  0.00    +0.002 C 
ATOM     14  H   UNL     1      34.994 -18.388 -25.928  0.00  0.00    +0.189 HD
ENDBRANCH   3   9
BRANCH   2  15
ATOM     15  C   UNL     1      33.289 -12.280 -23.463  0.00  0.00    +0.051 C 
ATOM     16  C   UNL     1      32.418  -9.684 -23.059  0.00  0.00    +0.122 C 
ATOM     17  C   UNL     1      33.895 -11.249 -24.158  0.00  0.00    +0.016 C 
ATOM     18  C   UNL     1      32.258 -12.045 -22.571  0.00  0.00    +0.016 C 
ATOM     19  C   UNL     1      33.456  -9.940 -23.954  0.00  0.00    +0.021 C 
ATOM     20  C   UNL     1      31.819 -10.736 -22.367  0.00  0.00    +0.021 C 
BRANCH  16  21
ATOM     21  S   UNL     1      31.869  -8.047 -22.803  0.00  0.00    +0.057 S 
ATOM     22  O   UNL     1      30.687  -7.824 -23.623  0.00  0.00    -0.153 OA
ATOM     23  O   UNL     1      31.814  -7.796 -21.369  0.00  0.00    -0.153 OA
BRANCH  21  24
ATOM     24  N   UNL     1      33.173  -7.160 -23.463  0.00  0.00    -0.203 NA
ATOM     25  H   UNL     1      33.196  -6.230 -23.045  0.00  0.00    +0.144 HD
ATOM     26  H   UNL     1      33.050  -7.076 -24.472  0.00  0.00    +0.144 HD
ENDBRANCH  21  24
ENDBRANCH  16  21
ENDBRANCH   2  15
TORSDOF 4
ENDMDL
MODEL 6
REMARK VINA RESULT:      -9.7      2.742      3.547
REMARK  Name = 9926933
REMARK  4 active torsions:
REMARK  status: ('A' for Active; 'I' for Inactive)
REMARK    1  A    between atoms: N_2  and  C_15
REMARK    2  A    between atoms: C_3  and  C_9
REMARK    3  A    between atoms: C_16  and  S_21
REMARK    4  A    between atoms: S_21  and  N_24
REMARK                            x       y       z     vdW  Elec       q    Type
REMARK                         _______ _______ _______ _____ _____    ______ ____
ROOT
ATOM      1  O   UNL     1      35.738 -18.129 -20.595  0.00  0.00    -0.268 OA
ATOM      2  N   UNL     1      35.000 -20.291 -21.129  0.00  0.00    -0.279 N 
ATOM      3  C   UNL     1      35.269 -18.938 -21.424  0.00  0.00    +0.269 C 
ATOM      4  H   UNL     1      34.632 -20.821 -21.872  0.00  0.00    +0.155 HD
ENDROOT
BRANCH   3   9
ATOM      5  N   UNL     1      34.626 -18.631 -24.824  0.00  0.00    -0.276 N 
ATOM      6  N   UNL     1      34.965 -19.375 -23.757  0.00  0.00    -0.168 NA
ATOM      7  C   UNL     1      34.607 -17.192 -23.169  0.00  0.00    +0.041 A 
ATOM      8  C   UNL     1      34.398 -17.312 -24.538  0.00  0.00    +0.075 A 
ATOM      9  C   UNL     1      34.952 -18.496 -22.753  0.00  0.00    +0.155 A 
ATOM     10  C   UNL     1      34.448 -15.938 -22.556  0.00  0.00    +0.003 C 
ATOM     11  C   UNL     1      34.033 -16.235 -25.350  0.00  0.00    +0.019 C 
ATOM     12  C   UNL     1      34.083 -14.846 -23.351  0.00  0.00    +0.000 C 
ATOM     13  C   UNL     1      33.880 -14.993 -24.724  0.00  0.00    +0.002 C 
ATOM     14  H   UNL     1      34.548 -19.002 -25.732  0.00  0.00    +0.189 HD
ENDBRANCH   3   9
BRANCH   2  15
ATOM     15  C   UNL     1      35.185 -20.995 -19.913  0.00  0.00    +0.051 C 
ATOM     16  C   UNL     1      35.545 -22.370 -17.538  0.00  0.00    +0.122 C 
ATOM     17  C   UNL     1      34.121 -21.692 -19.369  0.00  0.00    +0.016 C 
ATOM     18  C   UNL     1      36.424 -20.968 -19.299  0.00  0.00    +0.016 C 
ATOM     19  C   UNL     1      34.303 -22.386 -18.172  0.00  0.00    +0.021 C 
ATOM     20  C   UNL     1      36.606 -21.662 -18.102  0.00  0.00    +0.021 C 
BRANCH  16  21
ATOM     21  S   UNL     1      35.772 -23.236 -16.040  0.00  0.00    +0.057 S 
ATOM     22  O   UNL     1      35.418 -22.352 -14.939  0.00  0.00    -0.153 OA
ATOM     23  O   UNL     1      35.132 -24.539 -16.156  0.00  0.00    -0.153 OA
BRANCH  21  24
ATOM     24  N   UNL     1      37.468 -23.457 -16.045  0.00  0.00    -0.203 NA
ATOM     25  H   UNL     1      37.875 -22.978 -15.242  0.00  0.00    +0.144 HD
ATOM     26  H   UNL     1      37.858 -23.072 -16.905  0.00  0.00    +0.144 HD
ENDBRANCH  21  24
ENDBRANCH  16  21
ENDBRANCH   2  15
TORSDOF 4
ENDMDL
MODEL 7
REMARK VINA RESULT:      -9.3      5.165      9.399
REMARK  Name = 9926933
REMARK  4 active torsions:
REMARK  status: ('A' for Active; 'I' for Inactive)
REMARK    1  A    between atoms: N_2  and  C_15
REMARK    2  A    between atoms: C_3  and  C_9
REMARK    3  A    between atoms: C_16  and  S_21
REMARK    4  A    between atoms: S_21  and  N_24
REMARK                            x       y       z     vdW  Elec       q    Type
REMARK                         _______ _______ _______ _____ _____    ______ ____
ROOT
ATOM      1  O   UNL     1      34.607 -14.175 -21.824  0.00  0.00    -0.268 OA
ATOM      2  N   UNL     1      33.396 -13.525 -23.726  0.00  0.00    -0.279 N 
ATOM      3  C   UNL     1      34.127 -14.445 -22.946  0.00  0.00    +0.269 C 
ATOM      4  H   UNL     1      33.073 -13.867 -24.590  0.00  0.00    +0.155 HD
ENDROOT
BRANCH   3   9
ATOM      5  N   UNL     1      34.531 -17.211 -25.009  0.00  0.00    -0.276 N 
ATOM      6  N   UNL     1      34.307 -15.897 -24.840  0.00  0.00    -0.168 NA
ATOM      7  C   UNL     1      34.569 -16.960 -22.831  0.00  0.00    +0.041 A 
ATOM      8  C   UNL     1      34.697 -17.906 -23.842  0.00  0.00    +0.075 A 
ATOM      9  C   UNL     1      34.331 -15.748 -23.514  0.00  0.00    +0.155 A 
ATOM     10  C   UNL     1      34.692 -17.364 -21.491  0.00  0.00    +0.003 C 
ATOM     11  C   UNL     1      34.945 -19.258 -23.593  0.00  0.00    +0.019 C 
ATOM     12  C   UNL     1      34.939 -18.715 -21.220  0.00  0.00    +0.000 C 
ATOM     13  C   UNL     1      35.062 -19.644 -22.254  0.00  0.00    +0.002 C 
ATOM     14  H   UNL     1      34.573 -17.637 -25.896  0.00  0.00    +0.189 HD
ENDBRANCH   3   9
BRANCH   2  15
ATOM     15  C   UNL     1      33.061 -12.178 -23.441  0.00  0.00    +0.051 C 
ATOM     16  C   UNL     1      32.408  -9.547 -22.883  0.00  0.00    +0.122 C 
ATOM     17  C   UNL     1      33.739 -11.162 -24.091  0.00  0.00    +0.016 C 
ATOM     18  C   UNL     1      32.066 -11.910 -22.518  0.00  0.00    +0.016 C 
ATOM     19  C   UNL     1      33.409  -9.836 -23.810  0.00  0.00    +0.021 C 
ATOM     20  C   UNL     1      31.736 -10.584 -22.237  0.00  0.00    +0.021 C 
BRANCH  16  21
ATOM     21  S   UNL     1      31.997  -7.887 -22.530  0.00  0.00    +0.057 S 
ATOM     22  O   UNL     1      30.842  -7.518 -23.336  0.00  0.00    -0.153 OA
ATOM     23  O   UNL     1      31.954  -7.718 -21.085  0.00  0.00    -0.153 OA
BRANCH  21  24
ATOM     24  N   UNL     1      33.374  -7.075 -23.136  0.00  0.00    -0.203 NA
ATOM     25  H   UNL     1      33.080  -6.243 -23.647  0.00  0.00    +0.144 HD
ATOM     26  H   UNL     1      33.887  -7.696 -23.762  0.00  0.00    +0.144 HD
ENDBRANCH  21  24
ENDBRANCH  16  21
ENDBRANCH   2  15
TORSDOF 4
ENDMDL
MODEL 8
REMARK VINA RESULT:      -9.3      4.803     10.175
REMARK  Name = 9926933
REMARK  4 active torsions:
REMARK  status: ('A' for Active; 'I' for Inactive)
REMARK    1  A    between atoms: N_2  and  C_15
REMARK    2  A    between atoms: C_3  and  C_9
REMARK    3  A    between atoms: C_16  and  S_21
REMARK    4  A    between atoms: S_21  and  N_24
REMARK                            x       y       z     vdW  Elec       q    Type
REMARK                         _______ _______ _______ _____ _____    ______ ____
ROOT
ATOM      1  O   UNL     1      36.880 -21.535 -16.447  0.00  0.00    -0.268 OA
ATOM      2  N   UNL     1      35.291 -22.521 -17.863  0.00  0.00    -0.279 N 
ATOM      3  C   UNL     1      36.082 -22.464 -16.697  0.00  0.00    +0.269 C 
ATOM      4  H   UNL     1      34.703 -23.307 -17.937  0.00  0.00    +0.155 HD
ENDROOT
BRANCH   3   9
ATOM      5  N   UNL     1      34.997 -25.027 -14.618  0.00  0.00    -0.276 N 
ATOM      6  N   UNL     1      34.741 -24.027 -15.478  0.00  0.00    -0.168 NA
ATOM      7  C   UNL     1      36.989 -24.257 -15.118  0.00  0.00    +0.041 A 
ATOM      8  C   UNL     1      36.328 -25.217 -14.360  0.00  0.00    +0.075 A 
ATOM      9  C   UNL     1      35.955 -23.562 -15.780  0.00  0.00    +0.155 A 
ATOM     10  C   UNL     1      38.391 -24.190 -15.071  0.00  0.00    +0.003 C 
ATOM     11  C   UNL     1      36.994 -26.133 -13.541  0.00  0.00    +0.019 C 
ATOM     12  C   UNL     1      39.078 -25.098 -14.257  0.00  0.00    +0.000 C 
ATOM     13  C   UNL     1      38.390 -26.052 -13.505  0.00  0.00    +0.002 C 
ATOM     14  H   UNL     1      34.289 -25.576 -14.210  0.00  0.00    +0.189 HD
ENDBRANCH   3   9
BRANCH   2  15
ATOM     15  C   UNL     1      35.222 -21.608 -18.943  0.00  0.00    +0.051 C 
ATOM     16  C   UNL     1      35.088 -19.822 -21.054  0.00  0.00    +0.122 C 
ATOM     17  C   UNL     1      36.394 -21.083 -19.459  0.00  0.00    +0.016 C 
ATOM     18  C   UNL     1      33.986 -21.261 -19.458  0.00  0.00    +0.016 C 
ATOM     19  C   UNL     1      36.327 -20.183 -20.523  0.00  0.00    +0.021 C 
ATOM     20  C   UNL     1      33.918 -20.361 -20.522  0.00  0.00    +0.021 C 
BRANCH  16  21
ATOM     21  S   UNL     1      35.004 -18.695 -22.384  0.00  0.00    +0.057 S 
ATOM     22  O   UNL     1      34.591 -19.420 -23.577  0.00  0.00    -0.153 OA
ATOM     23  O   UNL     1      34.253 -17.524 -21.952  0.00  0.00    -0.153 OA
BRANCH  21  24
ATOM     24  N   UNL     1      36.649 -18.259 -22.547  0.00  0.00    -0.203 NA
ATOM     25  H   UNL     1      37.233 -18.968 -22.104  0.00  0.00    +0.144 HD
ATOM     26  H   UNL     1      36.808 -17.358 -22.098  0.00  0.00    +0.144 HD
ENDBRANCH  21  24
ENDBRANCH  16  21
ENDBRANCH   2  15
TORSDOF 4
ENDMDL
MODEL 9
REMARK VINA RESULT:      -9.2      3.623      5.555
REMARK  Name = 9926933
REMARK  4 active torsions:
REMARK  status: ('A' for Active; 'I' for Inactive)
REMARK    1  A    between atoms: N_2  and  C_15
REMARK    2  A    between atoms: C_3  and  C_9
REMARK    3  A    between atoms: C_16  and  S_21
REMARK    4  A    between atoms: S_21  and  N_24
REMARK                            x       y       z     vdW  Elec       q    Type
REMARK                         _______ _______ _______ _____ _____    ______ ____
ROOT
ATOM      1  O   UNL     1      34.145 -12.178 -24.382  0.00  0.00    -0.268 OA
ATOM      2  N   UNL     1      33.165 -12.936 -22.390  0.00  0.00    -0.279 N 
ATOM      3  C   UNL     1      33.397 -11.980 -23.400  0.00  0.00    +0.269 C 
ATOM      4  H   UNL     1      32.553 -12.652 -21.673  0.00  0.00    +0.155 HD
ENDROOT
BRANCH   3   9
ATOM      5  N   UNL     1      31.200  -9.360 -22.787  0.00  0.00    -0.276 N 
ATOM      6  N   UNL     1      31.481 -10.674 -22.808  0.00  0.00    -0.168 NA
ATOM      7  C   UNL     1      33.268  -9.430 -23.511  0.00  0.00    +0.041 A 
ATOM      8  C   UNL     1      32.231  -8.559 -23.198  0.00  0.00    +0.075 A 
ATOM      9  C   UNL     1      32.741 -10.712 -23.248  0.00  0.00    +0.155 A 
ATOM     10  C   UNL     1      34.489  -8.908 -23.970  0.00  0.00    +0.003 C 
ATOM     11  C   UNL     1      32.338  -7.172 -23.318  0.00  0.00    +0.019 C 
ATOM     12  C   UNL     1      34.618  -7.520 -24.098  0.00  0.00    +0.000 C 
ATOM     13  C   UNL     1      33.559  -6.668 -23.778  0.00  0.00    +0.002 C 
ATOM     14  H   UNL     1      30.327  -9.004 -22.502  0.00  0.00    +0.189 HD
ENDBRANCH   3   9
BRANCH   2  15
ATOM     15  C   UNL     1      33.687 -14.247 -22.261  0.00  0.00    +0.051 C 
ATOM     16  C   UNL     1      34.708 -16.807 -22.009  0.00  0.00    +0.122 C 
ATOM     17  C   UNL     1      34.176 -14.660 -21.035  0.00  0.00    +0.016 C 
ATOM     18  C   UNL     1      33.696 -15.082 -23.364  0.00  0.00    +0.016 C 
ATOM     19  C   UNL     1      34.690 -15.951 -20.908  0.00  0.00    +0.021 C 
ATOM     20  C   UNL     1      34.210 -16.373 -23.237  0.00  0.00    +0.021 C 
BRANCH  16  21
ATOM     21  S   UNL     1      35.353 -18.421 -21.851  0.00  0.00    +0.057 S 
ATOM     22  O   UNL     1      35.848 -18.588 -20.492  0.00  0.00    -0.153 OA
ATOM     23  O   UNL     1      34.381 -19.363 -22.387  0.00  0.00    -0.153 OA
BRANCH  21  24
ATOM     24  N   UNL     1      36.687 -18.345 -22.917  0.00  0.00    -0.203 NA
ATOM     25  H   UNL     1      37.553 -18.362 -22.379  0.00  0.00    +0.144 HD
ATOM     26  H   UNL     1      36.640 -17.482 -23.459  0.00  0.00    +0.144 HD
ENDBRANCH  21  24
ENDBRANCH  16  21
ENDBRANCH   2  15
TORSDOF 4
ENDMDL
