MODEL 1
REMARK VINA RESULT:      -7.9      0.000      0.000
REMARK  Name = 6323528
REMARK  10 active torsions:
REMARK  status: ('A' for Active; 'I' for Inactive)
REMARK    1  A    between atoms: C_3  and  C_14
REMARK    2  A    between atoms: C_4  and  N_8
REMARK    3  A    between atoms: C_7  and  C_19
REMARK    4  A    between atoms: N_8  and  S_10
REMARK    5  A    between atoms: C_14  and  C_16
REMARK    6  A    between atoms: C_14  and  C_17
REMARK    7  A    between atoms: C_19  and  N_21
REMARK    8  A    between atoms: C_19  and  C_29
REMARK    9  A    between atoms: C_22  and  O_24
REMARK   10  A    between atoms: O_24  and  C_25
REMARK                            x       y       z     vdW  Elec       q    Type
REMARK                         _______ _______ _______ _____ _____    ______ ____
ROOT
ATOM      1  O   UNL     1      35.037 -15.916 -20.382  0.00  0.00    -0.273 OA
ATOM      2  N   UNL     1      34.160 -15.415 -22.463  0.00  0.00    -0.278 N 
ATOM      3  C   UNL     1      33.585 -14.116 -22.093  0.00  0.00    +0.099 C 
ATOM      4  C   UNL     1      33.269 -13.449 -23.439  0.00  0.00    +0.095 C 
ATOM      5  C   UNL     1      32.990 -14.630 -24.367  0.00  0.00    +0.041 C 
ATOM      6  C   UNL     1      33.953 -15.704 -23.879  0.00  0.00    +0.095 C 
ATOM      7  C   UNL     1      34.883 -16.192 -21.573  0.00  0.00    +0.244 C 
ENDROOT
BRANCH   4   8
ATOM      8  N   UNL     1      34.464 -12.709 -23.922  0.00  0.00    -0.183 NA
ATOM      9  H   UNL     1      34.996 -12.429 -23.098  0.00  0.00    +0.148 HD
BRANCH   8  10
ATOM     10  S   UNL     1      34.236 -11.312 -24.867  0.00  0.00    +0.043 S 
ATOM     11  O   UNL     1      33.636 -11.664 -26.138  0.00  0.00    -0.157 OA
ATOM     12  O   UNL     1      35.456 -10.528 -24.815  0.00  0.00    -0.157 OA
ATOM     13  C   UNL     1      33.012 -10.456 -23.902  0.00  0.00    +0.196 C 
ENDBRANCH   8  10
ENDBRANCH   4   8
BRANCH   3  14
ATOM     14  C   UNL     1      32.328 -14.296 -21.243  0.00  0.00    +0.084 C 
BRANCH  14  16
ATOM     15  O   UNL     1      31.421 -16.493 -20.699  0.00  0.00    -0.288 OA
ATOM     16  C   UNL     1      32.357 -15.701 -20.668  0.00  0.00    +0.209 C 
ENDBRANCH  14  16
BRANCH  14  17
ATOM     17  C   UNL     1      32.242 -13.208 -20.166  0.00  0.00    +0.010 C 
ATOM     18  C   UNL     1      31.577 -11.933 -20.674  0.00  0.00    +0.001 C 
ENDBRANCH  14  17
ENDBRANCH   3  14
BRANCH   7  19
ATOM     19  C   UNL     1      35.493 -17.445 -22.147  0.00  0.00    +0.151 C 
BRANCH  19  21
ATOM     20  O   UNL     1      37.794 -19.123 -21.577  0.00  0.00    -0.226 OA
ATOM     21  N   UNL     1      35.740 -18.228 -20.970  0.00  0.00    -0.264 N 
ATOM     22  C   UNL     1      36.870 -19.004 -20.779  0.00  0.00    +0.402 C 
ATOM     23  H   UNL     1      35.064 -18.212 -20.254  0.00  0.00    +0.153 HD
BRANCH  22  24
ATOM     24  O   UNL     1      36.811 -19.624 -19.563  0.00  0.00    -0.442 OA
BRANCH  24  25
ATOM     25  C   UNL     1      36.279 -20.953 -19.565  0.00  0.00    +0.138 C 
ATOM     26  C   UNL     1      34.768 -20.874 -19.776  0.00  0.00    +0.044 C 
ATOM     27  C   UNL     1      36.945 -21.741 -20.692  0.00  0.00    +0.044 C 
ATOM     28  C   UNL     1      36.600 -21.580 -18.210  0.00  0.00    +0.044 C 
ENDBRANCH  24  25
ENDBRANCH  22  24
ENDBRANCH  19  21
BRANCH  19  29
ATOM     29  C   UNL     1      34.552 -18.131 -23.144  0.00  0.00    +0.027 C 
ATOM     30  C   UNL     1      35.337 -18.912 -24.202  0.00  0.00    +0.002 C 
ATOM     31  C   UNL     1      33.593 -19.084 -22.422  0.00  0.00    +0.002 C 
ENDBRANCH  19  29
ENDBRANCH   7  19
TORSDOF 10
ENDMDL
MODEL 2
REMARK VINA RESULT:      -7.6      8.441     11.485
REMARK  Name = 6323528
REMARK  10 active torsions:
REMARK  status: ('A' for Active; 'I' for Inactive)
REMARK    1  A    between atoms: C_3  and  C_14
REMARK    2  A    between atoms: C_4  and  N_8
REMARK    3  A    between atoms: C_7  and  C_19
REMARK    4  A    between atoms: N_8  and  S_10
REMARK    5  A    between atoms: C_14  and  C_16
REMARK    6  A    between atoms: C_14  and  C_17
REMARK    7  A    between atoms: C_19  and  N_21
REMARK    8  A    between atoms: C_19  and  C_29
REMARK    9  A    between atoms: C_22  and  O_24
REMARK   10  A    between atoms: O_24  and  C_25
REMARK                            x       y       z     vdW  Elec       q    Type
REMARK                         _______ _______ _______ _____ _____    ______ ____
ROOT
ATOM      1  O   UNL     1      35.316 -25.002 -16.556  0.00  0.00    -0.273 OA
ATOM      2  N   UNL     1      33.573 -23.863 -15.547  0.00  0.00    -0.278 N 
ATOM      3  C   UNL     1      32.769 -23.679 -16.762  0.00  0.00    +0.099 C 
ATOM      4  C   UNL     1      31.389 -23.258 -16.237  0.00  0.00    +0.095 C 
ATOM      5  C   UNL     1      31.707 -22.544 -14.926  0.00  0.00    +0.041 C 
ATOM      6  C   UNL     1      32.896 -23.318 -14.373  0.00  0.00    +0.095 C 
ATOM      7  C   UNL     1      34.772 -24.556 -15.544  0.00  0.00    +0.244 C 
ENDROOT
BRANCH   4   8
ATOM      8  N   UNL     1      30.571 -24.468 -15.959  0.00  0.00    -0.183 NA
ATOM      9  H   UNL     1      30.760 -25.136 -16.706  0.00  0.00    +0.148 HD
BRANCH   8  10
ATOM     10  S   UNL     1      28.881 -24.308 -15.848  0.00  0.00    +0.043 S 
ATOM     11  O   UNL     1      28.401 -24.936 -14.633  0.00  0.00    -0.157 OA
ATOM     12  O   UNL     1      28.309 -24.652 -17.136  0.00  0.00    -0.157 OA
ATOM     13  C   UNL     1      28.728 -22.547 -15.651  0.00  0.00    +0.196 C 
ENDBRANCH   8  10
ENDBRANCH   4   8
BRANCH   3  14
ATOM     14  C   UNL     1      33.380 -22.608 -17.665  0.00  0.00    +0.084 C 
BRANCH  14  16
ATOM     15  O   UNL     1      33.884 -24.180 -19.459  0.00  0.00    -0.288 OA
ATOM     16  C   UNL     1      34.262 -23.310 -18.682  0.00  0.00    +0.209 C 
ENDBRANCH  14  16
BRANCH  14  17
ATOM     17  C   UNL     1      32.281 -21.756 -18.311  0.00  0.00    +0.010 C 
ATOM     18  C   UNL     1      32.787 -20.957 -19.507  0.00  0.00    +0.001 C 
ENDBRANCH  14  17
ENDBRANCH   3  14
BRANCH   7  19
ATOM     19  C   UNL     1      35.414 -24.742 -14.192  0.00  0.00    +0.151 C 
BRANCH  19  21
ATOM     20  O   UNL     1      36.880 -26.730 -12.663  0.00  0.00    -0.226 OA
ATOM     21  N   UNL     1      36.659 -25.372 -14.533  0.00  0.00    -0.264 N 
ATOM     22  C   UNL     1      37.291 -26.314 -13.741  0.00  0.00    +0.402 C 
ATOM     23  H   UNL     1      37.087 -25.117 -15.382  0.00  0.00    +0.153 HD
BRANCH  22  24
ATOM     24  O   UNL     1      38.451 -26.721 -14.338  0.00  0.00    -0.442 OA
BRANCH  24  25
ATOM     25  C   UNL     1      39.560 -25.822 -14.227  0.00  0.00    +0.138 C 
ATOM     26  C   UNL     1      40.843 -26.643 -14.113  0.00  0.00    +0.044 C 
ATOM     27  C   UNL     1      39.590 -24.933 -15.469  0.00  0.00    +0.044 C 
ATOM     28  C   UNL     1      39.346 -24.982 -12.969  0.00  0.00    +0.044 C 
ENDBRANCH  24  25
ENDBRANCH  22  24
ENDBRANCH  19  21
BRANCH  19  29
ATOM     29  C   UNL     1      35.590 -23.409 -13.457  0.00  0.00    +0.027 C 
ATOM     30  C   UNL     1      35.733 -23.623 -11.946  0.00  0.00    +0.002 C 
ATOM     31  C   UNL     1      36.820 -22.657 -13.979  0.00  0.00    +0.002 C 
ENDBRANCH  19  29
ENDBRANCH   7  19
TORSDOF 10
ENDMDL
MODEL 3
REMARK VINA RESULT:      -7.2      7.958     12.137
REMARK  Name = 6323528
REMARK  10 active torsions:
REMARK  status: ('A' for Active; 'I' for Inactive)
REMARK    1  A    between atoms: C_3  and  C_14
REMARK    2  A    between atoms: C_4  and  N_8
REMARK    3  A    between atoms: C_7  and  C_19
REMARK    4  A    between atoms: N_8  and  S_10
REMARK    5  A    between atoms: C_14  and  C_16
REMARK    6  A    between atoms: C_14  and  C_17
REMARK    7  A    between atoms: C_19  and  N_21
REMARK    8  A    between atoms: C_19  and  C_29
REMARK    9  A    between atoms: C_22  and  O_24
REMARK   10  A    between atoms: O_24  and  C_25
REMARK                            x       y       z     vdW  Elec       q    Type
REMARK                         _______ _______ _______ _____ _____    ______ ____
ROOT
ATOM      1  O   UNL     1      33.180 -24.781 -13.878  0.00  0.00    -0.273 OA
ATOM      2  N   UNL     1      35.014 -23.587 -14.631  0.00  0.00    -0.278 N 
ATOM      3  C   UNL     1      36.001 -24.228 -13.753  0.00  0.00    +0.099 C 
ATOM      4  C   UNL     1      37.354 -23.828 -14.357  0.00  0.00    +0.095 C 
ATOM      5  C   UNL     1      37.071 -22.475 -15.007  0.00  0.00    +0.041 C 
ATOM      6  C   UNL     1      35.644 -22.616 -15.521  0.00  0.00    +0.095 C 
ATOM      7  C   UNL     1      33.679 -23.956 -14.646  0.00  0.00    +0.244 C 
ENDROOT
BRANCH   4   8
ATOM      8  N   UNL     1      37.744 -24.810 -15.402  0.00  0.00    -0.183 NA
ATOM      9  H   UNL     1      36.900 -25.318 -15.666  0.00  0.00    +0.148 HD
BRANCH   8  10
ATOM     10  S   UNL     1      38.931 -25.973 -15.033  0.00  0.00    +0.043 S 
ATOM     11  O   UNL     1      40.072 -25.815 -15.913  0.00  0.00    -0.157 OA
ATOM     12  O   UNL     1      38.275 -27.259 -14.893  0.00  0.00    -0.157 OA
ATOM     13  C   UNL     1      39.417 -25.444 -13.406  0.00  0.00    +0.196 C 
ENDBRANCH   8  10
ENDBRANCH   4   8
BRANCH   3  14
ATOM     14  C   UNL     1      35.857 -23.733 -12.314  0.00  0.00    +0.084 C 
BRANCH  14  16
ATOM     15  O   UNL     1      35.177 -24.978 -10.332  0.00  0.00    -0.288 OA
ATOM     16  C   UNL     1      35.751 -24.952 -11.415  0.00  0.00    +0.209 C 
ENDBRANCH  14  16
BRANCH  14  17
ATOM     17  C   UNL     1      37.023 -22.810 -11.941  0.00  0.00    +0.010 C 
ATOM     18  C   UNL     1      38.201 -23.569 -11.339  0.00  0.00    +0.001 C 
ENDBRANCH  14  17
ENDBRANCH   3  14
BRANCH   7  19
ATOM     19  C   UNL     1      32.826 -23.270 -15.683  0.00  0.00    +0.151 C 
BRANCH  19  21
ATOM     20  O   UNL     1      32.313 -22.141 -18.310  0.00  0.00    -0.226 OA
ATOM     21  N   UNL     1      33.629 -23.396 -16.867  0.00  0.00    -0.264 N 
ATOM     22  C   UNL     1      33.308 -22.822 -18.084  0.00  0.00    +0.402 C 
ATOM     23  H   UNL     1      34.459 -23.922 -16.808  0.00  0.00    +0.153 HD
BRANCH  22  24
ATOM     24  O   UNL     1      34.267 -23.123 -19.009  0.00  0.00    -0.442 OA
BRANCH  24  25
ATOM     25  C   UNL     1      34.990 -22.009 -19.545  0.00  0.00    +0.138 C 
ATOM     26  C   UNL     1      34.001 -20.883 -19.840  0.00  0.00    +0.044 C 
ATOM     27  C   UNL     1      36.030 -21.565 -18.517  0.00  0.00    +0.044 C 
ATOM     28  C   UNL     1      35.671 -22.477 -20.830  0.00  0.00    +0.044 C 
ENDBRANCH  24  25
ENDBRANCH  22  24
ENDBRANCH  19  21
BRANCH  19  29
ATOM     29  C   UNL     1      31.448 -23.928 -15.813  0.00  0.00    +0.027 C 
ATOM     30  C   UNL     1      31.121 -24.780 -14.582  0.00  0.00    +0.002 C 
ATOM     31  C   UNL     1      30.354 -22.870 -15.998  0.00  0.00    +0.002 C 
ENDBRANCH  19  29
ENDBRANCH   7  19
TORSDOF 10
ENDMDL
MODEL 4
REMARK VINA RESULT:      -7.2      9.188     12.453
REMARK  Name = 6323528
REMARK  10 active torsions:
REMARK  status: ('A' for Active; 'I' for Inactive)
REMARK    1  A    between atoms: C_3  and  C_14
REMARK    2  A    between atoms: C_4  and  N_8
REMARK    3  A    between atoms: C_7  and  C_19
REMARK    4  A    between atoms: N_8  and  S_10
REMARK    5  A    between atoms: C_14  and  C_16
REMARK    6  A    between atoms: C_14  and  C_17
REMARK    7  A    between atoms: C_19  and  N_21
REMARK    8  A    between atoms: C_19  and  C_29
REMARK    9  A    between atoms: C_22  and  O_24
REMARK   10  A    between atoms: O_24  and  C_25
REMARK                            x       y       z     vdW  Elec       q    Type
REMARK                         _______ _______ _______ _____ _____    ______ ____
ROOT
ATOM      1  O   UNL     1      34.862 -22.024 -15.340  0.00  0.00    -0.273 OA
ATOM      2  N   UNL     1      35.553 -24.225 -15.156  0.00  0.00    -0.278 N 
ATOM      3  C   UNL     1      36.576 -23.992 -14.129  0.00  0.00    +0.099 C 
ATOM      4  C   UNL     1      36.904 -25.396 -13.603  0.00  0.00    +0.095 C 
ATOM      5  C   UNL     1      36.638 -26.300 -14.804  0.00  0.00    +0.041 C 
ATOM      6  C   UNL     1      35.450 -25.642 -15.492  0.00  0.00    +0.095 C 
ATOM      7  C   UNL     1      34.745 -23.212 -15.647  0.00  0.00    +0.244 C 
ENDROOT
BRANCH   4   8
ATOM      8  N   UNL     1      35.971 -25.746 -12.500  0.00  0.00    -0.183 NA
ATOM      9  H   UNL     1      35.112 -26.086 -12.931  0.00  0.00    +0.148 HD
BRANCH   8  10
ATOM     10  S   UNL     1      35.527 -24.538 -11.387  0.00  0.00    +0.043 S 
ATOM     11  O   UNL     1      35.267 -25.129 -10.089  0.00  0.00    -0.157 OA
ATOM     12  O   UNL     1      34.545 -23.679 -12.020  0.00  0.00    -0.157 OA
ATOM     13  C   UNL     1      37.045 -23.618 -11.275  0.00  0.00    +0.196 C 
ENDBRANCH   8  10
ENDBRANCH   4   8
BRANCH   3  14
ATOM     14  C   UNL     1      37.807 -23.312 -14.727  0.00  0.00    +0.084 C 
BRANCH  14  16
ATOM     15  O   UNL     1      39.894 -24.447 -15.272  0.00  0.00    -0.288 OA
ATOM     16  C   UNL     1      39.004 -24.209 -14.463  0.00  0.00    +0.209 C 
ENDBRANCH  14  16
BRANCH  14  17
ATOM     17  C   UNL     1      37.593 -23.019 -16.217  0.00  0.00    +0.010 C 
ATOM     18  C   UNL     1      37.674 -21.531 -16.539  0.00  0.00    +0.001 C 
ENDBRANCH  14  17
ENDBRANCH   3  14
BRANCH   7  19
ATOM     19  C   UNL     1      33.677 -23.645 -16.618  0.00  0.00    +0.151 C 
BRANCH  19  21
ATOM     20  O   UNL     1      32.169 -24.877 -14.463  0.00  0.00    -0.226 OA
ATOM     21  N   UNL     1      32.481 -23.157 -15.990  0.00  0.00    -0.264 N 
ATOM     22  C   UNL     1      31.824 -23.812 -14.964  0.00  0.00    +0.402 C 
ATOM     23  H   UNL     1      32.107 -22.304 -16.309  0.00  0.00    +0.153 HD
BRANCH  22  24
ATOM     24  O   UNL     1      30.724 -23.096 -14.582  0.00  0.00    -0.442 OA
BRANCH  24  25
ATOM     25  C   UNL     1      29.502 -23.424 -15.252  0.00  0.00    +0.138 C 
ATOM     26  C   UNL     1      29.787 -23.562 -16.746  0.00  0.00    +0.044 C 
ATOM     27  C   UNL     1      28.968 -24.734 -14.675  0.00  0.00    +0.044 C 
ATOM     28  C   UNL     1      28.517 -22.284 -14.996  0.00  0.00    +0.044 C 
ENDBRANCH  24  25
ENDBRANCH  22  24
ENDBRANCH  19  21
BRANCH  19  29
ATOM     29  C   UNL     1      33.908 -23.061 -18.016  0.00  0.00    +0.027 C 
ATOM     30  C   UNL     1      33.944 -24.164 -19.080  0.00  0.00    +0.002 C 
ATOM     31  C   UNL     1      32.810 -22.052 -18.374  0.00  0.00    +0.002 C 
ENDBRANCH  19  29
ENDBRANCH   7  19
TORSDOF 10
ENDMDL
MODEL 5
REMARK VINA RESULT:      -7.1      2.954      9.435
REMARK  Name = 6323528
REMARK  10 active torsions:
REMARK  status: ('A' for Active; 'I' for Inactive)
REMARK    1  A    between atoms: C_3  and  C_14
REMARK    2  A    between atoms: C_4  and  N_8
REMARK    3  A    between atoms: C_7  and  C_19
REMARK    4  A    between atoms: N_8  and  S_10
REMARK    5  A    between atoms: C_14  and  C_16
REMARK    6  A    between atoms: C_14  and  C_17
REMARK    7  A    between atoms: C_19  and  N_21
REMARK    8  A    between atoms: C_19  and  C_29
REMARK    9  A    between atoms: C_22  and  O_24
REMARK   10  A    between atoms: O_24  and  C_25
REMARK                            x       y       z     vdW  Elec       q    Type
REMARK                         _______ _______ _______ _____ _____    ______ ____
ROOT
ATOM      1  O   UNL     1      34.226 -10.920 -24.707  0.00  0.00    -0.273 OA
ATOM      2  N   UNL     1      33.239 -12.542 -23.384  0.00  0.00    -0.278 N 
ATOM      3  C   UNL     1      33.697 -13.696 -24.167  0.00  0.00    +0.099 C 
ATOM      4  C   UNL     1      33.450 -14.897 -23.243  0.00  0.00    +0.095 C 
ATOM      5  C   UNL     1      32.258 -14.457 -22.395  0.00  0.00    +0.041 C 
ATOM      6  C   UNL     1      32.483 -12.963 -22.208  0.00  0.00    +0.095 C 
ATOM      7  C   UNL     1      33.585 -11.239 -23.703  0.00  0.00    +0.244 C 
ENDROOT
BRANCH   4   8
ATOM      8  N   UNL     1      34.633 -15.105 -22.368  0.00  0.00    -0.183 NA
ATOM      9  H   UNL     1      35.440 -15.227 -22.979  0.00  0.00    +0.148 HD
BRANCH   8  10
ATOM     10  S   UNL     1      34.628 -16.413 -21.279  0.00  0.00    +0.043 S 
ATOM     11  O   UNL     1      33.337 -17.072 -21.299  0.00  0.00    -0.157 OA
ATOM     12  O   UNL     1      35.211 -15.962 -20.030  0.00  0.00    -0.157 OA
ATOM     13  C   UNL     1      35.807 -17.494 -22.056  0.00  0.00    +0.196 C 
ENDBRANCH   8  10
ENDBRANCH   4   8
BRANCH   3  14
ATOM     14  C   UNL     1      32.912 -13.818 -25.472  0.00  0.00    +0.084 C 
BRANCH  14  16
ATOM     15  O   UNL     1      33.795 -13.363 -27.699  0.00  0.00    -0.288 OA
ATOM     16  C   UNL     1      33.650 -13.018 -26.531  0.00  0.00    +0.209 C 
ENDBRANCH  14  16
BRANCH  14  17
ATOM     17  C   UNL     1      32.724 -15.290 -25.855  0.00  0.00    +0.010 C 
ATOM     18  C   UNL     1      34.020 -16.089 -25.764  0.00  0.00    +0.001 C 
ENDBRANCH  14  17
ENDBRANCH   3  14
BRANCH   7  19
ATOM     19  C   UNL     1      33.118 -10.184 -22.733  0.00  0.00    +0.151 C 
BRANCH  19  21
ATOM     20  O   UNL     1      33.691  -7.461 -21.900  0.00  0.00    -0.226 OA
ATOM     21  N   UNL     1      33.130  -9.000 -23.545  0.00  0.00    -0.264 N 
ATOM     22  C   UNL     1      33.415  -7.735 -23.064  0.00  0.00    +0.402 C 
ATOM     23  H   UNL     1      32.923  -9.095 -24.503  0.00  0.00    +0.153 HD
BRANCH  22  24
ATOM     24  O   UNL     1      33.345  -6.823 -24.079  0.00  0.00    -0.442 OA
BRANCH  24  25
ATOM     25  C   UNL     1      32.153  -6.032 -24.128  0.00  0.00    +0.138 C 
ATOM     26  C   UNL     1      30.987  -6.932 -24.534  0.00  0.00    +0.044 C 
ATOM     27  C   UNL     1      31.916  -5.424 -22.747  0.00  0.00    +0.044 C 
ATOM     28  C   UNL     1      32.371  -4.934 -25.168  0.00  0.00    +0.044 C 
ENDBRANCH  24  25
ENDBRANCH  22  24
ENDBRANCH  19  21
BRANCH  19  29
ATOM     29  C   UNL     1      31.736 -10.511 -22.158  0.00  0.00    +0.027 C 
ATOM     30  C   UNL     1      31.642 -10.119 -20.679  0.00  0.00    +0.002 C 
ATOM     31  C   UNL     1      30.635  -9.788 -22.942  0.00  0.00    +0.002 C 
ENDBRANCH  19  29
ENDBRANCH   7  19
TORSDOF 10
ENDMDL
MODEL 6
REMARK VINA RESULT:      -6.8      9.197     12.951
REMARK  Name = 6323528
REMARK  10 active torsions:
REMARK  status: ('A' for Active; 'I' for Inactive)
REMARK    1  A    between atoms: C_3  and  C_14
REMARK    2  A    between atoms: C_4  and  N_8
REMARK    3  A    between atoms: C_7  and  C_19
REMARK    4  A    between atoms: N_8  and  S_10
REMARK    5  A    between atoms: C_14  and  C_16
REMARK    6  A    between atoms: C_14  and  C_17
REMARK    7  A    between atoms: C_19  and  N_21
REMARK    8  A    between atoms: C_19  and  C_29
REMARK    9  A    between atoms: C_22  and  O_24
REMARK   10  A    between atoms: O_24  and  C_25
REMARK                            x       y       z     vdW  Elec       q    Type
REMARK                         _______ _______ _______ _____ _____    ______ ____
ROOT
ATOM      1  O   UNL     1      36.703 -22.032 -14.944  0.00  0.00    -0.273 OA
ATOM      2  N   UNL     1      36.557 -24.338 -14.810  0.00  0.00    -0.278 N 
ATOM      3  C   UNL     1      37.445 -24.493 -13.652  0.00  0.00    +0.099 C 
ATOM      4  C   UNL     1      37.191 -25.931 -13.176  0.00  0.00    +0.095 C 
ATOM      5  C   UNL     1      36.796 -26.667 -14.454  0.00  0.00    +0.041 C 
ATOM      6  C   UNL     1      36.016 -25.623 -15.243  0.00  0.00    +0.095 C 
ATOM      7  C   UNL     1      36.226 -23.099 -15.335  0.00  0.00    +0.244 C 
ENDROOT
BRANCH   4   8
ATOM      8  N   UNL     1      36.052 -25.945 -12.221  0.00  0.00    -0.183 NA
ATOM      9  H   UNL     1      35.196 -25.937 -12.776  0.00  0.00    +0.148 HD
BRANCH   8  10
ATOM     10  S   UNL     1      35.921 -24.688 -11.082  0.00  0.00    +0.043 S 
ATOM     11  O   UNL     1      37.215 -24.070 -10.872  0.00  0.00    -0.157 OA
ATOM     12  O   UNL     1      35.141 -25.175  -9.960  0.00  0.00    -0.157 OA
ATOM     13  C   UNL     1      34.902 -23.537 -11.976  0.00  0.00    +0.196 C 
ENDBRANCH   8  10
ENDBRANCH   4   8
BRANCH   3  14
ATOM     14  C   UNL     1      38.906 -24.281 -14.050  0.00  0.00    +0.084 C 
BRANCH  14  16
ATOM     15  O   UNL     1      39.415 -23.325 -11.866  0.00  0.00    -0.288 OA
ATOM     16  C   UNL     1      39.709 -24.094 -12.775  0.00  0.00    +0.209 C 
ENDBRANCH  14  16
BRANCH  14  17
ATOM     17  C   UNL     1      39.407 -25.448 -14.909  0.00  0.00    +0.010 C 
ATOM     18  C   UNL     1      40.667 -26.094 -14.342  0.00  0.00    +0.001 C 
ENDBRANCH  14  17
ENDBRANCH   3  14
BRANCH   7  19
ATOM     19  C   UNL     1      35.218 -23.115 -16.456  0.00  0.00    +0.151 C 
BRANCH  19  21
ATOM     20  O   UNL     1      32.558 -23.967 -17.252  0.00  0.00    -0.226 OA
ATOM     21  N   UNL     1      33.982 -22.910 -15.755  0.00  0.00    -0.264 N 
ATOM     22  C   UNL     1      32.752 -23.352 -16.209  0.00  0.00    +0.402 C 
ATOM     23  H   UNL     1      34.012 -22.426 -14.898  0.00  0.00    +0.153 HD
BRANCH  22  24
ATOM     24  O   UNL     1      31.774 -23.004 -15.320  0.00  0.00    -0.442 OA
BRANCH  24  25
ATOM     25  C   UNL     1      31.253 -24.067 -14.516  0.00  0.00    +0.138 C 
ATOM     26  C   UNL     1      32.395 -25.020 -14.168  0.00  0.00    +0.044 C 
ATOM     27  C   UNL     1      30.640 -23.466 -13.252  0.00  0.00    +0.044 C 
ATOM     28  C   UNL     1      30.186 -24.787 -15.340  0.00  0.00    +0.044 C 
ENDBRANCH  24  25
ENDBRANCH  22  24
ENDBRANCH  19  21
BRANCH  19  29
ATOM     29  C   UNL     1      35.510 -22.031 -17.499  0.00  0.00    +0.027 C 
ATOM     30  C   UNL     1      37.012 -21.922 -17.783  0.00  0.00    +0.002 C 
ATOM     31  C   UNL     1      34.769 -22.322 -18.810  0.00  0.00    +0.002 C 
ENDBRANCH  19  29
ENDBRANCH   7  19
TORSDOF 10
ENDMDL
MODEL 7
REMARK VINA RESULT:      -6.7      3.649     10.021
REMARK  Name = 6323528
REMARK  10 active torsions:
REMARK  status: ('A' for Active; 'I' for Inactive)
REMARK    1  A    between atoms: C_3  and  C_14
REMARK    2  A    between atoms: C_4  and  N_8
REMARK    3  A    between atoms: C_7  and  C_19
REMARK    4  A    between atoms: N_8  and  S_10
REMARK    5  A    between atoms: C_14  and  C_16
REMARK    6  A    between atoms: C_14  and  C_17
REMARK    7  A    between atoms: C_19  and  N_21
REMARK    8  A    between atoms: C_19  and  C_29
REMARK    9  A    between atoms: C_22  and  O_24
REMARK   10  A    between atoms: O_24  and  C_25
REMARK                            x       y       z     vdW  Elec       q    Type
REMARK                         _______ _______ _______ _____ _____    ______ ____
ROOT
ATOM      1  O   UNL     1      34.535  -9.271 -24.022  0.00  0.00    -0.273 OA
ATOM      2  N   UNL     1      33.391 -11.206 -23.476  0.00  0.00    -0.278 N 
ATOM      3  C   UNL     1      34.136 -12.098 -24.373  0.00  0.00    +0.099 C 
ATOM      4  C   UNL     1      33.767 -13.508 -23.889  0.00  0.00    +0.095 C 
ATOM      5  C   UNL     1      32.363 -13.333 -23.314  0.00  0.00    +0.041 C 
ATOM      6  C   UNL     1      32.398 -11.941 -22.698  0.00  0.00    +0.095 C 
ATOM      7  C   UNL     1      33.689  -9.860 -23.347  0.00  0.00    +0.244 C 
ENDROOT
BRANCH   4   8
ATOM      8  N   UNL     1      34.699 -13.923 -22.808  0.00  0.00    -0.183 NA
ATOM      9  H   UNL     1      35.607 -14.089 -23.242  0.00  0.00    +0.148 HD
BRANCH   8  10
ATOM     10  S   UNL     1      34.325 -15.306 -21.890  0.00  0.00    +0.043 S 
ATOM     11  O   UNL     1      32.907 -15.595 -21.980  0.00  0.00    -0.157 OA
ATOM     12  O   UNL     1      34.975 -15.181 -20.599  0.00  0.00    -0.157 OA
ATOM     13  C   UNL     1      35.197 -16.557 -22.805  0.00  0.00    +0.196 C 
ENDBRANCH   8  10
ENDBRANCH   4   8
BRANCH   3  14
ATOM     14  C   UNL     1      33.727 -11.877 -25.829  0.00  0.00    +0.084 C 
BRANCH  14  16
ATOM     15  O   UNL     1      35.564 -10.455 -26.569  0.00  0.00    -0.288 OA
ATOM     16  C   UNL     1      34.981 -11.533 -26.613  0.00  0.00    +0.209 C 
ENDBRANCH  14  16
BRANCH  14  17
ATOM     17  C   UNL     1      32.994 -13.106 -26.377  0.00  0.00    +0.010 C 
ATOM     18  C   UNL     1      33.676 -13.695 -27.608  0.00  0.00    +0.001 C 
ENDBRANCH  14  17
ENDBRANCH   3  14
BRANCH   7  19
ATOM     19  C   UNL     1      32.896  -9.113 -22.304  0.00  0.00    +0.151 C 
BRANCH  19  21
ATOM     20  O   UNL     1      32.556  -6.597 -20.894  0.00  0.00    -0.226 OA
ATOM     21  N   UNL     1      32.826  -7.793 -22.865  0.00  0.00    -0.264 N 
ATOM     22  C   UNL     1      32.662  -6.642 -22.115  0.00  0.00    +0.402 C 
ATOM     23  H   UNL     1      32.901  -7.702 -23.842  0.00  0.00    +0.153 HD
BRANCH  22  24
ATOM     24  O   UNL     1      32.635  -5.550 -22.937  0.00  0.00    -0.442 OA
BRANCH  24  25
ATOM     25  C   UNL     1      31.341  -4.991 -23.190  0.00  0.00    +0.138 C 
ATOM     26  C   UNL     1      30.409  -5.381 -22.044  0.00  0.00    +0.044 C 
ATOM     27  C   UNL     1      31.479  -3.472 -23.286  0.00  0.00    +0.044 C 
ATOM     28  C   UNL     1      30.840  -5.569 -24.512  0.00  0.00    +0.044 C 
ENDBRANCH  24  25
ENDBRANCH  22  24
ENDBRANCH  19  21
BRANCH  19  29
ATOM     29  C   UNL     1      31.520  -9.747 -22.073  0.00  0.00    +0.027 C 
ATOM     30  C   UNL     1      31.151  -9.747 -20.586  0.00  0.00    +0.002 C 
ATOM     31  C   UNL     1      30.437  -9.002 -22.862  0.00  0.00    +0.002 C 
ENDBRANCH  19  29
ENDBRANCH   7  19
TORSDOF 10
ENDMDL
MODEL 8
REMARK VINA RESULT:      -6.5      3.113      8.174
REMARK  Name = 6323528
REMARK  10 active torsions:
REMARK  status: ('A' for Active; 'I' for Inactive)
REMARK    1  A    between atoms: C_3  and  C_14
REMARK    2  A    between atoms: C_4  and  N_8
REMARK    3  A    between atoms: C_7  and  C_19
REMARK    4  A    between atoms: N_8  and  S_10
REMARK    5  A    between atoms: C_14  and  C_16
REMARK    6  A    between atoms: C_14  and  C_17
REMARK    7  A    between atoms: C_19  and  N_21
REMARK    8  A    between atoms: C_19  and  C_29
REMARK    9  A    between atoms: C_22  and  O_24
REMARK   10  A    between atoms: O_24  and  C_25
REMARK                            x       y       z     vdW  Elec       q    Type
REMARK                         _______ _______ _______ _____ _____    ______ ____
ROOT
ATOM      1  O   UNL     1      35.050 -10.555 -25.045  0.00  0.00    -0.273 OA
ATOM      2  N   UNL     1      33.506 -11.945 -24.028  0.00  0.00    -0.278 N 
ATOM      3  C   UNL     1      34.199 -13.205 -24.321  0.00  0.00    +0.099 C 
ATOM      4  C   UNL     1      33.514 -14.231 -23.407  0.00  0.00    +0.095 C 
ATOM      5  C   UNL     1      32.096 -13.683 -23.253  0.00  0.00    +0.041 C 
ATOM      6  C   UNL     1      32.294 -12.173 -23.246  0.00  0.00    +0.095 C 
ATOM      7  C   UNL     1      34.022 -10.710 -24.383  0.00  0.00    +0.244 C 
ENDROOT
BRANCH   4   8
ATOM      8  N   UNL     1      34.187 -14.246 -22.082  0.00  0.00    -0.183 NA
ATOM      9  H   UNL     1      35.180 -14.080 -22.248  0.00  0.00    +0.148 HD
BRANCH   8  10
ATOM     10  S   UNL     1      34.069 -15.642 -21.117  0.00  0.00    +0.043 S 
ATOM     11  O   UNL     1      32.676 -15.953 -20.861  0.00  0.00    -0.157 OA
ATOM     12  O   UNL     1      35.013 -15.517 -20.023  0.00  0.00    -0.157 OA
ATOM     13  C   UNL     1      34.707 -16.871 -22.233  0.00  0.00    +0.196 C 
ENDBRANCH   8  10
ENDBRANCH   4   8
BRANCH   3  14
ATOM     14  C   UNL     1      34.053 -13.579 -25.796  0.00  0.00    +0.084 C 
BRANCH  14  16
ATOM     15  O   UNL     1      34.050 -15.978 -26.230  0.00  0.00    -0.288 OA
ATOM     16  C   UNL     1      33.453 -14.973 -25.862  0.00  0.00    +0.209 C 
ENDBRANCH  14  16
BRANCH  14  17
ATOM     17  C   UNL     1      33.218 -12.530 -26.540  0.00  0.00    +0.010 C 
ATOM     18  C   UNL     1      32.176 -13.157 -27.461  0.00  0.00    +0.001 C 
ENDBRANCH  14  17
ENDBRANCH   3  14
BRANCH   7  19
ATOM     19  C   UNL     1      33.235  -9.514 -23.911  0.00  0.00    +0.151 C 
BRANCH  19  21
ATOM     20  O   UNL     1      31.159  -8.593 -22.101  0.00  0.00    -0.226 OA
ATOM     21  N   UNL     1      33.122  -9.764 -22.501  0.00  0.00    -0.264 N 
ATOM     22  C   UNL     1      32.094  -9.283 -21.710  0.00  0.00    +0.402 C 
ATOM     23  H   UNL     1      33.819 -10.311 -22.072  0.00  0.00    +0.153 HD
BRANCH  22  24
ATOM     24  O   UNL     1      32.269  -9.692 -20.418  0.00  0.00    -0.442 OA
BRANCH  24  25
ATOM     25  C   UNL     1      31.440 -10.777 -19.988  0.00  0.00    +0.138 C 
ATOM     26  C   UNL     1      30.877 -10.444 -18.608  0.00  0.00    +0.044 C 
ATOM     27  C   UNL     1      30.315 -10.961 -21.006  0.00  0.00    +0.044 C 
ATOM     28  C   UNL     1      32.316 -12.028 -19.924  0.00  0.00    +0.044 C 
ENDBRANCH  24  25
ENDBRANCH  22  24
ENDBRANCH  19  21
BRANCH  19  29
ATOM     29  C   UNL     1      33.948  -8.198 -24.238  0.00  0.00    +0.027 C 
ATOM     30  C   UNL     1      32.942  -7.081 -24.540  0.00  0.00    +0.002 C 
ATOM     31  C   UNL     1      34.850  -7.763 -23.077  0.00  0.00    +0.002 C 
ENDBRANCH  19  29
ENDBRANCH   7  19
TORSDOF 10
ENDMDL
MODEL 9
REMARK VINA RESULT:      -6.5      4.125      7.111
REMARK  Name = 6323528
REMARK  10 active torsions:
REMARK  status: ('A' for Active; 'I' for Inactive)
REMARK    1  A    between atoms: C_3  and  C_14
REMARK    2  A    between atoms: C_4  and  N_8
REMARK    3  A    between atoms: C_7  and  C_19
REMARK    4  A    between atoms: N_8  and  S_10
REMARK    5  A    between atoms: C_14  and  C_16
REMARK    6  A    between atoms: C_14  and  C_17
REMARK    7  A    between atoms: C_19  and  N_21
REMARK    8  A    between atoms: C_19  and  C_29
REMARK    9  A    between atoms: C_22  and  O_24
REMARK   10  A    between atoms: O_24  and  C_25
REMARK                            x       y       z     vdW  Elec       q    Type
REMARK                         _______ _______ _______ _____ _____    ______ ____
ROOT
ATOM      1  O   UNL     1      31.738 -10.857 -23.850  0.00  0.00    -0.273 OA
ATOM      2  N   UNL     1      33.502  -9.378 -23.617  0.00  0.00    -0.278 N 
ATOM      3  C   UNL     1      32.687  -8.191 -23.332  0.00  0.00    +0.099 C 
ATOM      4  C   UNL     1      33.693  -7.169 -22.784  0.00  0.00    +0.095 C 
ATOM      5  C   UNL     1      35.002  -7.552 -23.471  0.00  0.00    +0.041 C 
ATOM      6  C   UNL     1      34.928  -9.070 -23.565  0.00  0.00    +0.095 C 
ATOM      7  C   UNL     1      32.949 -10.633 -23.811  0.00  0.00    +0.244 C 
ENDROOT
BRANCH   4   8
ATOM      8  N   UNL     1      33.833  -7.345 -21.315  0.00  0.00    -0.183 NA
ATOM      9  H   UNL     1      34.137  -8.305 -21.155  0.00  0.00    +0.148 HD
BRANCH   8  10
ATOM     10  S   UNL     1      32.475  -7.079 -20.324  0.00  0.00    +0.043 S 
ATOM     11  O   UNL     1      31.422  -6.438 -21.086  0.00  0.00    -0.157 OA
ATOM     12  O   UNL     1      32.934  -6.511 -19.071  0.00  0.00    -0.157 OA
ATOM     13  C   UNL     1      31.972  -8.753 -19.997  0.00  0.00    +0.196 C 
ENDBRANCH   8  10
ENDBRANCH   4   8
BRANCH   3  14
ATOM     14  C   UNL     1      31.999  -7.682 -24.598  0.00  0.00    +0.084 C 
BRANCH  14  16
ATOM     15  O   UNL     1      29.964  -8.214 -23.366  0.00  0.00    -0.288 OA
ATOM     16  C   UNL     1      30.500  -7.775 -24.378  0.00  0.00    +0.209 C 
ENDBRANCH  14  16
BRANCH  14  17
ATOM     17  C   UNL     1      32.469  -6.262 -24.935  0.00  0.00    +0.010 C 
ATOM     18  C   UNL     1      31.372  -5.220 -24.740  0.00  0.00    +0.001 C 
ENDBRANCH  14  17
ENDBRANCH   3  14
BRANCH   7  19
ATOM     19  C   UNL     1      33.935 -11.760 -23.987  0.00  0.00    +0.151 C 
BRANCH  19  21
ATOM     20  O   UNL     1      34.941 -14.446 -23.530  0.00  0.00    -0.226 OA
ATOM     21  N   UNL     1      33.261 -12.855 -23.348  0.00  0.00    -0.264 N 
ATOM     22  C   UNL     1      33.818 -14.109 -23.171  0.00  0.00    +0.402 C 
ATOM     23  H   UNL     1      32.347 -12.702 -23.014  0.00  0.00    +0.153 HD
BRANCH  22  24
ATOM     24  O   UNL     1      32.929 -14.927 -22.532  0.00  0.00    -0.442 OA
BRANCH  24  25
ATOM     25  C   UNL     1      32.966 -14.892 -21.101  0.00  0.00    +0.138 C 
ATOM     26  C   UNL     1      34.420 -15.010 -20.647  0.00  0.00    +0.044 C 
ATOM     27  C   UNL     1      32.354 -13.573 -20.632  0.00  0.00    +0.044 C 
ATOM     28  C   UNL     1      32.146 -16.076 -20.591  0.00  0.00    +0.044 C 
ENDBRANCH  24  25
ENDBRANCH  22  24
ENDBRANCH  19  21
BRANCH  19  29
ATOM     29  C   UNL     1      34.246 -12.019 -25.465  0.00  0.00    +0.027 C 
ATOM     30  C   UNL     1      32.964 -12.271 -26.266  0.00  0.00    +0.002 C 
ATOM     31  C   UNL     1      35.000 -10.834 -26.080  0.00  0.00    +0.002 C 
ENDBRANCH  19  29
ENDBRANCH   7  19
TORSDOF 10
ENDMDL
