MODEL 1
REMARK VINA RESULT:      -4.2      0.000      0.000
REMARK  Name = 10927
REMARK  2 active torsions:
REMARK  status: ('A' for Active; 'I' for Inactive)
REMARK    1  A    between atoms: C_3  and  C_6
REMARK    2  A    between atoms: C_6  and  C_7
REMARK                            x       y       z     vdW  Elec       q    Type
REMARK                         _______ _______ _______ _____ _____    ______ ____
ROOT
ATOM      1  O   UNL     1      34.072 -23.685 -19.503  0.00  0.00    -0.275 OA
ATOM      2  N   UNL     1      32.604 -22.389 -18.295  0.00  0.00    -0.329 N 
ATOM      3  C   UNL     1      33.659 -22.580 -19.163  0.00  0.00    +0.219 C 
ATOM      4  H   UNL     1      32.138 -23.166 -17.910  0.00  0.00    +0.145 HD
ATOM      5  H   UNL     1      32.318 -21.477 -18.060  0.00  0.00    +0.145 HD
ENDROOT
BRANCH   3   6
ATOM      6  C   UNL     1      34.247 -21.270 -19.649  0.00  0.00    +0.085 C 
BRANCH   6   7
ATOM      7  C   UNL     1      33.201 -20.368 -20.295  0.00  0.00    +0.010 C 
ATOM      8  C   UNL     1      33.833 -19.395 -21.277  0.00  0.00    +0.001 C 
ENDBRANCH   6   7
ENDBRANCH   3   6
TORSDOF 2
ENDMDL
MODEL 2
REMARK VINA RESULT:      -4.1      4.219      4.826
REMARK  Name = 10927
REMARK  2 active torsions:
REMARK  status: ('A' for Active; 'I' for Inactive)
REMARK    1  A    between atoms: C_3  and  C_6
REMARK    2  A    between atoms: C_6  and  C_7
REMARK                            x       y       z     vdW  Elec       q    Type
REMARK                         _______ _______ _______ _____ _____    ______ ____
ROOT
ATOM      1  O   UNL     1      35.371 -17.405 -20.715  0.00  0.00    -0.275 OA
ATOM      2  N   UNL     1      36.129 -17.807 -22.850  0.00  0.00    -0.329 N 
ATOM      3  C   UNL     1      35.364 -18.087 -21.736  0.00  0.00    +0.219 C 
ATOM      4  H   UNL     1      36.725 -17.023 -22.852  0.00  0.00    +0.145 HD
ATOM      5  H   UNL     1      36.080 -18.392 -23.640  0.00  0.00    +0.145 HD
ENDROOT
BRANCH   3   6
ATOM      6  C   UNL     1      34.515 -19.329 -21.919  0.00  0.00    +0.085 C 
BRANCH   6   7
ATOM      7  C   UNL     1      34.374 -20.131 -20.630  0.00  0.00    +0.010 C 
ATOM      8  C   UNL     1      32.915 -20.327 -20.251  0.00  0.00    +0.001 C 
ENDBRANCH   6   7
ENDBRANCH   3   6
TORSDOF 2
ENDMDL
MODEL 3
REMARK VINA RESULT:      -4.1      5.715      6.664
REMARK  Name = 10927
REMARK  2 active torsions:
REMARK  status: ('A' for Active; 'I' for Inactive)
REMARK    1  A    between atoms: C_3  and  C_6
REMARK    2  A    between atoms: C_6  and  C_7
REMARK                            x       y       z     vdW  Elec       q    Type
REMARK                         _______ _______ _______ _____ _____    ______ ____
ROOT
ATOM      1  O   UNL     1      34.702 -16.797 -25.893  0.00  0.00    -0.275 OA
ATOM      2  N   UNL     1      35.395 -16.392 -23.737  0.00  0.00    -0.329 N 
ATOM      3  C   UNL     1      34.900 -17.190 -24.747  0.00  0.00    +0.219 C 
ATOM      4  H   UNL     1      35.609 -15.448 -23.918  0.00  0.00    +0.145 HD
ATOM      5  H   UNL     1      35.532 -16.765 -22.837  0.00  0.00    +0.145 HD
ENDROOT
BRANCH   3   6
ATOM      6  C   UNL     1      34.629 -18.607 -24.280  0.00  0.00    +0.085 C 
BRANCH   6   7
ATOM      7  C   UNL     1      35.273 -18.906 -22.930  0.00  0.00    +0.010 C 
ATOM      8  C   UNL     1      34.245 -19.376 -21.914  0.00  0.00    +0.001 C 
ENDBRANCH   6   7
ENDBRANCH   3   6
TORSDOF 2
ENDMDL
MODEL 4
REMARK VINA RESULT:      -4.0     11.311     11.624
REMARK  Name = 10927
REMARK  2 active torsions:
REMARK  status: ('A' for Active; 'I' for Inactive)
REMARK    1  A    between atoms: C_3  and  C_6
REMARK    2  A    between atoms: C_6  and  C_7
REMARK                            x       y       z     vdW  Elec       q    Type
REMARK                         _______ _______ _______ _____ _____    ______ ____
ROOT
ATOM      1  O   UNL     1      40.717 -15.205 -14.600  0.00  0.00    -0.275 OA
ATOM      2  N   UNL     1      40.623 -13.096 -13.687  0.00  0.00    -0.329 N 
ATOM      3  C   UNL     1      40.979 -14.007 -14.659  0.00  0.00    +0.219 C 
ATOM      4  H   UNL     1      40.133 -13.396 -12.888  0.00  0.00    +0.145 HD
ATOM      5  H   UNL     1      40.861 -12.146 -13.791  0.00  0.00    +0.145 HD
ENDROOT
BRANCH   3   6
ATOM      6  C   UNL     1      41.727 -13.360 -15.808  0.00  0.00    +0.085 C 
BRANCH   6   7
ATOM      7  C   UNL     1      42.130 -14.368 -16.879  0.00  0.00    +0.010 C 
ATOM      8  C   UNL     1      41.211 -14.297 -18.087  0.00  0.00    +0.001 C 
ENDBRANCH   6   7
ENDBRANCH   3   6
TORSDOF 2
ENDMDL
MODEL 5
REMARK VINA RESULT:      -4.0     10.545     10.837
REMARK  Name = 10927
REMARK  2 active torsions:
REMARK  status: ('A' for Active; 'I' for Inactive)
REMARK    1  A    between atoms: C_3  and  C_6
REMARK    2  A    between atoms: C_6  and  C_7
REMARK                            x       y       z     vdW  Elec       q    Type
REMARK                         _______ _______ _______ _____ _____    ______ ____
ROOT
ATOM      1  O   UNL     1      42.476 -16.700 -15.609  0.00  0.00    -0.275 OA
ATOM      2  N   UNL     1      40.619 -15.349 -15.483  0.00  0.00    -0.329 N 
ATOM      3  C   UNL     1      41.693 -15.916 -16.137  0.00  0.00    +0.219 C 
ATOM      4  H   UNL     1      40.448 -15.566 -14.538  0.00  0.00    +0.145 HD
ATOM      5  H   UNL     1      40.025 -14.725 -15.961  0.00  0.00    +0.145 HD
ENDROOT
BRANCH   3   6
ATOM      6  C   UNL     1      41.794 -15.461 -17.579  0.00  0.00    +0.085 C 
BRANCH   6   7
ATOM      7  C   UNL     1      41.198 -14.073 -17.794  0.00  0.00    +0.010 C 
ATOM      8  C   UNL     1      42.235 -12.983 -17.580  0.00  0.00    +0.001 C 
ENDBRANCH   6   7
ENDBRANCH   3   6
TORSDOF 2
ENDMDL
MODEL 6
REMARK VINA RESULT:      -4.0      2.152      2.893
REMARK  Name = 10927
REMARK  2 active torsions:
REMARK  status: ('A' for Active; 'I' for Inactive)
REMARK    1  A    between atoms: C_3  and  C_6
REMARK    2  A    between atoms: C_6  and  C_7
REMARK                            x       y       z     vdW  Elec       q    Type
REMARK                         _______ _______ _______ _____ _____    ______ ____
ROOT
ATOM      1  O   UNL     1      32.459 -20.115 -20.474  0.00  0.00    -0.275 OA
ATOM      2  N   UNL     1      33.024 -22.044 -19.356  0.00  0.00    -0.329 N 
ATOM      3  C   UNL     1      33.313 -20.869 -20.018  0.00  0.00    +0.219 C 
ATOM      4  H   UNL     1      32.087 -22.320 -19.231  0.00  0.00    +0.145 HD
ATOM      5  H   UNL     1      33.754 -22.608 -19.012  0.00  0.00    +0.145 HD
ENDROOT
BRANCH   3   6
ATOM      6  C   UNL     1      34.804 -20.615 -20.113  0.00  0.00    +0.085 C 
BRANCH   6   7
ATOM      7  C   UNL     1      35.628 -21.829 -19.696  0.00  0.00    +0.010 C 
ATOM      8  C   UNL     1      36.529 -21.513 -18.513  0.00  0.00    +0.001 C 
ENDBRANCH   6   7
ENDBRANCH   3   6
TORSDOF 2
ENDMDL
MODEL 7
REMARK VINA RESULT:      -4.0      8.826      9.206
REMARK  Name = 10927
REMARK  2 active torsions:
REMARK  status: ('A' for Active; 'I' for Inactive)
REMARK    1  A    between atoms: C_3  and  C_6
REMARK    2  A    between atoms: C_6  and  C_7
REMARK                            x       y       z     vdW  Elec       q    Type
REMARK                         _______ _______ _______ _____ _____    ______ ____
ROOT
ATOM      1  O   UNL     1      36.647 -25.925 -11.683  0.00  0.00    -0.275 OA
ATOM      2  N   UNL     1      37.055 -27.033 -13.657  0.00  0.00    -0.329 N 
ATOM      3  C   UNL     1      37.323 -26.081 -12.695  0.00  0.00    +0.219 C 
ATOM      4  H   UNL     1      36.283 -27.635 -13.551  0.00  0.00    +0.145 HD
ATOM      5  H   UNL     1      37.635 -27.110 -14.448  0.00  0.00    +0.145 HD
ENDROOT
BRANCH   3   6
ATOM      6  C   UNL     1      38.546 -25.252 -13.032  0.00  0.00    +0.085 C 
BRANCH   6   7
ATOM      7  C   UNL     1      39.029 -25.483 -14.460  0.00  0.00    +0.010 C 
ATOM      8  C   UNL     1      40.479 -25.938 -14.492  0.00  0.00    +0.001 C 
ENDBRANCH   6   7
ENDBRANCH   3   6
TORSDOF 2
ENDMDL
MODEL 8
REMARK VINA RESULT:      -3.9      7.415      8.217
REMARK  Name = 10927
REMARK  2 active torsions:
REMARK  status: ('A' for Active; 'I' for Inactive)
REMARK    1  A    between atoms: C_3  and  C_6
REMARK    2  A    between atoms: C_6  and  C_7
REMARK                            x       y       z     vdW  Elec       q    Type
REMARK                         _______ _______ _______ _____ _____    ______ ____
ROOT
ATOM      1  O   UNL     1      36.706 -27.351 -16.207  0.00  0.00    -0.275 OA
ATOM      2  N   UNL     1      35.600 -25.813 -14.902  0.00  0.00    -0.329 N 
ATOM      3  C   UNL     1      36.691 -26.581 -15.251  0.00  0.00    +0.219 C 
ATOM      4  H   UNL     1      34.771 -25.868 -15.431  0.00  0.00    +0.145 HD
ATOM      5  H   UNL     1      35.649 -25.213 -14.123  0.00  0.00    +0.145 HD
ENDROOT
BRANCH   3   6
ATOM      6  C   UNL     1      37.868 -26.363 -14.321  0.00  0.00    +0.085 C 
BRANCH   6   7
ATOM      7  C   UNL     1      37.432 -26.101 -12.883  0.00  0.00    +0.010 C 
ATOM      8  C   UNL     1      38.082 -24.847 -12.323  0.00  0.00    +0.001 C 
ENDBRANCH   6   7
ENDBRANCH   3   6
TORSDOF 2
ENDMDL
MODEL 9
REMARK VINA RESULT:      -3.9      6.221      6.975
REMARK  Name = 10927
REMARK  2 active torsions:
REMARK  status: ('A' for Active; 'I' for Inactive)
REMARK    1  A    between atoms: C_3  and  C_6
REMARK    2  A    between atoms: C_6  and  C_7
REMARK                            x       y       z     vdW  Elec       q    Type
REMARK                         _______ _______ _______ _____ _____    ______ ____
ROOT
ATOM      1  O   UNL     1      27.578 -23.605 -17.742  0.00  0.00    -0.275 OA
ATOM      2  N   UNL     1      27.170 -22.336 -15.868  0.00  0.00    -0.329 N 
ATOM      3  C   UNL     1      27.991 -22.988 -16.764  0.00  0.00    +0.219 C 
ATOM      4  H   UNL     1      26.194 -22.351 -15.994  0.00  0.00    +0.145 HD
ATOM      5  H   UNL     1      27.560 -21.857 -15.101  0.00  0.00    +0.145 HD
ENDROOT
BRANCH   3   6
ATOM      6  C   UNL     1      29.457 -22.854 -16.404  0.00  0.00    +0.085 C 
BRANCH   6   7
ATOM      7  C   UNL     1      29.777 -23.454 -15.039  0.00  0.00    +0.010 C 
ATOM      8  C   UNL     1      29.557 -24.958 -15.026  0.00  0.00    +0.001 C 
ENDBRANCH   6   7
ENDBRANCH   3   6
TORSDOF 2
ENDMDL
