MODEL 1
REMARK VINA RESULT:      -8.4      0.000      0.000
REMARK  Name = 445009
REMARK  11 active torsions:
REMARK  status: ('A' for Active; 'I' for Inactive)
REMARK    1  A    between atoms: C_2  and  C_10
REMARK    2  A    between atoms: C_3  and  C_21
REMARK    3  A    between atoms: C_4  and  O_8
REMARK    4  A    between atoms: C_10  and  N_11
REMARK    5  A    between atoms: N_11  and  C_14
REMARK    6  A    between atoms: C_14  and  C_18
REMARK    7  A    between atoms: C_18  and  O_19
REMARK    8  A    between atoms: C_21  and  O_22
REMARK    9  A    between atoms: O_22  and  P_23
REMARK   10  A    between atoms: P_23  and  O_25
REMARK   11  A    between atoms: P_23  and  O_27
REMARK                            x       y       z     vdW  Elec       q    Type
REMARK                         _______ _______ _______ _____ _____    ______ ____
ROOT
ATOM      1  N   UNL     1      35.637 -22.947 -16.845  0.00  0.00    -0.245 NA
ATOM      2  C   UNL     1      33.175 -23.423 -15.638  0.00  0.00    -0.009 C 
ATOM      3  C   UNL     1      34.343 -23.646 -14.927  0.00  0.00    +0.024 C 
ATOM      4  C   UNL     1      33.222 -22.965 -16.944  0.00  0.00    +0.141 C 
ATOM      5  C   UNL     1      34.472 -22.743 -17.499  0.00  0.00    +0.092 C 
ATOM      6  C   UNL     1      35.543 -23.394 -15.573  0.00  0.00    +0.096 C 
ATOM      7  C   UNL     1      34.591 -22.250 -18.904  0.00  0.00    +0.055 C 
ENDROOT
BRANCH   4   8
ATOM      8  O   UNL     1      32.088 -22.741 -17.657  0.00  0.00    -0.505 OA
ATOM      9  H   UNL     1      31.395 -23.373 -17.649  0.00  0.00    +0.292 HD
ENDBRANCH   4   8
BRANCH   2  10
ATOM     10  C   UNL     1      31.841 -23.680 -14.988  0.00  0.00    -0.050 C 
BRANCH  10  11
ATOM     11  N   UNL     1      30.887 -24.259 -15.919  0.00  0.00    +0.396 N 
ATOM     12  H   UNL     1      31.071 -23.897 -16.855  0.00  0.00    -0.083 HD
ATOM     13  H   UNL     1      30.990 -25.274 -15.905  0.00  0.00    -0.083 HD
BRANCH  11  14
ATOM     14  C   UNL     1      29.516 -23.918 -15.532  0.00  0.00    +0.046 C 
ATOM     15  C   UNL     1      28.903 -25.101 -14.774  0.00  0.00    -0.011 C 
ATOM     16  C   UNL     1      29.523 -22.666 -14.651  0.00  0.00    -0.011 C 
BRANCH  14  18
ATOM     17  O   UNL     1      27.911 -24.402 -17.301  0.00  0.00    -0.253 OA
ATOM     18  C   UNL     1      28.723 -23.630 -16.803  0.00  0.00    +0.295 C 
BRANCH  18  19
ATOM     19  O   UNL     1      28.962 -22.397 -17.323  0.00  0.00    -0.482 OA
ATOM     20  H   UNL     1      29.358 -22.314 -18.168  0.00  0.00    +0.295 HD
ENDBRANCH  18  19
ENDBRANCH  14  18
ENDBRANCH  11  14
ENDBRANCH  10  11
ENDBRANCH   2  10
BRANCH   3  21
ATOM     21  C   UNL     1      34.340 -24.137 -13.522  0.00  0.00    +0.181 C 
BRANCH  21  22
ATOM     22  O   UNL     1      35.504 -23.667 -12.852  0.00  0.00    -0.268 OA
BRANCH  22  23
ATOM     23  P   UNL     1      36.299 -24.690 -11.886  0.00  0.00    +0.473 P 
ATOM     24  O   UNL     1      37.590 -24.165 -11.328  0.00  0.00    -0.227 OA
BRANCH  23  25
ATOM     25  O   UNL     1      36.426 -26.036 -12.771  0.00  0.00    -0.303 OA
ATOM     26  H   UNL     1      36.199 -26.805 -12.226  0.00  0.00    +0.222 HD
ENDBRANCH  23  25
BRANCH  23  27
ATOM     27  O   UNL     1      35.184 -25.074 -10.781  0.00  0.00    -0.303 OA
ATOM     28  H   UNL     1      35.408 -24.654  -9.935  0.00  0.00    +0.222 HD
ENDBRANCH  23  27
ENDBRANCH  22  23
ENDBRANCH  21  22
ENDBRANCH   3  21
TORSDOF 11
ENDMDL
MODEL 2
REMARK VINA RESULT:      -8.4      3.349      6.623
REMARK  Name = 445009
REMARK  11 active torsions:
REMARK  status: ('A' for Active; 'I' for Inactive)
REMARK    1  A    between atoms: C_2  and  C_10
REMARK    2  A    between atoms: C_3  and  C_21
REMARK    3  A    between atoms: C_4  and  O_8
REMARK    4  A    between atoms: C_10  and  N_11
REMARK    5  A    between atoms: N_11  and  C_14
REMARK    6  A    between atoms: C_14  and  C_18
REMARK    7  A    between atoms: C_18  and  O_19
REMARK    8  A    between atoms: C_21  and  O_22
REMARK    9  A    between atoms: O_22  and  P_23
REMARK   10  A    between atoms: P_23  and  O_25
REMARK   11  A    between atoms: P_23  and  O_27
REMARK                            x       y       z     vdW  Elec       q    Type
REMARK                         _______ _______ _______ _____ _____    ______ ____
ROOT
ATOM      1  N   UNL     1      33.695 -22.706 -17.994  0.00  0.00    -0.245 NA
ATOM      2  C   UNL     1      35.660 -23.019 -16.047  0.00  0.00    -0.009 C 
ATOM      3  C   UNL     1      34.381 -23.501 -15.816  0.00  0.00    +0.024 C 
ATOM      4  C   UNL     1      35.968 -22.383 -17.238  0.00  0.00    +0.141 C 
ATOM      5  C   UNL     1      34.956 -22.252 -18.174  0.00  0.00    +0.092 C 
ATOM      6  C   UNL     1      33.440 -23.320 -16.817  0.00  0.00    +0.096 C 
ATOM      7  C   UNL     1      35.223 -21.575 -19.479  0.00  0.00    +0.055 C 
ENDROOT
BRANCH   4   8
ATOM      8  O   UNL     1      37.216 -21.904 -17.482  0.00  0.00    -0.505 OA
ATOM      9  H   UNL     1      37.879 -21.965 -16.822  0.00  0.00    +0.292 HD
ENDBRANCH   4   8
BRANCH   2  10
ATOM     10  C   UNL     1      36.725 -23.187 -14.996  0.00  0.00    -0.050 C 
BRANCH  10  11
ATOM     11  N   UNL     1      37.922 -23.811 -15.533  0.00  0.00    +0.396 N 
ATOM     12  H   UNL     1      37.724 -24.164 -16.469  0.00  0.00    -0.083 HD
ATOM     13  H   UNL     1      38.668 -23.116 -15.567  0.00  0.00    -0.083 HD
BRANCH  11  14
ATOM     14  C   UNL     1      38.351 -24.923 -14.680  0.00  0.00    +0.046 C 
ATOM     15  C   UNL     1      38.082 -24.560 -13.215  0.00  0.00    -0.011 C 
ATOM     16  C   UNL     1      37.589 -26.193 -15.064  0.00  0.00    -0.011 C 
BRANCH  14  18
ATOM     17  O   UNL     1      40.720 -24.821 -14.116  0.00  0.00    -0.253 OA
ATOM     18  C   UNL     1      39.843 -25.146 -14.909  0.00  0.00    +0.295 C 
BRANCH  18  19
ATOM     19  O   UNL     1      40.122 -25.794 -16.071  0.00  0.00    -0.482 OA
ATOM     20  H   UNL     1      39.424 -26.094 -16.618  0.00  0.00    +0.295 HD
ENDBRANCH  18  19
ENDBRANCH  14  18
ENDBRANCH  11  14
ENDBRANCH  10  11
ENDBRANCH   2  10
BRANCH   3  21
ATOM     21  C   UNL     1      34.005 -24.191 -14.552  0.00  0.00    +0.181 C 
BRANCH  21  22
ATOM     22  O   UNL     1      32.643 -24.597 -14.621  0.00  0.00    -0.268 OA
BRANCH  22  23
ATOM     23  P   UNL     1      31.551 -23.766 -13.764  0.00  0.00    +0.473 P 
ATOM     24  O   UNL     1      30.648 -22.882 -14.573  0.00  0.00    -0.227 OA
BRANCH  23  25
ATOM     25  O   UNL     1      32.437 -23.010 -12.643  0.00  0.00    -0.303 OA
ATOM     26  H   UNL     1      32.991 -22.337 -13.067  0.00  0.00    +0.222 HD
ENDBRANCH  23  25
BRANCH  23  27
ATOM     27  O   UNL     1      30.800 -24.926 -12.926  0.00  0.00    -0.303 OA
ATOM     28  H   UNL     1      30.410 -25.568 -13.539  0.00  0.00    +0.222 HD
ENDBRANCH  23  27
ENDBRANCH  22  23
ENDBRANCH  21  22
ENDBRANCH   3  21
TORSDOF 11
ENDMDL
MODEL 3
REMARK VINA RESULT:      -8.2      1.834      2.217
REMARK  Name = 445009
REMARK  11 active torsions:
REMARK  status: ('A' for Active; 'I' for Inactive)
REMARK    1  A    between atoms: C_2  and  C_10
REMARK    2  A    between atoms: C_3  and  C_21
REMARK    3  A    between atoms: C_4  and  O_8
REMARK    4  A    between atoms: C_10  and  N_11
REMARK    5  A    between atoms: N_11  and  C_14
REMARK    6  A    between atoms: C_14  and  C_18
REMARK    7  A    between atoms: C_18  and  O_19
REMARK    8  A    between atoms: C_21  and  O_22
REMARK    9  A    between atoms: O_22  and  P_23
REMARK   10  A    between atoms: P_23  and  O_25
REMARK   11  A    between atoms: P_23  and  O_27
REMARK                            x       y       z     vdW  Elec       q    Type
REMARK                         _______ _______ _______ _____ _____    ______ ____
ROOT
ATOM      1  N   UNL     1      36.353 -21.784 -18.012  0.00  0.00    -0.245 NA
ATOM      2  C   UNL     1      33.965 -23.035 -17.318  0.00  0.00    -0.009 C 
ATOM      3  C   UNL     1      35.039 -23.070 -16.443  0.00  0.00    +0.024 C 
ATOM      4  C   UNL     1      34.070 -22.382 -18.535  0.00  0.00    +0.141 C 
ATOM      5  C   UNL     1      35.279 -21.775 -18.833  0.00  0.00    +0.092 C 
ATOM      6  C   UNL     1      36.205 -22.433 -16.835  0.00  0.00    +0.096 C 
ATOM      7  C   UNL     1      35.457 -21.056 -20.130  0.00  0.00    +0.055 C 
ENDROOT
BRANCH   4   8
ATOM      8  O   UNL     1      33.028 -22.337 -19.405  0.00  0.00    -0.505 OA
ATOM      9  H   UNL     1      32.768 -21.520 -19.784  0.00  0.00    +0.292 HD
ENDBRANCH   4   8
BRANCH   2  10
ATOM     10  C   UNL     1      32.672 -23.710 -16.946  0.00  0.00    -0.050 C 
BRANCH  10  11
ATOM     11  N   UNL     1      31.557 -22.779 -16.937  0.00  0.00    +0.396 N 
ATOM     12  H   UNL     1      31.911 -21.834 -16.786  0.00  0.00    -0.083 HD
ATOM     13  H   UNL     1      31.073 -22.836 -17.833  0.00  0.00    -0.083 HD
BRANCH  11  14
ATOM     14  C   UNL     1      30.612 -23.115 -15.868  0.00  0.00    +0.046 C 
ATOM     15  C   UNL     1      30.447 -24.637 -15.809  0.00  0.00    -0.011 C 
ATOM     16  C   UNL     1      31.133 -22.582 -14.531  0.00  0.00    -0.011 C 
BRANCH  14  18
ATOM     17  O   UNL     1      28.768 -22.420 -17.301  0.00  0.00    -0.253 OA
ATOM     18  C   UNL     1      29.279 -22.446 -16.187  0.00  0.00    +0.295 C 
BRANCH  18  19
ATOM     19  O   UNL     1      28.667 -21.910 -15.098  0.00  0.00    -0.482 OA
ATOM     20  H   UNL     1      28.067 -22.425 -14.597  0.00  0.00    +0.295 HD
ENDBRANCH  18  19
ENDBRANCH  14  18
ENDBRANCH  11  14
ENDBRANCH  10  11
ENDBRANCH   2  10
BRANCH   3  21
ATOM     21  C   UNL     1      34.972 -23.759 -15.125  0.00  0.00    +0.181 C 
BRANCH  21  22
ATOM     22  O   UNL     1      35.355 -25.120 -15.281  0.00  0.00    -0.268 OA
BRANCH  22  23
ATOM     23  P   UNL     1      36.814 -25.572 -14.751  0.00  0.00    +0.473 P 
ATOM     24  O   UNL     1      37.758 -24.445 -14.450  0.00  0.00    -0.227 OA
BRANCH  23  25
ATOM     25  O   UNL     1      37.323 -26.620 -15.871  0.00  0.00    -0.303 OA
ATOM     26  H   UNL     1      36.636 -27.286 -16.028  0.00  0.00    +0.222 HD
ENDBRANCH  23  25
BRANCH  23  27
ATOM     27  O   UNL     1      36.457 -26.519 -13.490  0.00  0.00    -0.303 OA
ATOM     28  H   UNL     1      36.675 -26.056 -12.666  0.00  0.00    +0.222 HD
ENDBRANCH  23  27
ENDBRANCH  22  23
ENDBRANCH  21  22
ENDBRANCH   3  21
TORSDOF 11
ENDMDL
MODEL 4
REMARK VINA RESULT:      -8.1      2.188      2.963
REMARK  Name = 445009
REMARK  11 active torsions:
REMARK  status: ('A' for Active; 'I' for Inactive)
REMARK    1  A    between atoms: C_2  and  C_10
REMARK    2  A    between atoms: C_3  and  C_21
REMARK    3  A    between atoms: C_4  and  O_8
REMARK    4  A    between atoms: C_10  and  N_11
REMARK    5  A    between atoms: N_11  and  C_14
REMARK    6  A    between atoms: C_14  and  C_18
REMARK    7  A    between atoms: C_18  and  O_19
REMARK    8  A    between atoms: C_21  and  O_22
REMARK    9  A    between atoms: O_22  and  P_23
REMARK   10  A    between atoms: P_23  and  O_25
REMARK   11  A    between atoms: P_23  and  O_27
REMARK                            x       y       z     vdW  Elec       q    Type
REMARK                         _______ _______ _______ _____ _____    ______ ____
ROOT
ATOM      1  N   UNL     1      36.256 -22.115 -17.712  0.00  0.00    -0.245 NA
ATOM      2  C   UNL     1      33.919 -23.283 -16.750  0.00  0.00    -0.009 C 
ATOM      3  C   UNL     1      35.089 -23.382 -16.016  0.00  0.00    +0.024 C 
ATOM      4  C   UNL     1      33.902 -22.608 -17.959  0.00  0.00    +0.141 C 
ATOM      5  C   UNL     1      35.090 -22.044 -18.394  0.00  0.00    +0.092 C 
ATOM      6  C   UNL     1      36.225 -22.784 -16.538  0.00  0.00    +0.096 C 
ATOM      7  C   UNL     1      35.139 -21.303 -19.690  0.00  0.00    +0.055 C 
ENDROOT
BRANCH   4   8
ATOM      8  O   UNL     1      32.764 -22.499 -18.693  0.00  0.00    -0.505 OA
ATOM      9  H   UNL     1      31.950 -22.807 -18.345  0.00  0.00    +0.292 HD
ENDBRANCH   4   8
BRANCH   2  10
ATOM     10  C   UNL     1      32.653 -23.913 -16.233  0.00  0.00    -0.050 C 
BRANCH  10  11
ATOM     11  N   UNL     1      31.715 -22.919 -15.740  0.00  0.00    +0.396 N 
ATOM     12  H   UNL     1      32.208 -22.267 -15.130  0.00  0.00    -0.083 HD
ATOM     13  H   UNL     1      31.313 -22.424 -16.535  0.00  0.00    -0.083 HD
BRANCH  11  14
ATOM     14  C   UNL     1      30.633 -23.560 -14.986  0.00  0.00    +0.046 C 
ATOM     15  C   UNL     1      29.424 -22.619 -14.953  0.00  0.00    -0.011 C 
ATOM     16  C   UNL     1      30.259 -24.888 -15.647  0.00  0.00    -0.011 C 
BRANCH  14  18
ATOM     17  O   UNL     1      31.851 -23.063 -12.935  0.00  0.00    -0.253 OA
ATOM     18  C   UNL     1      31.138 -23.829 -13.571  0.00  0.00    +0.295 C 
BRANCH  18  19
ATOM     19  O   UNL     1      30.679 -24.996 -13.046  0.00  0.00    -0.482 OA
ATOM     20  H   UNL     1      31.190 -25.777 -13.125  0.00  0.00    +0.295 HD
ENDBRANCH  18  19
ENDBRANCH  14  18
ENDBRANCH  11  14
ENDBRANCH  10  11
ENDBRANCH   2  10
BRANCH   3  21
ATOM     21  C   UNL     1      35.155 -24.098 -14.712  0.00  0.00    +0.181 C 
BRANCH  21  22
ATOM     22  O   UNL     1      36.485 -24.552 -14.486  0.00  0.00    -0.268 OA
BRANCH  22  23
ATOM     23  P   UNL     1      36.839 -26.091 -14.830  0.00  0.00    +0.473 P 
ATOM     24  O   UNL     1      35.985 -26.717 -15.894  0.00  0.00    -0.227 OA
BRANCH  23  25
ATOM     25  O   UNL     1      36.800 -26.826 -13.391  0.00  0.00    -0.303 OA
ATOM     26  H   UNL     1      37.650 -26.702 -12.941  0.00  0.00    +0.222 HD
ENDBRANCH  23  25
BRANCH  23  27
ATOM     27  O   UNL     1      38.417 -26.024 -15.172  0.00  0.00    -0.303 OA
ATOM     28  H   UNL     1      38.894 -26.671 -14.628  0.00  0.00    +0.222 HD
ENDBRANCH  23  27
ENDBRANCH  22  23
ENDBRANCH  21  22
ENDBRANCH   3  21
TORSDOF 11
ENDMDL
MODEL 5
REMARK VINA RESULT:      -8.1      2.995      6.932
REMARK  Name = 445009
REMARK  11 active torsions:
REMARK  status: ('A' for Active; 'I' for Inactive)
REMARK    1  A    between atoms: C_2  and  C_10
REMARK    2  A    between atoms: C_3  and  C_21
REMARK    3  A    between atoms: C_4  and  O_8
REMARK    4  A    between atoms: C_10  and  N_11
REMARK    5  A    between atoms: N_11  and  C_14
REMARK    6  A    between atoms: C_14  and  C_18
REMARK    7  A    between atoms: C_18  and  O_19
REMARK    8  A    between atoms: C_21  and  O_22
REMARK    9  A    between atoms: O_22  and  P_23
REMARK   10  A    between atoms: P_23  and  O_25
REMARK   11  A    between atoms: P_23  and  O_27
REMARK                            x       y       z     vdW  Elec       q    Type
REMARK                         _______ _______ _______ _____ _____    ______ ____
ROOT
ATOM      1  N   UNL     1      31.144 -23.728 -15.677  0.00  0.00    -0.245 NA
ATOM      2  C   UNL     1      33.796 -24.019 -14.882  0.00  0.00    -0.009 C 
ATOM      3  C   UNL     1      33.506 -23.459 -16.116  0.00  0.00    +0.024 C 
ATOM      4  C   UNL     1      32.777 -24.436 -14.041  0.00  0.00    +0.141 C 
ATOM      5  C   UNL     1      31.475 -24.268 -14.483  0.00  0.00    +0.092 C 
ATOM      6  C   UNL     1      32.171 -23.337 -16.465  0.00  0.00    +0.096 C 
ATOM      7  C   UNL     1      30.331 -24.697 -13.623  0.00  0.00    +0.055 C 
ENDROOT
BRANCH   4   8
ATOM      8  O   UNL     1      33.042 -24.986 -12.828  0.00  0.00    -0.505 OA
ATOM      9  H   UNL     1      32.514 -24.764 -12.086  0.00  0.00    +0.292 HD
ENDBRANCH   4   8
BRANCH   2  10
ATOM     10  C   UNL     1      35.229 -24.179 -14.449  0.00  0.00    -0.050 C 
BRANCH  10  11
ATOM     11  N   UNL     1      35.532 -23.380 -13.274  0.00  0.00    +0.396 N 
ATOM     12  H   UNL     1      35.737 -22.423 -13.563  0.00  0.00    -0.083 HD
ATOM     13  H   UNL     1      34.726 -23.395 -12.649  0.00  0.00    -0.083 HD
BRANCH  11  14
ATOM     14  C   UNL     1      36.691 -23.927 -12.562  0.00  0.00    +0.046 C 
ATOM     15  C   UNL     1      37.724 -24.406 -13.588  0.00  0.00    -0.011 C 
ATOM     16  C   UNL     1      37.296 -22.852 -11.657  0.00  0.00    -0.011 C 
BRANCH  14  18
ATOM     17  O   UNL     1      35.364 -24.999 -10.822  0.00  0.00    -0.253 OA
ATOM     18  C   UNL     1      36.211 -25.093 -11.703  0.00  0.00    +0.295 C 
BRANCH  18  19
ATOM     19  O   UNL     1      36.781 -26.281 -12.036  0.00  0.00    -0.482 OA
ATOM     20  H   UNL     1      37.247 -26.774 -11.390  0.00  0.00    +0.295 HD
ENDBRANCH  18  19
ENDBRANCH  14  18
ENDBRANCH  11  14
ENDBRANCH  10  11
ENDBRANCH   2  10
BRANCH   3  21
ATOM     21  C   UNL     1      34.568 -22.998 -17.052  0.00  0.00    +0.181 C 
BRANCH  21  22
ATOM     22  O   UNL     1      34.038 -21.998 -17.915  0.00  0.00    -0.268 OA
BRANCH  22  23
ATOM     23  P   UNL     1      34.187 -22.205 -19.511  0.00  0.00    +0.473 P 
ATOM     24  O   UNL     1      35.407 -21.582 -20.122  0.00  0.00    -0.227 OA
BRANCH  23  25
ATOM     25  O   UNL     1      32.775 -21.683 -20.100  0.00  0.00    -0.303 OA
ATOM     26  H   UNL     1      32.309 -21.173 -19.420  0.00  0.00    +0.222 HD
ENDBRANCH  23  25
BRANCH  23  27
ATOM     27  O   UNL     1      34.087 -23.811 -19.672  0.00  0.00    -0.303 OA
ATOM     28  H   UNL     1      34.859 -24.226 -19.258  0.00  0.00    +0.222 HD
ENDBRANCH  23  27
ENDBRANCH  22  23
ENDBRANCH  21  22
ENDBRANCH   3  21
TORSDOF 11
ENDMDL
MODEL 6
REMARK VINA RESULT:      -8.1      1.695      2.210
REMARK  Name = 445009
REMARK  11 active torsions:
REMARK  status: ('A' for Active; 'I' for Inactive)
REMARK    1  A    between atoms: C_2  and  C_10
REMARK    2  A    between atoms: C_3  and  C_21
REMARK    3  A    between atoms: C_4  and  O_8
REMARK    4  A    between atoms: C_10  and  N_11
REMARK    5  A    between atoms: N_11  and  C_14
REMARK    6  A    between atoms: C_14  and  C_18
REMARK    7  A    between atoms: C_18  and  O_19
REMARK    8  A    between atoms: C_21  and  O_22
REMARK    9  A    between atoms: O_22  and  P_23
REMARK   10  A    between atoms: P_23  and  O_25
REMARK   11  A    between atoms: P_23  and  O_27
REMARK                            x       y       z     vdW  Elec       q    Type
REMARK                         _______ _______ _______ _____ _____    ______ ____
ROOT
ATOM      1  N   UNL     1      36.328 -22.290 -17.205  0.00  0.00    -0.245 NA
ATOM      2  C   UNL     1      33.848 -23.351 -16.516  0.00  0.00    -0.009 C 
ATOM      3  C   UNL     1      34.907 -23.443 -15.626  0.00  0.00    +0.024 C 
ATOM      4  C   UNL     1      34.014 -22.735 -17.745  0.00  0.00    +0.141 C 
ATOM      5  C   UNL     1      35.267 -22.222 -18.041  0.00  0.00    +0.092 C 
ATOM      6  C   UNL     1      36.120 -22.900 -16.017  0.00  0.00    +0.096 C 
ATOM      7  C   UNL     1      35.511 -21.547 -19.350  0.00  0.00    +0.055 C 
ENDROOT
BRANCH   4   8
ATOM      8  O   UNL     1      32.988 -22.634 -18.630  0.00  0.00    -0.505 OA
ATOM      9  H   UNL     1      32.860 -23.299 -19.278  0.00  0.00    +0.292 HD
ENDBRANCH   4   8
BRANCH   2  10
ATOM     10  C   UNL     1      32.506 -23.924 -16.146  0.00  0.00    -0.050 C 
BRANCH  10  11
ATOM     11  N   UNL     1      31.583 -22.895 -15.698  0.00  0.00    +0.396 N 
ATOM     12  H   UNL     1      32.072 -22.257 -15.070  0.00  0.00    -0.083 HD
ATOM     13  H   UNL     1      31.232 -22.391 -16.512  0.00  0.00    -0.083 HD
BRANCH  11  14
ATOM     14  C   UNL     1      30.448 -23.494 -14.989  0.00  0.00    +0.046 C 
ATOM     15  C   UNL     1      29.311 -22.469 -14.914  0.00  0.00    -0.011 C 
ATOM     16  C   UNL     1      29.985 -24.753 -15.725  0.00  0.00    -0.011 C 
BRANCH  14  18
ATOM     17  O   UNL     1      31.610 -23.164 -12.873  0.00  0.00    -0.253 OA
ATOM     18  C   UNL     1      30.915 -23.876 -13.588  0.00  0.00    +0.295 C 
BRANCH  18  19
ATOM     19  O   UNL     1      30.444 -25.082 -13.171  0.00  0.00    -0.482 OA
ATOM     20  H   UNL     1      30.634 -25.384 -12.305  0.00  0.00    +0.295 HD
ENDBRANCH  18  19
ENDBRANCH  14  18
ENDBRANCH  11  14
ENDBRANCH  10  11
ENDBRANCH   2  10
BRANCH   3  21
ATOM     21  C   UNL     1      34.775 -24.096 -14.295  0.00  0.00    +0.181 C 
BRANCH  21  22
ATOM     22  O   UNL     1      35.942 -23.839 -13.523  0.00  0.00    -0.268 OA
BRANCH  22  23
ATOM     23  P   UNL     1      36.248 -24.792 -12.254  0.00  0.00    +0.473 P 
ATOM     24  O   UNL     1      37.308 -24.287 -11.319  0.00  0.00    -0.227 OA
BRANCH  23  25
ATOM     25  O   UNL     1      36.543 -26.236 -12.919  0.00  0.00    -0.303 OA
ATOM     26  H   UNL     1      37.214 -26.142 -13.613  0.00  0.00    +0.222 HD
ENDBRANCH  23  25
BRANCH  23  27
ATOM     27  O   UNL     1      34.786 -24.981 -11.590  0.00  0.00    -0.303 OA
ATOM     28  H   UNL     1      34.653 -24.309 -10.903  0.00  0.00    +0.222 HD
ENDBRANCH  23  27
ENDBRANCH  22  23
ENDBRANCH  21  22
ENDBRANCH   3  21
TORSDOF 11
ENDMDL
MODEL 7
REMARK VINA RESULT:      -8.0      3.262      6.908
REMARK  Name = 445009
REMARK  11 active torsions:
REMARK  status: ('A' for Active; 'I' for Inactive)
REMARK    1  A    between atoms: C_2  and  C_10
REMARK    2  A    between atoms: C_3  and  C_21
REMARK    3  A    between atoms: C_4  and  O_8
REMARK    4  A    between atoms: C_10  and  N_11
REMARK    5  A    between atoms: N_11  and  C_14
REMARK    6  A    between atoms: C_14  and  C_18
REMARK    7  A    between atoms: C_18  and  O_19
REMARK    8  A    between atoms: C_21  and  O_22
REMARK    9  A    between atoms: O_22  and  P_23
REMARK   10  A    between atoms: P_23  and  O_25
REMARK   11  A    between atoms: P_23  and  O_27
REMARK                            x       y       z     vdW  Elec       q    Type
REMARK                         _______ _______ _______ _____ _____    ______ ____
ROOT
ATOM      1  N   UNL     1      31.016 -23.809 -16.007  0.00  0.00    -0.245 NA
ATOM      2  C   UNL     1      33.540 -24.058 -14.859  0.00  0.00    -0.009 C 
ATOM      3  C   UNL     1      33.407 -23.464 -16.105  0.00  0.00    +0.024 C 
ATOM      4  C   UNL     1      32.428 -24.528 -14.181  0.00  0.00    +0.141 C 
ATOM      5  C   UNL     1      31.195 -24.380 -14.794  0.00  0.00    +0.092 C 
ATOM      6  C   UNL     1      32.130 -23.365 -16.632  0.00  0.00    +0.096 C 
ATOM      7  C   UNL     1      29.957 -24.866 -14.115  0.00  0.00    +0.055 C 
ENDROOT
BRANCH   4   8
ATOM      8  O   UNL     1      32.540 -25.112 -12.960  0.00  0.00    -0.505 OA
ATOM      9  H   UNL     1      32.143 -25.946 -12.800  0.00  0.00    +0.292 HD
ENDBRANCH   4   8
BRANCH   2  10
ATOM     10  C   UNL     1      34.904 -24.194 -14.236  0.00  0.00    -0.050 C 
BRANCH  10  11
ATOM     11  N   UNL     1      35.424 -25.545 -14.360  0.00  0.00    +0.396 N 
ATOM     12  H   UNL     1      35.025 -26.126 -13.622  0.00  0.00    -0.083 HD
ATOM     13  H   UNL     1      35.169 -25.913 -15.276  0.00  0.00    -0.083 HD
BRANCH  11  14
ATOM     14  C   UNL     1      36.885 -25.549 -14.239  0.00  0.00    +0.046 C 
ATOM     15  C   UNL     1      37.434 -24.228 -14.789  0.00  0.00    -0.011 C 
ATOM     16  C   UNL     1      37.281 -25.723 -12.772  0.00  0.00    -0.011 C 
BRANCH  14  18
ATOM     17  O   UNL     1      38.398 -27.397 -14.725  0.00  0.00    -0.253 OA
ATOM     18  C   UNL     1      37.422 -26.728 -15.046  0.00  0.00    +0.295 C 
BRANCH  18  19
ATOM     19  O   UNL     1      36.683 -27.010 -16.151  0.00  0.00    -0.482 OA
ATOM     20  H   UNL     1      35.978 -27.625 -16.098  0.00  0.00    +0.295 HD
ENDBRANCH  18  19
ENDBRANCH  14  18
ENDBRANCH  11  14
ENDBRANCH  10  11
ENDBRANCH   2  10
BRANCH   3  21
ATOM     21  C   UNL     1      34.574 -22.945 -16.870  0.00  0.00    +0.181 C 
BRANCH  21  22
ATOM     22  O   UNL     1      34.122 -22.023 -17.855  0.00  0.00    -0.268 OA
BRANCH  22  23
ATOM     23  P   UNL     1      34.136 -22.487 -19.403  0.00  0.00    +0.473 P 
ATOM     24  O   UNL     1      34.079 -23.971 -19.623  0.00  0.00    -0.227 OA
BRANCH  23  25
ATOM     25  O   UNL     1      35.435 -21.747 -20.016  0.00  0.00    -0.303 OA
ATOM     26  H   UNL     1      35.670 -20.990 -19.458  0.00  0.00    +0.222 HD
ENDBRANCH  23  25
BRANCH  23  27
ATOM     27  O   UNL     1      32.901 -21.656 -20.035  0.00  0.00    -0.303 OA
ATOM     28  H   UNL     1      32.277 -22.270 -20.451  0.00  0.00    +0.222 HD
ENDBRANCH  23  27
ENDBRANCH  22  23
ENDBRANCH  21  22
ENDBRANCH   3  21
TORSDOF 11
ENDMDL
MODEL 8
REMARK VINA RESULT:      -7.6      2.810      5.182
REMARK  Name = 445009
REMARK  11 active torsions:
REMARK  status: ('A' for Active; 'I' for Inactive)
REMARK    1  A    between atoms: C_2  and  C_10
REMARK    2  A    between atoms: C_3  and  C_21
REMARK    3  A    between atoms: C_4  and  O_8
REMARK    4  A    between atoms: C_10  and  N_11
REMARK    5  A    between atoms: N_11  and  C_14
REMARK    6  A    between atoms: C_14  and  C_18
REMARK    7  A    between atoms: C_18  and  O_19
REMARK    8  A    between atoms: C_21  and  O_22
REMARK    9  A    between atoms: O_22  and  P_23
REMARK   10  A    between atoms: P_23  and  O_25
REMARK   11  A    between atoms: P_23  and  O_27
REMARK                            x       y       z     vdW  Elec       q    Type
REMARK                         _______ _______ _______ _____ _____    ______ ____
ROOT
ATOM      1  N   UNL     1      37.603 -24.530 -14.345  0.00  0.00    -0.245 NA
ATOM      2  C   UNL     1      34.991 -23.606 -14.614  0.00  0.00    -0.009 C 
ATOM      3  C   UNL     1      35.932 -23.298 -15.584  0.00  0.00    +0.024 C 
ATOM      4  C   UNL     1      35.340 -24.369 -13.512  0.00  0.00    +0.141 C 
ATOM      5  C   UNL     1      36.652 -24.805 -13.425  0.00  0.00    +0.092 C 
ATOM      6  C   UNL     1      37.218 -23.782 -15.403  0.00  0.00    +0.096 C 
ATOM      7  C   UNL     1      37.091 -25.632 -12.262  0.00  0.00    +0.055 C 
ENDROOT
BRANCH   4   8
ATOM      8  O   UNL     1      34.431 -24.681 -12.552  0.00  0.00    -0.505 OA
ATOM      9  H   UNL     1      33.951 -25.484 -12.603  0.00  0.00    +0.292 HD
ENDBRANCH   4   8
BRANCH   2  10
ATOM     10  C   UNL     1      33.577 -23.108 -14.756  0.00  0.00    -0.050 C 
BRANCH  10  11
ATOM     11  N   UNL     1      32.702 -24.117 -15.326  0.00  0.00    +0.396 N 
ATOM     12  H   UNL     1      32.758 -24.072 -16.344  0.00  0.00    -0.083 HD
ATOM     13  H   UNL     1      32.999 -25.035 -14.996  0.00  0.00    -0.083 HD
BRANCH  11  14
ATOM     14  C   UNL     1      31.315 -23.891 -14.911  0.00  0.00    +0.046 C 
ATOM     15  C   UNL     1      31.209 -22.510 -14.256  0.00  0.00    -0.011 C 
ATOM     16  C   UNL     1      30.390 -23.978 -16.127  0.00  0.00    -0.011 C 
BRANCH  14  18
ATOM     17  O   UNL     1      31.637 -25.334 -12.974  0.00  0.00    -0.253 OA
ATOM     18  C   UNL     1      30.935 -24.984 -13.916  0.00  0.00    +0.295 C 
BRANCH  18  19
ATOM     19  O   UNL     1      29.703 -25.515 -14.138  0.00  0.00    -0.482 OA
ATOM     20  H   UNL     1      29.608 -26.438 -14.263  0.00  0.00    +0.295 HD
ENDBRANCH  18  19
ENDBRANCH  14  18
ENDBRANCH  11  14
ENDBRANCH  10  11
ENDBRANCH   2  10
BRANCH   3  21
ATOM     21  C   UNL     1      35.603 -22.481 -16.784  0.00  0.00    +0.181 C 
BRANCH  21  22
ATOM     22  O   UNL     1      34.605 -23.145 -17.551  0.00  0.00    -0.268 OA
BRANCH  22  23
ATOM     23  P   UNL     1      34.126 -22.466 -18.938  0.00  0.00    +0.473 P 
ATOM     24  O   UNL     1      34.958 -21.304 -19.398  0.00  0.00    -0.227 OA
BRANCH  23  25
ATOM     25  O   UNL     1      32.562 -22.140 -18.686  0.00  0.00    -0.303 OA
ATOM     26  H   UNL     1      32.361 -22.230 -17.742  0.00  0.00    +0.222 HD
ENDBRANCH  23  25
BRANCH  23  27
ATOM     27  O   UNL     1      34.086 -23.722 -19.954  0.00  0.00    -0.303 OA
ATOM     28  H   UNL     1      34.868 -23.700 -20.526  0.00  0.00    +0.222 HD
ENDBRANCH  23  27
ENDBRANCH  22  23
ENDBRANCH  21  22
ENDBRANCH   3  21
TORSDOF 11
ENDMDL
MODEL 9
REMARK VINA RESULT:      -7.5      1.747      2.214
REMARK  Name = 445009
REMARK  11 active torsions:
REMARK  status: ('A' for Active; 'I' for Inactive)
REMARK    1  A    between atoms: C_2  and  C_10
REMARK    2  A    between atoms: C_3  and  C_21
REMARK    3  A    between atoms: C_4  and  O_8
REMARK    4  A    between atoms: C_10  and  N_11
REMARK    5  A    between atoms: N_11  and  C_14
REMARK    6  A    between atoms: C_14  and  C_18
REMARK    7  A    between atoms: C_18  and  O_19
REMARK    8  A    between atoms: C_21  and  O_22
REMARK    9  A    between atoms: O_22  and  P_23
REMARK   10  A    between atoms: P_23  and  O_25
REMARK   11  A    between atoms: P_23  and  O_27
REMARK                            x       y       z     vdW  Elec       q    Type
REMARK                         _______ _______ _______ _____ _____    ______ ____
ROOT
ATOM      1  N   UNL     1      36.383 -21.820 -17.820  0.00  0.00    -0.245 NA
ATOM      2  C   UNL     1      34.185 -23.137 -16.732  0.00  0.00    -0.009 C 
ATOM      3  C   UNL     1      35.349 -23.015 -15.990  0.00  0.00    +0.024 C 
ATOM      4  C   UNL     1      34.106 -22.611 -18.010  0.00  0.00    +0.141 C 
ATOM      5  C   UNL     1      35.227 -21.964 -18.506  0.00  0.00    +0.092 C 
ATOM      6  C   UNL     1      36.415 -22.351 -16.577  0.00  0.00    +0.096 C 
ATOM      7  C   UNL     1      35.206 -21.374 -19.878  0.00  0.00    +0.055 C 
ENDROOT
BRANCH   4   8
ATOM      8  O   UNL     1      32.974 -22.721 -18.752  0.00  0.00    -0.505 OA
ATOM      9  H   UNL     1      32.608 -23.566 -18.928  0.00  0.00    +0.292 HD
ENDBRANCH   4   8
BRANCH   2  10
ATOM     10  C   UNL     1      32.995 -23.849 -16.146  0.00  0.00    -0.050 C 
BRANCH  10  11
ATOM     11  N   UNL     1      31.790 -23.042 -16.221  0.00  0.00    +0.396 N 
ATOM     12  H   UNL     1      32.048 -22.055 -16.224  0.00  0.00    -0.083 HD
ATOM     13  H   UNL     1      31.289 -23.278 -17.078  0.00  0.00    -0.083 HD
BRANCH  11  14
ATOM     14  C   UNL     1      30.917 -23.308 -15.074  0.00  0.00    +0.046 C 
ATOM     15  C   UNL     1      31.713 -23.092 -13.782  0.00  0.00    -0.011 C 
ATOM     16  C   UNL     1      29.705 -22.375 -15.119  0.00  0.00    -0.011 C 
BRANCH  14  18
ATOM     17  O   UNL     1      30.777 -25.646 -14.400  0.00  0.00    -0.253 OA
ATOM     18  C   UNL     1      30.439 -24.754 -15.170  0.00  0.00    +0.295 C 
BRANCH  18  19
ATOM     19  O   UNL     1      29.547 -24.964 -16.175  0.00  0.00    -0.482 OA
ATOM     20  H   UNL     1      28.630 -25.000 -15.987  0.00  0.00    +0.295 HD
ENDBRANCH  18  19
ENDBRANCH  14  18
ENDBRANCH  11  14
ENDBRANCH  10  11
ENDBRANCH   2  10
BRANCH   3  21
ATOM     21  C   UNL     1      35.480 -23.565 -14.613  0.00  0.00    +0.181 C 
BRANCH  21  22
ATOM     22  O   UNL     1      36.835 -23.469 -14.190  0.00  0.00    -0.268 OA
BRANCH  22  23
ATOM     23  P   UNL     1      37.649 -24.837 -13.908  0.00  0.00    +0.473 P 
ATOM     24  O   UNL     1      38.921 -24.672 -13.129  0.00  0.00    -0.227 OA
BRANCH  23  25
ATOM     25  O   UNL     1      37.817 -25.495 -15.376  0.00  0.00    -0.303 OA
ATOM     26  H   UNL     1      37.727 -26.458 -15.311  0.00  0.00    +0.222 HD
ENDBRANCH  23  25
BRANCH  23  27
ATOM     27  O   UNL     1      36.536 -25.775 -13.206  0.00  0.00    -0.303 OA
ATOM     28  H   UNL     1      36.827 -26.700 -13.233  0.00  0.00    +0.222 HD
ENDBRANCH  23  27
ENDBRANCH  22  23
ENDBRANCH  21  22
ENDBRANCH   3  21
TORSDOF 11
ENDMDL
