MODEL 1
REMARK VINA RESULT:     -10.8      0.000      0.000
REMARK  Name = 446136
REMARK  9 active torsions:
REMARK  status: ('A' for Active; 'I' for Inactive)
REMARK    1  A    between atoms: C_1  and  C_6
REMARK    2  A    between atoms: C_1  and  C_17
REMARK    3  A    between atoms: C_1  and  N_27
REMARK    4  A    between atoms: CA_5  and  C_12
REMARK    5  A    between atoms: C_12  and  O_13
REMARK    6  A    between atoms: N_16  and  C_19
REMARK    7  A    between atoms: C_19  and  C_20
REMARK    8  A    between atoms: C_28  and  C_30
REMARK    9  A    between atoms: C_30  and  C_31
REMARK                            x       y       z     vdW  Elec       q    Type
REMARK                         _______ _______ _______ _____ _____    ______ ____
ROOT
ATOM      1  C   UNL     1      34.558 -23.742 -15.859  0.00  0.00    +0.139 C 
ENDROOT
BRANCH   1   6
ATOM      2  S   UNL     1      35.520 -23.636 -13.285  0.00  0.00    -0.164 S 
ATOM      3  N   UNL     1      37.013 -23.762 -15.498  0.00  0.00    +0.401 N 
ATOM      4  C   UNL     1      37.088 -24.575 -13.204  0.00  0.00    +0.030 C 
ATOM      5  CA  UNL     1      37.298 -24.946 -14.683  0.00  0.00    +0.050 C 
ATOM      6  C   UNL     1      35.733 -23.208 -15.045  0.00  0.00    +0.016 C 
ATOM      7  C   UNL     1      36.910 -25.813 -12.324  0.00  0.00    +0.009 C 
ATOM      8  C   UNL     1      38.162 -23.649 -12.616  0.00  0.00    +0.009 C 
ATOM      9  H1  UNL     1      36.949 -24.025 -16.482  0.00  0.00    -0.082 HD
ATOM     10  H2  UNL     1      37.757 -23.072 -15.400  0.00  0.00    -0.082 HD
BRANCH   5  12
ATOM     11  OXT UNL     1      39.169 -26.474 -14.753  0.00  0.00    -0.253 OA
ATOM     12  C   UNL     1      38.701 -25.369 -14.988  0.00  0.00    +0.294 C 
BRANCH  12  13
ATOM     13  O   UNL     1      39.393 -24.354 -15.562  0.00  0.00    -0.482 OA
ATOM     14  H   UNL     1      39.275 -24.163 -16.472  0.00  0.00    +0.295 HD
ENDBRANCH  12  13
ENDBRANCH   5  12
ENDBRANCH   1   6
BRANCH   1  17
ATOM     15  O   UNL     1      33.242 -25.154 -14.396  0.00  0.00    -0.273 OA
ATOM     16  N   UNL     1      32.475 -23.017 -14.876  0.00  0.00    -0.299 N 
ATOM     17  C   UNL     1      33.378 -24.068 -14.955  0.00  0.00    +0.239 C 
ATOM     18  H   UNL     1      32.676 -22.185 -15.361  0.00  0.00    +0.150 HD
BRANCH  16  19
ATOM     19  C   UNL     1      31.253 -23.096 -14.110  0.00  0.00    +0.116 C 
BRANCH  19  20
ATOM     20  C   UNL     1      30.044 -23.215 -14.992  0.00  0.00    -0.003 C 
ATOM     21  C   UNL     1      29.133 -22.161 -15.074  0.00  0.00    -0.003 C 
ATOM     22  C   UNL     1      29.830 -24.379 -15.730  0.00  0.00    -0.003 C 
ATOM     23  C   UNL     1      28.010 -22.271 -15.894  0.00  0.00    -0.000 C 
ATOM     24  C   UNL     1      28.707 -24.490 -16.550  0.00  0.00    -0.000 C 
ATOM     25  C   UNL     1      27.798 -23.436 -16.632  0.00  0.00    -0.000 C 
ENDBRANCH  19  20
ENDBRANCH  16  19
ENDBRANCH   1  17
BRANCH   1  27
ATOM     26  O   UNL     1      33.682 -24.291 -18.544  0.00  0.00    -0.275 OA
ATOM     27  N   UNL     1      34.122 -22.781 -16.836  0.00  0.00    -0.299 N 
ATOM     28  C   UNL     1      33.715 -23.141 -18.116  0.00  0.00    +0.227 C 
ATOM     29  H   UNL     1      34.113 -21.829 -16.588  0.00  0.00    +0.150 HD
BRANCH  28  30
ATOM     30  C   UNL     1      33.303 -21.932 -18.934  0.00  0.00    +0.111 C 
BRANCH  30  31
ATOM     31  C   UNL     1      34.469 -21.203 -19.549  0.00  0.00    -0.013 C 
ATOM     32  C   UNL     1      34.244 -20.170 -20.459  0.00  0.00    -0.004 C 
ATOM     33  C   UNL     1      35.774 -21.562 -19.210  0.00  0.00    -0.004 C 
ATOM     34  C   UNL     1      35.324 -19.495 -21.028  0.00  0.00    -0.000 C 
ATOM     35  C   UNL     1      36.853 -20.886 -19.779  0.00  0.00    -0.000 C 
ATOM     36  C   UNL     1      36.628 -19.853 -20.689  0.00  0.00    -0.000 C 
ENDBRANCH  30  31
ENDBRANCH  28  30
ENDBRANCH   1  27
TORSDOF 9
ENDMDL
MODEL 2
REMARK VINA RESULT:     -10.8      1.735      5.638
REMARK  Name = 446136
REMARK  9 active torsions:
REMARK  status: ('A' for Active; 'I' for Inactive)
REMARK    1  A    between atoms: C_1  and  C_6
REMARK    2  A    between atoms: C_1  and  C_17
REMARK    3  A    between atoms: C_1  and  N_27
REMARK    4  A    between atoms: CA_5  and  C_12
REMARK    5  A    between atoms: C_12  and  O_13
REMARK    6  A    between atoms: N_16  and  C_19
REMARK    7  A    between atoms: C_19  and  C_20
REMARK    8  A    between atoms: C_28  and  C_30
REMARK    9  A    between atoms: C_30  and  C_31
REMARK                            x       y       z     vdW  Elec       q    Type
REMARK                         _______ _______ _______ _____ _____    ______ ____
ROOT
ATOM      1  C   UNL     1      36.332 -22.243 -15.714  0.00  0.00    +0.139 C 
ENDROOT
BRANCH   1   6
ATOM      2  S   UNL     1      37.283 -22.956 -13.234  0.00  0.00    -0.164 S 
ATOM      3  N   UNL     1      37.578 -24.376 -15.479  0.00  0.00    +0.401 N 
ATOM      4  C   UNL     1      37.263 -24.780 -13.099  0.00  0.00    +0.030 C 
ATOM      5  CA  UNL     1      36.825 -25.186 -14.518  0.00  0.00    +0.050 C 
ATOM      6  C   UNL     1      37.491 -22.977 -15.046  0.00  0.00    +0.016 C 
ATOM      7  C   UNL     1      36.245 -25.214 -12.042  0.00  0.00    +0.009 C 
ATOM      8  C   UNL     1      38.673 -25.240 -12.706  0.00  0.00    +0.009 C 
ATOM      9  H1  UNL     1      37.173 -24.476 -16.410  0.00  0.00    -0.082 HD
ATOM     10  H2  UNL     1      38.551 -24.678 -15.519  0.00  0.00    -0.082 HD
BRANCH   5  12
ATOM     11  OXT UNL     1      38.225 -27.109 -14.946  0.00  0.00    -0.253 OA
ATOM     12  C   UNL     1      37.109 -26.623 -14.829  0.00  0.00    +0.294 C 
BRANCH  12  13
ATOM     13  O   UNL     1      35.955 -27.320 -14.969  0.00  0.00    -0.482 OA
ATOM     14  H   UNL     1      35.883 -28.182 -14.609  0.00  0.00    +0.295 HD
ENDBRANCH  12  13
ENDBRANCH   5  12
ENDBRANCH   1   6
BRANCH   1  17
ATOM     15  O   UNL     1      37.594 -20.582 -16.945  0.00  0.00    -0.273 OA
ATOM     16  N   UNL     1      36.199 -22.021 -18.115  0.00  0.00    -0.299 N 
ATOM     17  C   UNL     1      36.800 -21.521 -16.969  0.00  0.00    +0.239 C 
ATOM     18  H   UNL     1      35.576 -22.778 -18.029  0.00  0.00    +0.150 HD
BRANCH  16  19
ATOM     19  C   UNL     1      36.450 -21.475 -19.429  0.00  0.00    +0.116 C 
BRANCH  19  20
ATOM     20  C   UNL     1      35.235 -20.804 -20.001  0.00  0.00    -0.003 C 
ATOM     21  C   UNL     1      35.380 -19.754 -20.908  0.00  0.00    -0.003 C 
ATOM     22  C   UNL     1      33.961 -21.230 -19.626  0.00  0.00    -0.003 C 
ATOM     23  C   UNL     1      34.252 -19.131 -21.440  0.00  0.00    -0.000 C 
ATOM     24  C   UNL     1      32.832 -20.607 -20.158  0.00  0.00    -0.000 C 
ATOM     25  C   UNL     1      32.978 -19.558 -21.065  0.00  0.00    -0.000 C 
ENDBRANCH  19  20
ENDBRANCH  16  19
ENDBRANCH   1  17
BRANCH   1  27
ATOM     26  O   UNL     1      33.784 -22.561 -14.416  0.00  0.00    -0.275 OA
ATOM     27  N   UNL     1      35.284 -23.154 -16.086  0.00  0.00    -0.299 N 
ATOM     28  C   UNL     1      34.079 -23.239 -15.396  0.00  0.00    +0.227 C 
ATOM     29  H   UNL     1      35.426 -23.743 -16.861  0.00  0.00    +0.150 HD
BRANCH  28  30
ATOM     30  C   UNL     1      33.156 -24.277 -16.006  0.00  0.00    +0.111 C 
BRANCH  30  31
ATOM     31  C   UNL     1      31.697 -23.958 -15.822  0.00  0.00    -0.013 C 
ATOM     32  C   UNL     1      30.932 -24.690 -14.913  0.00  0.00    -0.004 C 
ATOM     33  C   UNL     1      31.108 -22.933 -16.562  0.00  0.00    -0.004 C 
ATOM     34  C   UNL     1      29.579 -24.394 -14.742  0.00  0.00    -0.000 C 
ATOM     35  C   UNL     1      29.755 -22.637 -16.391  0.00  0.00    -0.000 C 
ATOM     36  C   UNL     1      28.991 -23.368 -15.481  0.00  0.00    -0.000 C 
ENDBRANCH  30  31
ENDBRANCH  28  30
ENDBRANCH   1  27
TORSDOF 9
ENDMDL
MODEL 3
REMARK VINA RESULT:     -10.7      1.656      5.744
REMARK  Name = 446136
REMARK  9 active torsions:
REMARK  status: ('A' for Active; 'I' for Inactive)
REMARK    1  A    between atoms: C_1  and  C_6
REMARK    2  A    between atoms: C_1  and  C_17
REMARK    3  A    between atoms: C_1  and  N_27
REMARK    4  A    between atoms: CA_5  and  C_12
REMARK    5  A    between atoms: C_12  and  O_13
REMARK    6  A    between atoms: N_16  and  C_19
REMARK    7  A    between atoms: C_19  and  C_20
REMARK    8  A    between atoms: C_28  and  C_30
REMARK    9  A    between atoms: C_30  and  C_31
REMARK                            x       y       z     vdW  Elec       q    Type
REMARK                         _______ _______ _______ _____ _____    ______ ____
ROOT
ATOM      1  C   UNL     1      34.437 -23.009 -15.003  0.00  0.00    +0.139 C 
ENDROOT
BRANCH   1   6
ATOM      2  S   UNL     1      36.179 -25.129 -15.173  0.00  0.00    -0.164 S 
ATOM      3  N   UNL     1      35.560 -23.802 -12.937  0.00  0.00    +0.401 N 
ATOM      4  C   UNL     1      37.493 -24.914 -13.917  0.00  0.00    +0.030 C 
ATOM      5  CA  UNL     1      37.000 -23.659 -13.174  0.00  0.00    +0.050 C 
ATOM      6  C   UNL     1      34.940 -24.207 -14.203  0.00  0.00    +0.016 C 
ATOM      7  C   UNL     1      38.838 -24.678 -14.605  0.00  0.00    +0.009 C 
ATOM      8  C   UNL     1      37.543 -26.188 -13.063  0.00  0.00    +0.009 C 
ATOM      9  H1  UNL     1      35.170 -22.911 -12.629  0.00  0.00    -0.082 HD
ATOM     10  H2  UNL     1      35.383 -24.496 -12.213  0.00  0.00    -0.082 HD
BRANCH   5  12
ATOM     11  OXT UNL     1      38.764 -22.997 -11.661  0.00  0.00    -0.253 OA
ATOM     12  C   UNL     1      37.653 -23.475 -11.839  0.00  0.00    +0.294 C 
BRANCH  12  13
ATOM     13  O   UNL     1      36.843 -23.914 -10.845  0.00  0.00    -0.482 OA
ATOM     14  H   UNL     1      37.117 -24.623 -10.296  0.00  0.00    +0.295 HD
ENDBRANCH  12  13
ENDBRANCH   5  12
ENDBRANCH   1   6
BRANCH   1  17
ATOM     15  O   UNL     1      33.900 -24.214 -17.034  0.00  0.00    -0.273 OA
ATOM     16  N   UNL     1      35.354 -22.409 -17.154  0.00  0.00    -0.299 N 
ATOM     17  C   UNL     1      34.506 -23.289 -16.497  0.00  0.00    +0.239 C 
ATOM     18  H   UNL     1      35.793 -21.699 -16.633  0.00  0.00    +0.150 HD
BRANCH  16  19
ATOM     19  C   UNL     1      35.618 -22.494 -18.572  0.00  0.00    +0.116 C 
BRANCH  19  20
ATOM     20  C   UNL     1      34.835 -21.477 -19.351  0.00  0.00    -0.003 C 
ATOM     21  C   UNL     1      33.442 -21.459 -19.271  0.00  0.00    -0.003 C 
ATOM     22  C   UNL     1      35.499 -20.550 -20.154  0.00  0.00    -0.003 C 
ATOM     23  C   UNL     1      32.714 -20.515 -19.995  0.00  0.00    -0.000 C 
ATOM     24  C   UNL     1      34.772 -19.605 -20.878  0.00  0.00    -0.000 C 
ATOM     25  C   UNL     1      33.379 -19.587 -20.798  0.00  0.00    -0.000 C 
ENDBRANCH  19  20
ENDBRANCH  16  19
ENDBRANCH   1  17
BRANCH   1  27
ATOM     26  O   UNL     1      32.640 -24.607 -13.422  0.00  0.00    -0.275 OA
ATOM     27  N   UNL     1      33.073 -22.696 -14.668  0.00  0.00    -0.299 N 
ATOM     28  C   UNL     1      32.277 -23.533 -13.894  0.00  0.00    +0.227 C 
ATOM     29  H   UNL     1      32.689 -21.854 -15.002  0.00  0.00    +0.150 HD
BRANCH  28  30
ATOM     30  C   UNL     1      30.888 -22.957 -13.693  0.00  0.00    +0.111 C 
BRANCH  30  31
ATOM     31  C   UNL     1      29.948 -23.256 -14.830  0.00  0.00    -0.013 C 
ATOM     32  C   UNL     1      29.194 -22.230 -15.399  0.00  0.00    -0.004 C 
ATOM     33  C   UNL     1      29.829 -24.559 -15.314  0.00  0.00    -0.004 C 
ATOM     34  C   UNL     1      28.323 -22.506 -16.454  0.00  0.00    -0.000 C 
ATOM     35  C   UNL     1      28.958 -24.835 -16.368  0.00  0.00    -0.000 C 
ATOM     36  C   UNL     1      28.205 -23.809 -16.938  0.00  0.00    -0.000 C 
ENDBRANCH  30  31
ENDBRANCH  28  30
ENDBRANCH   1  27
TORSDOF 9
ENDMDL
MODEL 4
REMARK VINA RESULT:     -10.7      1.960      6.180
REMARK  Name = 446136
REMARK  9 active torsions:
REMARK  status: ('A' for Active; 'I' for Inactive)
REMARK    1  A    between atoms: C_1  and  C_6
REMARK    2  A    between atoms: C_1  and  C_17
REMARK    3  A    between atoms: C_1  and  N_27
REMARK    4  A    between atoms: CA_5  and  C_12
REMARK    5  A    between atoms: C_12  and  O_13
REMARK    6  A    between atoms: N_16  and  C_19
REMARK    7  A    between atoms: C_19  and  C_20
REMARK    8  A    between atoms: C_28  and  C_30
REMARK    9  A    between atoms: C_30  and  C_31
REMARK                            x       y       z     vdW  Elec       q    Type
REMARK                         _______ _______ _______ _____ _____    ______ ____
ROOT
ATOM      1  C   UNL     1      35.529 -22.849 -15.618  0.00  0.00    +0.139 C 
ENDROOT
BRANCH   1   6
ATOM      2  S   UNL     1      37.883 -23.962 -14.734  0.00  0.00    -0.164 S 
ATOM      3  N   UNL     1      35.455 -24.467 -13.737  0.00  0.00    +0.401 N 
ATOM      4  C   UNL     1      37.748 -24.277 -12.937  0.00  0.00    +0.030 C 
ATOM      5  CA  UNL     1      36.281 -23.893 -12.671  0.00  0.00    +0.050 C 
ATOM      6  C   UNL     1      36.090 -24.135 -15.018  0.00  0.00    +0.016 C 
ATOM      7  C   UNL     1      38.720 -23.376 -12.175  0.00  0.00    +0.009 C 
ATOM      8  C   UNL     1      38.079 -25.755 -12.690  0.00  0.00    +0.009 C 
ATOM      9  H1  UNL     1      34.517 -24.069 -13.702  0.00  0.00    -0.082 HD
ATOM     10  H2  UNL     1      35.379 -25.477 -13.627  0.00  0.00    -0.082 HD
BRANCH   5  12
ATOM     11  OXT UNL     1      36.282 -24.246 -10.280  0.00  0.00    -0.253 OA
ATOM     12  C   UNL     1      35.762 -24.427 -11.372  0.00  0.00    +0.294 C 
BRANCH  12  13
ATOM     13  O   UNL     1      34.630 -25.147 -11.568  0.00  0.00    -0.482 OA
ATOM     14  H   UNL     1      34.519 -25.639 -12.357  0.00  0.00    +0.295 HD
ENDBRANCH  12  13
ENDBRANCH   5  12
ENDBRANCH   1   6
BRANCH   1  17
ATOM     15  O   UNL     1      37.620 -21.735 -16.117  0.00  0.00    -0.273 OA
ATOM     16  N   UNL     1      36.118 -22.122 -17.844  0.00  0.00    -0.299 N 
ATOM     17  C   UNL     1      36.553 -22.186 -16.527  0.00  0.00    +0.239 C 
ATOM     18  H   UNL     1      35.246 -22.515 -18.072  0.00  0.00    +0.150 HD
BRANCH  16  19
ATOM     19  C   UNL     1      36.896 -21.503 -18.892  0.00  0.00    +0.116 C 
BRANCH  19  20
ATOM     20  C   UNL     1      36.047 -20.659 -19.798  0.00  0.00    -0.003 C 
ATOM     21  C   UNL     1      36.630 -19.643 -20.556  0.00  0.00    -0.003 C 
ATOM     22  C   UNL     1      34.674 -20.891 -19.883  0.00  0.00    -0.003 C 
ATOM     23  C   UNL     1      35.841 -18.860 -21.398  0.00  0.00    -0.000 C 
ATOM     24  C   UNL     1      33.884 -20.108 -20.725  0.00  0.00    -0.000 C 
ATOM     25  C   UNL     1      34.469 -19.093 -21.483  0.00  0.00    -0.000 C 
ENDBRANCH  19  20
ENDBRANCH  16  19
ENDBRANCH   1  17
BRANCH   1  27
ATOM     26  O   UNL     1      32.827 -22.988 -14.637  0.00  0.00    -0.275 OA
ATOM     27  N   UNL     1      34.345 -23.110 -16.391  0.00  0.00    -0.299 N 
ATOM     28  C   UNL     1      33.074 -23.158 -15.828  0.00  0.00    +0.227 C 
ATOM     29  H   UNL     1      34.438 -23.260 -17.358  0.00  0.00    +0.150 HD
BRANCH  28  30
ATOM     30  C   UNL     1      32.010 -23.444 -16.870  0.00  0.00    +0.111 C 
BRANCH  30  31
ATOM     31  C   UNL     1      30.617 -23.503 -16.300  0.00  0.00    -0.013 C 
ATOM     32  C   UNL     1      29.784 -22.387 -16.379  0.00  0.00    -0.004 C 
ATOM     33  C   UNL     1      30.161 -24.673 -15.692  0.00  0.00    -0.004 C 
ATOM     34  C   UNL     1      28.494 -22.442 -15.851  0.00  0.00    -0.000 C 
ATOM     35  C   UNL     1      28.870 -24.727 -15.165  0.00  0.00    -0.000 C 
ATOM     36  C   UNL     1      28.037 -23.612 -15.244  0.00  0.00    -0.000 C 
ENDBRANCH  30  31
ENDBRANCH  28  30
ENDBRANCH   1  27
TORSDOF 9
ENDMDL
MODEL 5
REMARK VINA RESULT:     -10.0      1.624      5.852
REMARK  Name = 446136
REMARK  9 active torsions:
REMARK  status: ('A' for Active; 'I' for Inactive)
REMARK    1  A    between atoms: C_1  and  C_6
REMARK    2  A    between atoms: C_1  and  C_17
REMARK    3  A    between atoms: C_1  and  N_27
REMARK    4  A    between atoms: CA_5  and  C_12
REMARK    5  A    between atoms: C_12  and  O_13
REMARK    6  A    between atoms: N_16  and  C_19
REMARK    7  A    between atoms: C_19  and  C_20
REMARK    8  A    between atoms: C_28  and  C_30
REMARK    9  A    between atoms: C_30  and  C_31
REMARK                            x       y       z     vdW  Elec       q    Type
REMARK                         _______ _______ _______ _____ _____    ______ ____
ROOT
ATOM      1  C   UNL     1      35.525 -22.514 -15.046  0.00  0.00    +0.139 C 
ENDROOT
BRANCH   1   6
ATOM      2  S   UNL     1      35.403 -24.977 -13.829  0.00  0.00    -0.164 S 
ATOM      3  N   UNL     1      37.606 -23.490 -14.111  0.00  0.00    +0.401 N 
ATOM      4  C   UNL     1      36.990 -25.846 -14.100  0.00  0.00    +0.030 C 
ATOM      5  CA  UNL     1      37.815 -24.759 -14.814  0.00  0.00    +0.050 C 
ATOM      6  C   UNL     1      36.162 -23.321 -13.918  0.00  0.00    +0.016 C 
ATOM      7  C   UNL     1      36.769 -27.071 -14.989  0.00  0.00    +0.009 C 
ATOM      8  C   UNL     1      37.536 -26.269 -12.729  0.00  0.00    +0.009 C 
ATOM      9  H1  UNL     1      37.974 -22.720 -14.670  0.00  0.00    -0.082 HD
ATOM     10  H2  UNL     1      38.090 -23.493 -13.214  0.00  0.00    -0.082 HD
BRANCH   5  12
ATOM     11  OXT UNL     1      40.075 -24.604 -13.974  0.00  0.00    -0.253 OA
ATOM     12  C   UNL     1      39.286 -25.038 -14.801  0.00  0.00    +0.294 C 
BRANCH  12  13
ATOM     13  O   UNL     1      39.630 -25.840 -15.838  0.00  0.00    -0.482 OA
ATOM     14  H   UNL     1      39.598 -25.511 -16.715  0.00  0.00    +0.295 HD
ENDBRANCH  12  13
ENDBRANCH   5  12
ENDBRANCH   1   6
BRANCH   1  17
ATOM     15  O   UNL     1      37.699 -21.731 -15.772  0.00  0.00    -0.273 OA
ATOM     16  N   UNL     1      36.078 -22.177 -17.373  0.00  0.00    -0.299 N 
ATOM     17  C   UNL     1      36.568 -22.107 -16.076  0.00  0.00    +0.239 C 
ATOM     18  H   UNL     1      35.156 -22.494 -17.512  0.00  0.00    +0.150 HD
BRANCH  16  19
ATOM     19  C   UNL     1      36.864 -21.804 -18.525  0.00  0.00    +0.116 C 
BRANCH  19  20
ATOM     20  C   UNL     1      36.084 -20.957 -19.488  0.00  0.00    -0.003 C 
ATOM     21  C   UNL     1      34.711 -21.155 -19.637  0.00  0.00    -0.003 C 
ATOM     22  C   UNL     1      36.731 -19.972 -20.234  0.00  0.00    -0.003 C 
ATOM     23  C   UNL     1      33.986 -20.368 -20.532  0.00  0.00    -0.000 C 
ATOM     24  C   UNL     1      36.007 -19.185 -21.129  0.00  0.00    -0.000 C 
ATOM     25  C   UNL     1      34.634 -19.382 -21.277  0.00  0.00    -0.000 C 
ENDBRANCH  19  20
ENDBRANCH  16  19
ENDBRANCH   1  17
BRANCH   1  27
ATOM     26  O   UNL     1      32.715 -22.548 -14.428  0.00  0.00    -0.275 OA
ATOM     27  N   UNL     1      34.505 -23.274 -15.717  0.00  0.00    -0.299 N 
ATOM     28  C   UNL     1      33.165 -23.227 -15.347  0.00  0.00    +0.227 C 
ATOM     29  H   UNL     1      34.767 -23.852 -16.469  0.00  0.00    +0.150 HD
BRANCH  28  30
ATOM     30  C   UNL     1      32.310 -24.121 -16.224  0.00  0.00    +0.111 C 
BRANCH  30  31
ATOM     31  C   UNL     1      30.832 -23.882 -16.058  0.00  0.00    -0.013 C 
ATOM     32  C   UNL     1      30.243 -22.748 -16.619  0.00  0.00    -0.004 C 
ATOM     33  C   UNL     1      30.054 -24.792 -15.344  0.00  0.00    -0.004 C 
ATOM     34  C   UNL     1      28.874 -22.527 -16.466  0.00  0.00    -0.000 C 
ATOM     35  C   UNL     1      28.685 -24.570 -15.191  0.00  0.00    -0.000 C 
ATOM     36  C   UNL     1      28.095 -23.437 -15.752  0.00  0.00    -0.000 C 
ENDBRANCH  30  31
ENDBRANCH  28  30
ENDBRANCH   1  27
TORSDOF 9
ENDMDL
MODEL 6
REMARK VINA RESULT:      -9.9      9.016     12.601
REMARK  Name = 446136
REMARK  9 active torsions:
REMARK  status: ('A' for Active; 'I' for Inactive)
REMARK    1  A    between atoms: C_1  and  C_6
REMARK    2  A    between atoms: C_1  and  C_17
REMARK    3  A    between atoms: C_1  and  N_27
REMARK    4  A    between atoms: CA_5  and  C_12
REMARK    5  A    between atoms: C_12  and  O_13
REMARK    6  A    between atoms: N_16  and  C_19
REMARK    7  A    between atoms: C_19  and  C_20
REMARK    8  A    between atoms: C_28  and  C_30
REMARK    9  A    between atoms: C_30  and  C_31
REMARK                            x       y       z     vdW  Elec       q    Type
REMARK                         _______ _______ _______ _____ _____    ______ ____
ROOT
ATOM      1  C   UNL     1      33.137 -14.596 -22.954  0.00  0.00    +0.139 C 
ENDROOT
BRANCH   1   6
ATOM      2  S   UNL     1      34.459 -16.284 -21.232  0.00  0.00    -0.164 S 
ATOM      3  N   UNL     1      34.743 -16.240 -23.890  0.00  0.00    +0.401 N 
ATOM      4  C   UNL     1      34.762 -17.874 -22.084  0.00  0.00    +0.030 C 
ATOM      5  CA  UNL     1      34.247 -17.564 -23.501  0.00  0.00    +0.050 C 
ATOM      6  C   UNL     1      34.469 -15.320 -22.781  0.00  0.00    +0.016 C 
ATOM      7  C   UNL     1      33.954 -18.987 -21.415  0.00  0.00    +0.009 C 
ATOM      8  C   UNL     1      36.264 -18.177 -21.998  0.00  0.00    +0.009 C 
ATOM      9  H1  UNL     1      34.262 -15.923 -24.731  0.00  0.00    -0.082 HD
ATOM     10  H2  UNL     1      35.743 -16.276 -24.087  0.00  0.00    -0.082 HD
BRANCH   5  12
ATOM     11  OXT UNL     1      34.984 -19.716 -24.314  0.00  0.00    -0.253 OA
ATOM     12  C   UNL     1      34.734 -18.539 -24.528  0.00  0.00    +0.294 C 
BRANCH  12  13
ATOM     13  O   UNL     1      34.863 -17.938 -25.736  0.00  0.00    -0.482 OA
ATOM     14  H   UNL     1      35.681 -17.975 -26.192  0.00  0.00    +0.295 HD
ENDBRANCH  12  13
ENDBRANCH   5  12
ENDBRANCH   1   6
BRANCH   1  17
ATOM     15  O   UNL     1      33.277 -14.036 -20.602  0.00  0.00    -0.273 OA
ATOM     16  N   UNL     1      31.834 -12.824 -21.957  0.00  0.00    -0.299 N 
ATOM     17  C   UNL     1      32.787 -13.801 -21.705  0.00  0.00    +0.239 C 
ATOM     18  H   UNL     1      31.503 -12.714 -22.878  0.00  0.00    +0.150 HD
BRANCH  16  19
ATOM     19  C   UNL     1      31.308 -11.963 -20.924  0.00  0.00    +0.116 C 
BRANCH  19  20
ATOM     20  C   UNL     1      31.531 -10.511 -21.234  0.00  0.00    -0.003 C 
ATOM     21  C   UNL     1      32.075  -9.666 -20.267  0.00  0.00    -0.003 C 
ATOM     22  C   UNL     1      31.195 -10.007 -22.490  0.00  0.00    -0.003 C 
ATOM     23  C   UNL     1      32.283  -8.318 -20.555  0.00  0.00    -0.000 C 
ATOM     24  C   UNL     1      31.402  -8.658 -22.780  0.00  0.00    -0.000 C 
ATOM     25  C   UNL     1      31.947  -7.814 -21.812  0.00  0.00    -0.000 C 
ENDBRANCH  19  20
ENDBRANCH  16  19
ENDBRANCH   1  17
BRANCH   1  27
ATOM     26  O   UNL     1      32.886 -15.269 -25.741  0.00  0.00    -0.275 OA
ATOM     27  N   UNL     1      33.180 -13.686 -24.067  0.00  0.00    -0.299 N 
ATOM     28  C   UNL     1      33.049 -14.104 -25.387  0.00  0.00    +0.227 C 
ATOM     29  H   UNL     1      33.309 -12.728 -23.886  0.00  0.00    +0.150 HD
BRANCH  28  30
ATOM     30  C   UNL     1      33.128 -12.939 -26.355  0.00  0.00    +0.111 C 
BRANCH  30  31
ATOM     31  C   UNL     1      33.941 -11.784 -25.833  0.00  0.00    -0.013 C 
ATOM     32  C   UNL     1      35.020 -11.301 -26.574  0.00  0.00    -0.004 C 
ATOM     33  C   UNL     1      33.618 -11.199 -24.609  0.00  0.00    -0.004 C 
ATOM     34  C   UNL     1      35.774 -10.230 -26.091  0.00  0.00    -0.000 C 
ATOM     35  C   UNL     1      34.372 -10.129 -24.126  0.00  0.00    -0.000 C 
ATOM     36  C   UNL     1      35.450  -9.645 -24.867  0.00  0.00    -0.000 C 
ENDBRANCH  30  31
ENDBRANCH  28  30
ENDBRANCH   1  27
TORSDOF 9
ENDMDL
MODEL 7
REMARK VINA RESULT:      -9.7      2.029      6.494
REMARK  Name = 446136
REMARK  9 active torsions:
REMARK  status: ('A' for Active; 'I' for Inactive)
REMARK    1  A    between atoms: C_1  and  C_6
REMARK    2  A    between atoms: C_1  and  C_17
REMARK    3  A    between atoms: C_1  and  N_27
REMARK    4  A    between atoms: CA_5  and  C_12
REMARK    5  A    between atoms: C_12  and  O_13
REMARK    6  A    between atoms: N_16  and  C_19
REMARK    7  A    between atoms: C_19  and  C_20
REMARK    8  A    between atoms: C_28  and  C_30
REMARK    9  A    between atoms: C_30  and  C_31
REMARK                            x       y       z     vdW  Elec       q    Type
REMARK                         _______ _______ _______ _____ _____    ______ ____
ROOT
ATOM      1  C   UNL     1      33.595 -23.315 -16.018  0.00  0.00    +0.139 C 
ENDROOT
BRANCH   1   6
ATOM      2  S   UNL     1      31.987 -24.912 -14.462  0.00  0.00    -0.164 S 
ATOM      3  N   UNL     1      31.159 -23.378 -16.489  0.00  0.00    +0.401 N 
ATOM      4  C   UNL     1      30.339 -24.130 -14.322  0.00  0.00    +0.030 C 
ATOM      5  CA  UNL     1      30.494 -22.923 -15.265  0.00  0.00    +0.050 C 
ATOM      6  C   UNL     1      32.331 -24.166 -16.091  0.00  0.00    +0.016 C 
ATOM      7  C   UNL     1      30.087 -23.697 -12.877  0.00  0.00    +0.009 C 
ATOM      8  C   UNL     1      29.289 -25.159 -14.765  0.00  0.00    +0.009 C 
ATOM      9  H1  UNL     1      31.454 -22.574 -17.043  0.00  0.00    -0.082 HD
ATOM     10  H2  UNL     1      30.524 -23.941 -17.053  0.00  0.00    -0.082 HD
BRANCH   5  12
ATOM     11  OXT UNL     1      28.374 -21.822 -14.902  0.00  0.00    -0.253 OA
ATOM     12  C   UNL     1      29.183 -22.323 -15.669  0.00  0.00    +0.294 C 
BRANCH  12  13
ATOM     13  O   UNL     1      29.009 -22.411 -17.010  0.00  0.00    -0.482 OA
ATOM     14  H   UNL     1      29.743 -22.584 -17.567  0.00  0.00    +0.295 HD
ENDBRANCH  12  13
ENDBRANCH   5  12
ENDBRANCH   1   6
BRANCH   1  17
ATOM     15  O   UNL     1      34.841 -25.134 -15.017  0.00  0.00    -0.273 OA
ATOM     16  N   UNL     1      35.186 -22.976 -14.233  0.00  0.00    -0.299 N 
ATOM     17  C   UNL     1      34.606 -23.928 -15.060  0.00  0.00    +0.239 C 
ATOM     18  H   UNL     1      34.931 -22.033 -14.348  0.00  0.00    +0.150 HD
BRANCH  16  19
ATOM     19  C   UNL     1      36.149 -23.315 -13.211  0.00  0.00    +0.116 C 
BRANCH  19  20
ATOM     20  C   UNL     1      37.369 -23.975 -13.785  0.00  0.00    -0.003 C 
ATOM     21  C   UNL     1      37.881 -23.549 -15.011  0.00  0.00    -0.003 C 
ATOM     22  C   UNL     1      37.992 -25.013 -13.093  0.00  0.00    -0.003 C 
ATOM     23  C   UNL     1      39.015 -24.161 -15.545  0.00  0.00    -0.000 C 
ATOM     24  C   UNL     1      39.126 -25.626 -13.625  0.00  0.00    -0.000 C 
ATOM     25  C   UNL     1      39.637 -25.200 -14.851  0.00  0.00    -0.000 C 
ENDBRANCH  19  20
ENDBRANCH  16  19
ENDBRANCH   1  17
BRANCH   1  27
ATOM     26  O   UNL     1      32.559 -21.910 -18.306  0.00  0.00    -0.275 OA
ATOM     27  N   UNL     1      34.216 -23.196 -17.310  0.00  0.00    -0.299 N 
ATOM     28  C   UNL     1      33.638 -22.493 -18.362  0.00  0.00    +0.227 C 
ATOM     29  H   UNL     1      35.087 -23.630 -17.454  0.00  0.00    +0.150 HD
BRANCH  28  30
ATOM     30  C   UNL     1      34.509 -22.525 -19.603  0.00  0.00    +0.111 C 
BRANCH  30  31
ATOM     31  C   UNL     1      34.861 -21.155 -20.120  0.00  0.00    -0.013 C 
ATOM     32  C   UNL     1      33.858 -20.313 -20.599  0.00  0.00    -0.004 C 
ATOM     33  C   UNL     1      36.189 -20.730 -20.122  0.00  0.00    -0.004 C 
ATOM     34  C   UNL     1      34.183 -19.043 -21.078  0.00  0.00    -0.000 C 
ATOM     35  C   UNL     1      36.514 -19.460 -20.601  0.00  0.00    -0.000 C 
ATOM     36  C   UNL     1      35.511 -18.617 -21.079  0.00  0.00    -0.000 C 
ENDBRANCH  30  31
ENDBRANCH  28  30
ENDBRANCH   1  27
TORSDOF 9
ENDMDL
MODEL 8
REMARK VINA RESULT:      -9.1     11.947     15.608
REMARK  Name = 446136
REMARK  9 active torsions:
REMARK  status: ('A' for Active; 'I' for Inactive)
REMARK    1  A    between atoms: C_1  and  C_6
REMARK    2  A    between atoms: C_1  and  C_17
REMARK    3  A    between atoms: C_1  and  N_27
REMARK    4  A    between atoms: CA_5  and  C_12
REMARK    5  A    between atoms: C_12  and  O_13
REMARK    6  A    between atoms: N_16  and  C_19
REMARK    7  A    between atoms: C_19  and  C_20
REMARK    8  A    between atoms: C_28  and  C_30
REMARK    9  A    between atoms: C_30  and  C_31
REMARK                            x       y       z     vdW  Elec       q    Type
REMARK                         _______ _______ _______ _____ _____    ______ ____
ROOT
ATOM      1  C   UNL     1      33.728 -10.253 -23.601  0.00  0.00    +0.139 C 
ENDROOT
BRANCH   1   6
ATOM      2  S   UNL     1      31.778 -11.862 -22.520  0.00  0.00    -0.164 S 
ATOM      3  N   UNL     1      32.273  -9.331 -21.815  0.00  0.00    +0.401 N 
ATOM      4  C   UNL     1      31.544 -11.404 -20.764  0.00  0.00    +0.030 C 
ATOM      5  CA  UNL     1      32.476 -10.185 -20.640  0.00  0.00    +0.050 C 
ATOM      6  C   UNL     1      32.326 -10.190 -23.003  0.00  0.00    +0.016 C 
ATOM      7  C   UNL     1      31.989 -12.555 -19.861  0.00  0.00    +0.009 C 
ATOM      8  C   UNL     1      30.056 -11.098 -20.550  0.00  0.00    +0.009 C 
ATOM      9  H1  UNL     1      33.009  -8.627 -21.863  0.00  0.00    -0.082 HD
ATOM     10  H2  UNL     1      31.375  -8.852 -21.759  0.00  0.00    -0.082 HD
BRANCH   5  12
ATOM     11  OXT UNL     1      32.015  -9.787 -18.302  0.00  0.00    -0.253 OA
ATOM     12  C   UNL     1      32.191  -9.350 -19.430  0.00  0.00    +0.294 C 
BRANCH  12  13
ATOM     13  O   UNL     1      32.153  -8.034 -19.754  0.00  0.00    -0.482 OA
ATOM     14  H   UNL     1      32.439  -7.752 -20.600  0.00  0.00    +0.295 HD
ENDBRANCH  12  13
ENDBRANCH   5  12
ENDBRANCH   1   6
BRANCH   1  17
ATOM     15  O   UNL     1      33.838 -11.506 -25.670  0.00  0.00    -0.273 OA
ATOM     16  N   UNL     1      34.096 -12.639 -23.661  0.00  0.00    -0.299 N 
ATOM     17  C   UNL     1      33.901 -11.509 -24.442  0.00  0.00    +0.239 C 
ATOM     18  H   UNL     1      34.133 -12.535 -22.683  0.00  0.00    +0.150 HD
BRANCH  16  19
ATOM     19  C   UNL     1      34.248 -13.960 -24.225  0.00  0.00    +0.116 C 
BRANCH  19  20
ATOM     20  C   UNL     1      34.507 -14.995 -23.169  0.00  0.00    -0.003 C 
ATOM     21  C   UNL     1      34.286 -14.692 -21.825  0.00  0.00    -0.003 C 
ATOM     22  C   UNL     1      34.969 -16.261 -23.531  0.00  0.00    -0.003 C 
ATOM     23  C   UNL     1      34.527 -15.654 -20.844  0.00  0.00    -0.000 C 
ATOM     24  C   UNL     1      35.210 -17.223 -22.550  0.00  0.00    -0.000 C 
ATOM     25  C   UNL     1      34.988 -16.920 -21.207  0.00  0.00    -0.000 C 
ENDBRANCH  19  20
ENDBRANCH  16  19
ENDBRANCH   1  17
BRANCH   1  27
ATOM     26  O   UNL     1      34.818  -7.721 -22.776  0.00  0.00    -0.275 OA
ATOM     27  N   UNL     1      33.988  -9.113 -24.438  0.00  0.00    -0.299 N 
ATOM     28  C   UNL     1      34.519  -7.924 -23.949  0.00  0.00    +0.227 C 
ATOM     29  H   UNL     1      33.780  -9.177 -25.398  0.00  0.00    +0.150 HD
BRANCH  28  30
ATOM     30  C   UNL     1      34.694  -6.894 -25.048  0.00  0.00    +0.111 C 
BRANCH  30  31
ATOM     31  C   UNL     1      33.522  -5.958 -25.180  0.00  0.00    -0.013 C 
ATOM     32  C   UNL     1      33.469  -5.052 -26.240  0.00  0.00    -0.004 C 
ATOM     33  C   UNL     1      32.490  -5.994 -24.242  0.00  0.00    -0.004 C 
ATOM     34  C   UNL     1      32.383  -4.185 -26.363  0.00  0.00    -0.000 C 
ATOM     35  C   UNL     1      31.404  -5.127 -24.365  0.00  0.00    -0.000 C 
ATOM     36  C   UNL     1      31.351  -4.222 -25.425  0.00  0.00    -0.000 C 
ENDBRANCH  30  31
ENDBRANCH  28  30
ENDBRANCH   1  27
TORSDOF 9
ENDMDL
MODEL 9
REMARK VINA RESULT:      -8.4      8.704     12.846
REMARK  Name = 446136
REMARK  9 active torsions:
REMARK  status: ('A' for Active; 'I' for Inactive)
REMARK    1  A    between atoms: C_1  and  C_6
REMARK    2  A    between atoms: C_1  and  C_17
REMARK    3  A    between atoms: C_1  and  N_27
REMARK    4  A    between atoms: CA_5  and  C_12
REMARK    5  A    between atoms: C_12  and  O_13
REMARK    6  A    between atoms: N_16  and  C_19
REMARK    7  A    between atoms: C_19  and  C_20
REMARK    8  A    between atoms: C_28  and  C_30
REMARK    9  A    between atoms: C_30  and  C_31
REMARK                            x       y       z     vdW  Elec       q    Type
REMARK                         _______ _______ _______ _____ _____    ______ ____
ROOT
ATOM      1  C   UNL     1      34.037 -14.721 -23.242  0.00  0.00    +0.139 C 
ENDROOT
BRANCH   1   6
ATOM      2  S   UNL     1      35.348 -16.827 -24.428  0.00  0.00    -0.164 S 
ATOM      3  N   UNL     1      33.471 -17.032 -22.536  0.00  0.00    +0.401 N 
ATOM      4  C   UNL     1      35.510 -18.182 -23.208  0.00  0.00    +0.030 C 
ATOM      5  CA  UNL     1      34.711 -17.618 -22.019  0.00  0.00    +0.050 C 
ATOM      6  C   UNL     1      33.825 -16.171 -23.669  0.00  0.00    +0.016 C 
ATOM      7  C   UNL     1      36.983 -18.394 -22.857  0.00  0.00    +0.009 C 
ATOM      8  C   UNL     1      34.919 -19.453 -23.833  0.00  0.00    +0.009 C 
ATOM      9  H1  UNL     1      33.019 -16.479 -21.808  0.00  0.00    -0.082 HD
ATOM     10  H2  UNL     1      32.825 -17.763 -22.830  0.00  0.00    -0.082 HD
BRANCH   5  12
ATOM     11  OXT UNL     1      35.111 -19.364 -20.398  0.00  0.00    -0.253 OA
ATOM     12  C   UNL     1      34.326 -18.667 -21.023  0.00  0.00    +0.294 C 
BRANCH  12  13
ATOM     13  O   UNL     1      32.977 -18.743 -20.905  0.00  0.00    -0.482 OA
ATOM     14  H   UNL     1      32.461 -19.054 -21.623  0.00  0.00    +0.295 HD
ENDBRANCH  12  13
ENDBRANCH   5  12
ENDBRANCH   1   6
BRANCH   1  17
ATOM     15  O   UNL     1      33.244 -14.134 -25.454  0.00  0.00    -0.273 OA
ATOM     16  N   UNL     1      34.166 -12.475 -24.118  0.00  0.00    -0.299 N 
ATOM     17  C   UNL     1      33.752 -13.770 -24.395  0.00  0.00    +0.239 C 
ATOM     18  H   UNL     1      34.562 -12.284 -23.238  0.00  0.00    +0.150 HD
BRANCH  16  19
ATOM     19  C   UNL     1      34.040 -11.396 -25.071  0.00  0.00    +0.116 C 
BRANCH  19  20
ATOM     20  C   UNL     1      33.949 -10.058 -24.396  0.00  0.00    -0.003 C 
ATOM     21  C   UNL     1      35.085  -9.258 -24.277  0.00  0.00    -0.003 C 
ATOM     22  C   UNL     1      32.728  -9.614 -23.888  0.00  0.00    -0.003 C 
ATOM     23  C   UNL     1      35.001  -8.014 -23.650  0.00  0.00    -0.000 C 
ATOM     24  C   UNL     1      32.643  -8.371 -23.261  0.00  0.00    -0.000 C 
ATOM     25  C   UNL     1      33.779  -7.571 -23.143  0.00  0.00    -0.000 C 
ENDBRANCH  19  20
ENDBRANCH  16  19
ENDBRANCH   1  17
BRANCH   1  27
ATOM     26  O   UNL     1      34.732 -14.661 -20.450  0.00  0.00    -0.275 OA
ATOM     27  N   UNL     1      33.174 -14.370 -22.147  0.00  0.00    -0.299 N 
ATOM     28  C   UNL     1      33.599 -14.369 -20.823  0.00  0.00    +0.227 C 
ATOM     29  H   UNL     1      32.242 -14.121 -22.344  0.00  0.00    +0.150 HD
BRANCH  28  30
ATOM     30  C   UNL     1      32.487 -13.955 -19.877  0.00  0.00    +0.111 C 
BRANCH  30  31
ATOM     31  C   UNL     1      31.938 -12.584 -20.167  0.00  0.00    -0.013 C 
ATOM     32  C   UNL     1      31.435 -12.288 -21.434  0.00  0.00    -0.004 C 
ATOM     33  C   UNL     1      31.932 -11.609 -19.170  0.00  0.00    -0.004 C 
ATOM     34  C   UNL     1      30.925 -11.018 -21.703  0.00  0.00    -0.000 C 
ATOM     35  C   UNL     1      31.423 -10.338 -19.439  0.00  0.00    -0.000 C 
ATOM     36  C   UNL     1      30.919 -10.043 -20.706  0.00  0.00    -0.000 C 
ENDBRANCH  30  31
ENDBRANCH  28  30
ENDBRANCH   1  27
TORSDOF 9
ENDMDL
