MODEL 1
REMARK VINA RESULT:     -11.4      0.000      0.000
REMARK  Name = 5287459
REMARK  5 active torsions:
REMARK  status: ('A' for Active; 'I' for Inactive)
REMARK    1  A    between atoms: C_1  and  C_7
REMARK    2  A    between atoms: C_4  and  C_21
REMARK    3  A    between atoms: C_5  and  C_25
REMARK    4  A    between atoms: C_8  and  C_13
REMARK    5  A    between atoms: C_25  and  O_26
REMARK                            x       y       z     vdW  Elec       q    Type
REMARK                         _______ _______ _______ _____ _____    ______ ____
ROOT
ATOM      1  C   UNL     1      37.221 -23.761 -15.184  0.00  0.00    +0.000 C 
ATOM      2  C   UNL     1      36.640 -23.726 -13.917  0.00  0.00    +0.005 C 
ATOM      3  C   UNL     1      38.401 -24.474 -15.391  0.00  0.00    +0.006 C 
ATOM      4  C   UNL     1      37.239 -24.407 -12.857  0.00  0.00    +0.053 C 
ATOM      5  C   UNL     1      39.001 -25.154 -14.331  0.00  0.00    +0.076 C 
ATOM      6  C   UNL     1      38.419 -25.120 -13.064  0.00  0.00    +0.011 C 
ENDROOT
BRANCH   1   7
ATOM      7  C   UNL     1      36.600 -23.055 -16.284  0.00  0.00    +0.000 C 
ATOM      8  C   UNL     1      35.401 -21.694 -18.404  0.00  0.00    +0.000 C 
ATOM      9  C   UNL     1      35.253 -23.268 -16.577  0.00  0.00    +0.000 C 
ATOM     10  C   UNL     1      37.347 -22.160 -17.050  0.00  0.00    +0.000 C 
ATOM     11  C   UNL     1      34.654 -22.588 -17.638  0.00  0.00    +0.000 C 
ATOM     12  C   UNL     1      36.748 -21.481 -18.110  0.00  0.00    +0.000 C 
BRANCH   8  13
ATOM     13  C   UNL     1      34.781 -20.989 -19.505  0.00  0.00    +0.000 C 
ATOM     14  C   UNL     1      33.392 -20.967 -19.625  0.00  0.00    +0.000 C 
ATOM     15  C   UNL     1      35.573 -20.331 -20.445  0.00  0.00    +0.000 C 
ATOM     16  C   UNL     1      32.794 -20.286 -20.686  0.00  0.00    +0.000 C 
ATOM     17  C   UNL     1      34.976 -19.650 -21.506  0.00  0.00    +0.000 C 
ATOM     18  C   UNL     1      33.587 -19.628 -21.627  0.00  0.00    +0.000 C 
ENDBRANCH   8  13
ENDBRANCH   1   7
BRANCH   4  21
ATOM     19  O   UNL     1      35.840 -25.255 -11.162  0.00  0.00    -0.270 OA
ATOM     20  N   UNL     1      36.983 -23.323 -10.689  0.00  0.00    -0.325 N 
ATOM     21  C   UNL     1      36.634 -24.371 -11.535  0.00  0.00    +0.243 C 
ATOM     22  H   UNL     1      36.593 -23.266  -9.787  0.00  0.00    +0.145 HD
ATOM     23  H   UNL     1      37.622 -22.638 -10.993  0.00  0.00    +0.145 HD
ENDBRANCH   4  21
BRANCH   5  25
ATOM     24  O   UNL     1      40.914 -26.427 -13.664  0.00  0.00    -0.245 OA
ATOM     25  C   UNL     1      40.232 -25.897 -14.548  0.00  0.00    +0.338 C 
BRANCH  25  26
ATOM     26  O   UNL     1      40.577 -25.960 -15.863  0.00  0.00    -0.477 OA
ATOM     27  H   UNL     1      40.266 -26.664 -16.397  0.00  0.00    +0.295 HD
ENDBRANCH  25  26
ENDBRANCH   5  25
TORSDOF 5
ENDMDL
MODEL 2
REMARK VINA RESULT:     -11.2      1.354      3.098
REMARK  Name = 5287459
REMARK  5 active torsions:
REMARK  status: ('A' for Active; 'I' for Inactive)
REMARK    1  A    between atoms: C_1  and  C_7
REMARK    2  A    between atoms: C_4  and  C_21
REMARK    3  A    between atoms: C_5  and  C_25
REMARK    4  A    between atoms: C_8  and  C_13
REMARK    5  A    between atoms: C_25  and  O_26
REMARK                            x       y       z     vdW  Elec       q    Type
REMARK                         _______ _______ _______ _____ _____    ______ ____
ROOT
ATOM      1  C   UNL     1      37.013 -23.606 -15.159  0.00  0.00    +0.000 C 
ATOM      2  C   UNL     1      38.299 -24.137 -15.242  0.00  0.00    +0.005 C 
ATOM      3  C   UNL     1      36.281 -23.734 -13.979  0.00  0.00    +0.006 C 
ATOM      4  C   UNL     1      38.855 -24.794 -14.144  0.00  0.00    +0.053 C 
ATOM      5  C   UNL     1      36.835 -24.392 -12.881  0.00  0.00    +0.076 C 
ATOM      6  C   UNL     1      38.123 -24.922 -12.965  0.00  0.00    +0.011 C 
ENDROOT
BRANCH   1   7
ATOM      7  C   UNL     1      36.436 -22.924 -16.297  0.00  0.00    +0.000 C 
ATOM      8  C   UNL     1      35.324 -21.609 -18.492  0.00  0.00    +0.000 C 
ATOM      9  C   UNL     1      35.092 -23.116 -16.618  0.00  0.00    +0.000 C 
ATOM     10  C   UNL     1      37.224 -22.073 -17.073  0.00  0.00    +0.000 C 
ATOM     11  C   UNL     1      34.536 -22.459 -17.716  0.00  0.00    +0.000 C 
ATOM     12  C   UNL     1      36.668 -21.416 -18.171  0.00  0.00    +0.000 C 
BRANCH   8  13
ATOM     13  C   UNL     1      34.748 -20.928 -19.631  0.00  0.00    +0.000 C 
ATOM     14  C   UNL     1      33.363 -20.860 -19.777  0.00  0.00    +0.000 C 
ATOM     15  C   UNL     1      35.579 -20.339 -20.583  0.00  0.00    +0.000 C 
ATOM     16  C   UNL     1      32.808 -20.202 -20.875  0.00  0.00    +0.000 C 
ATOM     17  C   UNL     1      35.026 -19.681 -21.682  0.00  0.00    +0.000 C 
ATOM     18  C   UNL     1      33.640 -19.613 -21.829  0.00  0.00    +0.000 C 
ENDBRANCH   8  13
ENDBRANCH   1   7
BRANCH   4  21
ATOM     19  O   UNL     1      41.157 -24.661 -14.624  0.00  0.00    -0.270 OA
ATOM     20  N   UNL     1      40.379 -26.672 -13.845  0.00  0.00    -0.325 N 
ATOM     21  C   UNL     1      40.197 -25.348 -14.232  0.00  0.00    +0.243 C 
ATOM     22  H   UNL     1      41.274 -27.081 -13.891  0.00  0.00    +0.145 HD
ATOM     23  H   UNL     1      39.612 -27.201 -13.524  0.00  0.00    +0.145 HD
ENDBRANCH   4  21
BRANCH   5  25
ATOM     24  O   UNL     1      36.484 -24.254 -10.519  0.00  0.00    -0.245 OA
ATOM     25  C   UNL     1      36.072 -24.526 -11.651  0.00  0.00    +0.338 C 
BRANCH  25  26
ATOM     26  O   UNL     1      34.812 -24.995 -11.869  0.00  0.00    -0.477 OA
ATOM     27  H   UNL     1      34.113 -24.397 -12.044  0.00  0.00    +0.295 HD
ENDBRANCH  25  26
ENDBRANCH   5  25
TORSDOF 5
ENDMDL
MODEL 3
REMARK VINA RESULT:     -11.0      3.277      5.235
REMARK  Name = 5287459
REMARK  5 active torsions:
REMARK  status: ('A' for Active; 'I' for Inactive)
REMARK    1  A    between atoms: C_1  and  C_7
REMARK    2  A    between atoms: C_4  and  C_21
REMARK    3  A    between atoms: C_5  and  C_25
REMARK    4  A    between atoms: C_8  and  C_13
REMARK    5  A    between atoms: C_25  and  O_26
REMARK                            x       y       z     vdW  Elec       q    Type
REMARK                         _______ _______ _______ _____ _____    ______ ____
ROOT
ATOM      1  C   UNL     1      33.806 -22.166 -18.118  0.00  0.00    +0.000 C 
ATOM      2  C   UNL     1      32.517 -22.496 -17.701  0.00  0.00    +0.005 C 
ATOM      3  C   UNL     1      34.911 -22.664 -17.429  0.00  0.00    +0.006 C 
ATOM      4  C   UNL     1      32.333 -23.328 -16.596  0.00  0.00    +0.053 C 
ATOM      5  C   UNL     1      34.727 -23.495 -16.324  0.00  0.00    +0.076 C 
ATOM      6  C   UNL     1      33.438 -23.826 -15.908  0.00  0.00    +0.011 C 
ENDROOT
BRANCH   1   7
ATOM      7  C   UNL     1      33.997 -21.303 -19.264  0.00  0.00    +0.000 C 
ATOM      8  C   UNL     1      34.366 -19.641 -21.474  0.00  0.00    +0.000 C 
ATOM      9  C   UNL     1      35.277 -21.108 -19.784  0.00  0.00    +0.000 C 
ATOM     10  C   UNL     1      32.902 -20.668 -19.850  0.00  0.00    +0.000 C 
ATOM     11  C   UNL     1      35.461 -20.276 -20.889  0.00  0.00    +0.000 C 
ATOM     12  C   UNL     1      33.087 -19.836 -20.954  0.00  0.00    +0.000 C 
BRANCH   8  13
ATOM     13  C   UNL     1      34.557 -18.778 -22.620  0.00  0.00    +0.000 C 
ATOM     14  C   UNL     1      34.805 -17.418 -22.435  0.00  0.00    +0.000 C 
ATOM     15  C   UNL     1      34.494 -19.307 -23.908  0.00  0.00    +0.000 C 
ATOM     16  C   UNL     1      34.989 -16.586 -23.540  0.00  0.00    +0.000 C 
ATOM     17  C   UNL     1      34.678 -18.476 -25.013  0.00  0.00    +0.000 C 
ATOM     18  C   UNL     1      34.926 -17.115 -24.830  0.00  0.00    +0.000 C 
ENDBRANCH   8  13
ENDBRANCH   1   7
BRANCH   4  21
ATOM     19  O   UNL     1      30.789 -24.570 -15.323  0.00  0.00    -0.270 OA
ATOM     20  N   UNL     1      29.927 -22.953 -16.703  0.00  0.00    -0.325 N 
ATOM     21  C   UNL     1      30.988 -23.672 -16.162  0.00  0.00    +0.243 C 
ATOM     22  H   UNL     1      29.003 -23.159 -16.433  0.00  0.00    +0.145 HD
ATOM     23  H   UNL     1      30.101 -22.237 -17.356  0.00  0.00    +0.145 HD
ENDBRANCH   4  21
BRANCH   5  25
ATOM     24  O   UNL     1      35.839 -24.833 -14.681  0.00  0.00    -0.245 OA
ATOM     25  C   UNL     1      35.880 -24.015 -15.605  0.00  0.00    +0.338 C 
BRANCH  25  26
ATOM     26  O   UNL     1      37.054 -23.499 -16.063  0.00  0.00    -0.477 OA
ATOM     27  H   UNL     1      37.660 -23.110 -15.464  0.00  0.00    +0.295 HD
ENDBRANCH  25  26
ENDBRANCH   5  25
TORSDOF 5
ENDMDL
MODEL 4
REMARK VINA RESULT:     -11.0      3.214      5.739
REMARK  Name = 5287459
REMARK  5 active torsions:
REMARK  status: ('A' for Active; 'I' for Inactive)
REMARK    1  A    between atoms: C_1  and  C_7
REMARK    2  A    between atoms: C_4  and  C_21
REMARK    3  A    between atoms: C_5  and  C_25
REMARK    4  A    between atoms: C_8  and  C_13
REMARK    5  A    between atoms: C_25  and  O_26
REMARK                            x       y       z     vdW  Elec       q    Type
REMARK                         _______ _______ _______ _____ _____    ______ ____
ROOT
ATOM      1  C   UNL     1      33.953 -22.086 -18.184  0.00  0.00    +0.000 C 
ATOM      2  C   UNL     1      35.076 -22.558 -17.504  0.00  0.00    +0.005 C 
ATOM      3  C   UNL     1      32.676 -22.446 -17.756  0.00  0.00    +0.006 C 
ATOM      4  C   UNL     1      34.921 -23.390 -16.395  0.00  0.00    +0.053 C 
ATOM      5  C   UNL     1      32.520 -23.279 -16.648  0.00  0.00    +0.076 C 
ATOM      6  C   UNL     1      33.644 -23.751 -15.968  0.00  0.00    +0.011 C 
ENDROOT
BRANCH   1   7
ATOM      7  C   UNL     1      34.114 -21.223 -19.334  0.00  0.00    +0.000 C 
ATOM      8  C   UNL     1      34.426 -19.559 -21.552  0.00  0.00    +0.000 C 
ATOM      9  C   UNL     1      35.388 -20.970 -19.844  0.00  0.00    +0.000 C 
ATOM     10  C   UNL     1      32.996 -20.644 -19.934  0.00  0.00    +0.000 C 
ATOM     11  C   UNL     1      35.544 -20.138 -20.952  0.00  0.00    +0.000 C 
ATOM     12  C   UNL     1      33.152 -19.811 -21.042  0.00  0.00    +0.000 C 
BRANCH   8  13
ATOM     13  C   UNL     1      34.586 -18.695 -22.701  0.00  0.00    +0.000 C 
ATOM     14  C   UNL     1      34.501 -19.223 -23.989  0.00  0.00    +0.000 C 
ATOM     15  C   UNL     1      34.826 -17.333 -22.520  0.00  0.00    +0.000 C 
ATOM     16  C   UNL     1      34.655 -18.389 -25.097  0.00  0.00    +0.000 C 
ATOM     17  C   UNL     1      34.981 -16.499 -23.627  0.00  0.00    +0.000 C 
ATOM     18  C   UNL     1      34.895 -17.026 -24.916  0.00  0.00    +0.000 C 
ENDBRANCH   8  13
ENDBRANCH   1   7
BRANCH   4  21
ATOM     19  O   UNL     1      36.202 -25.082 -15.374  0.00  0.00    -0.270 OA
ATOM     20  N   UNL     1      37.097 -22.971 -15.383  0.00  0.00    -0.325 N 
ATOM     21  C   UNL     1      36.091 -23.883 -15.687  0.00  0.00    +0.243 C 
ATOM     22  H   UNL     1      37.904 -23.268 -14.903  0.00  0.00    +0.145 HD
ATOM     23  H   UNL     1      37.002 -22.027 -15.648  0.00  0.00    +0.145 HD
ENDBRANCH   4  21
BRANCH   5  25
ATOM     24  O   UNL     1      30.930 -24.557 -15.399  0.00  0.00    -0.245 OA
ATOM     25  C   UNL     1      31.188 -23.655 -16.202  0.00  0.00    +0.338 C 
BRANCH  25  26
ATOM     26  O   UNL     1      30.215 -22.892 -16.771  0.00  0.00    -0.477 OA
ATOM     27  H   UNL     1      29.931 -23.070 -17.646  0.00  0.00    +0.295 HD
ENDBRANCH  25  26
ENDBRANCH   5  25
TORSDOF 5
ENDMDL
MODEL 5
REMARK VINA RESULT:     -10.9     10.232     14.003
REMARK  Name = 5287459
REMARK  5 active torsions:
REMARK  status: ('A' for Active; 'I' for Inactive)
REMARK    1  A    between atoms: C_1  and  C_7
REMARK    2  A    between atoms: C_4  and  C_21
REMARK    3  A    between atoms: C_5  and  C_25
REMARK    4  A    between atoms: C_8  and  C_13
REMARK    5  A    between atoms: C_25  and  O_26
REMARK                            x       y       z     vdW  Elec       q    Type
REMARK                         _______ _______ _______ _____ _____    ______ ____
ROOT
ATOM      1  C   UNL     1      33.471 -13.554 -23.175  0.00  0.00    +0.000 C 
ATOM      2  C   UNL     1      33.941 -14.207 -22.036  0.00  0.00    +0.005 C 
ATOM      3  C   UNL     1      33.412 -14.231 -24.393  0.00  0.00    +0.006 C 
ATOM      4  C   UNL     1      34.350 -15.539 -22.115  0.00  0.00    +0.053 C 
ATOM      5  C   UNL     1      33.822 -15.562 -24.472  0.00  0.00    +0.076 C 
ATOM      6  C   UNL     1      34.291 -16.215 -23.332  0.00  0.00    +0.011 C 
ENDROOT
BRANCH   1   7
ATOM      7  C   UNL     1      33.047 -12.173 -23.094  0.00  0.00    +0.000 C 
ATOM      8  C   UNL     1      32.230  -9.510 -22.937  0.00  0.00    +0.000 C 
ATOM      9  C   UNL     1      33.705 -11.196 -23.841  0.00  0.00    +0.000 C 
ATOM     10  C   UNL     1      31.980 -11.819 -22.269  0.00  0.00    +0.000 C 
ATOM     11  C   UNL     1      33.297  -9.865 -23.763  0.00  0.00    +0.000 C 
ATOM     12  C   UNL     1      31.571 -10.487 -22.190  0.00  0.00    +0.000 C 
BRANCH   8  13
ATOM     13  C   UNL     1      31.806  -8.129 -22.855  0.00  0.00    +0.000 C 
ATOM     14  C   UNL     1      31.902  -7.440 -21.646  0.00  0.00    +0.000 C 
ATOM     15  C   UNL     1      31.302  -7.487 -23.985  0.00  0.00    +0.000 C 
ATOM     16  C   UNL     1      31.494  -6.109 -21.567  0.00  0.00    +0.000 C 
ATOM     17  C   UNL     1      30.893  -6.155 -23.907  0.00  0.00    +0.000 C 
ATOM     18  C   UNL     1      30.989  -5.466 -22.698  0.00  0.00    +0.000 C 
ENDBRANCH   8  13
ENDBRANCH   1   7
BRANCH   4  21
ATOM     19  O   UNL     1      34.910 -15.638 -19.829  0.00  0.00    -0.270 OA
ATOM     20  N   UNL     1      35.213 -17.555 -21.052  0.00  0.00    -0.325 N 
ATOM     21  C   UNL     1      34.840 -16.220 -20.927  0.00  0.00    +0.243 C 
ATOM     22  H   UNL     1      35.550 -18.048 -20.269  0.00  0.00    +0.145 HD
ATOM     23  H   UNL     1      35.140 -18.006 -21.924  0.00  0.00    +0.145 HD
ENDBRANCH   4  21
BRANCH   5  25
ATOM     24  O   UNL     1      32.918 -16.079 -26.626  0.00  0.00    -0.245 OA
ATOM     25  C   UNL     1      33.760 -16.268 -25.742  0.00  0.00    +0.338 C 
BRANCH  25  26
ATOM     26  O   UNL     1      34.753 -17.190 -25.873  0.00  0.00    -0.477 OA
ATOM     27  H   UNL     1      34.680 -18.021 -25.449  0.00  0.00    +0.295 HD
ENDBRANCH  25  26
ENDBRANCH   5  25
TORSDOF 5
ENDMDL
MODEL 6
REMARK VINA RESULT:     -10.4      8.974     13.154
REMARK  Name = 5287459
REMARK  5 active torsions:
REMARK  status: ('A' for Active; 'I' for Inactive)
REMARK    1  A    between atoms: C_1  and  C_7
REMARK    2  A    between atoms: C_4  and  C_21
REMARK    3  A    between atoms: C_5  and  C_25
REMARK    4  A    between atoms: C_8  and  C_13
REMARK    5  A    between atoms: C_25  and  O_26
REMARK                            x       y       z     vdW  Elec       q    Type
REMARK                         _______ _______ _______ _____ _____    ______ ____
ROOT
ATOM      1  C   UNL     1      33.703 -14.500 -23.775  0.00  0.00    +0.000 C 
ATOM      2  C   UNL     1      33.469 -13.315 -23.079  0.00  0.00    +0.005 C 
ATOM      3  C   UNL     1      33.661 -14.510 -25.168  0.00  0.00    +0.006 C 
ATOM      4  C   UNL     1      33.195 -12.139 -23.777  0.00  0.00    +0.053 C 
ATOM      5  C   UNL     1      33.386 -13.335 -25.867  0.00  0.00    +0.076 C 
ATOM      6  C   UNL     1      33.153 -12.149 -25.170  0.00  0.00    +0.011 C 
ENDROOT
BRANCH   1   7
ATOM      7  C   UNL     1      33.988 -15.721 -23.051  0.00  0.00    +0.000 C 
ATOM      8  C   UNL     1      34.537 -18.074 -21.657  0.00  0.00    +0.000 C 
ATOM      9  C   UNL     1      34.625 -16.781 -23.696  0.00  0.00    +0.000 C 
ATOM     10  C   UNL     1      33.626 -15.836 -21.709  0.00  0.00    +0.000 C 
ATOM     11  C   UNL     1      34.899 -17.958 -22.999  0.00  0.00    +0.000 C 
ATOM     12  C   UNL     1      33.899 -17.013 -21.012  0.00  0.00    +0.000 C 
BRANCH   8  13
ATOM     13  C   UNL     1      34.820 -19.295 -20.933  0.00  0.00    +0.000 C 
ATOM     14  C   UNL     1      36.139 -19.653 -20.658  0.00  0.00    +0.000 C 
ATOM     15  C   UNL     1      33.772 -20.112 -20.510  0.00  0.00    +0.000 C 
ATOM     16  C   UNL     1      36.412 -20.830 -19.960  0.00  0.00    +0.000 C 
ATOM     17  C   UNL     1      34.044 -21.289 -19.812  0.00  0.00    +0.000 C 
ATOM     18  C   UNL     1      35.363 -21.648 -19.537  0.00  0.00    +0.000 C 
ENDBRANCH   8  13
ENDBRANCH   1   7
BRANCH   4  21
ATOM     19  O   UNL     1      32.243 -10.882 -22.026  0.00  0.00    -0.270 OA
ATOM     20  N   UNL     1      33.549  -9.741 -23.528  0.00  0.00    -0.325 N 
ATOM     21  C   UNL     1      32.951 -10.903 -23.050  0.00  0.00    +0.243 C 
ATOM     22  H   UNL     1      33.405  -8.885 -23.062  0.00  0.00    +0.145 HD
ATOM     23  H   UNL     1      34.116  -9.774 -24.332  0.00  0.00    +0.145 HD
ENDBRANCH   4  21
BRANCH   5  25
ATOM     24  O   UNL     1      34.284 -13.640 -28.063  0.00  0.00    -0.245 OA
ATOM     25  C   UNL     1      33.343 -13.345 -27.321  0.00  0.00    +0.338 C 
BRANCH  25  26
ATOM     26  O   UNL     1      32.122 -12.988 -27.807  0.00  0.00    -0.477 OA
ATOM     27  H   UNL     1      31.348 -13.173 -27.312  0.00  0.00    +0.295 HD
ENDBRANCH  25  26
ENDBRANCH   5  25
TORSDOF 5
ENDMDL
MODEL 7
REMARK VINA RESULT:     -10.3      4.378      5.877
REMARK  Name = 5287459
REMARK  5 active torsions:
REMARK  status: ('A' for Active; 'I' for Inactive)
REMARK    1  A    between atoms: C_1  and  C_7
REMARK    2  A    between atoms: C_4  and  C_21
REMARK    3  A    between atoms: C_5  and  C_25
REMARK    4  A    between atoms: C_8  and  C_13
REMARK    5  A    between atoms: C_25  and  O_26
REMARK                            x       y       z     vdW  Elec       q    Type
REMARK                         _______ _______ _______ _____ _____    ______ ____
ROOT
ATOM      1  C   UNL     1      34.255 -24.262 -14.005  0.00  0.00    +0.000 C 
ATOM      2  C   UNL     1      35.096 -25.026 -14.813  0.00  0.00    +0.005 C 
ATOM      3  C   UNL     1      34.685 -23.851 -12.744  0.00  0.00    +0.006 C 
ATOM      4  C   UNL     1      36.369 -25.377 -14.361  0.00  0.00    +0.053 C 
ATOM      5  C   UNL     1      35.956 -24.203 -12.290  0.00  0.00    +0.076 C 
ATOM      6  C   UNL     1      36.798 -24.966 -13.100  0.00  0.00    +0.011 C 
ENDROOT
BRANCH   1   7
ATOM      7  C   UNL     1      32.936 -23.898 -14.474  0.00  0.00    +0.000 C 
ATOM      8  C   UNL     1      30.392 -23.195 -15.380  0.00  0.00    +0.000 C 
ATOM      9  C   UNL     1      32.757 -23.470 -15.790  0.00  0.00    +0.000 C 
ATOM     10  C   UNL     1      31.843 -23.975 -13.611  0.00  0.00    +0.000 C 
ATOM     11  C   UNL     1      31.485 -23.118 -16.242  0.00  0.00    +0.000 C 
ATOM     12  C   UNL     1      30.571 -23.623 -14.063  0.00  0.00    +0.000 C 
BRANCH   8  13
ATOM     13  C   UNL     1      29.073 -22.829 -15.848  0.00  0.00    +0.000 C 
ATOM     14  C   UNL     1      28.728 -23.025 -17.184  0.00  0.00    +0.000 C 
ATOM     15  C   UNL     1      28.147 -22.281 -14.961  0.00  0.00    +0.000 C 
ATOM     16  C   UNL     1      27.455 -22.673 -17.635  0.00  0.00    +0.000 C 
ATOM     17  C   UNL     1      26.874 -21.929 -15.411  0.00  0.00    +0.000 C 
ATOM     18  C   UNL     1      26.528 -22.124 -16.748  0.00  0.00    +0.000 C 
ENDBRANCH   8  13
ENDBRANCH   1   7
BRANCH   4  21
ATOM     19  O   UNL     1      36.806 -27.113 -15.892  0.00  0.00    -0.270 OA
ATOM     20  N   UNL     1      38.597 -25.841 -15.232  0.00  0.00    -0.325 N 
ATOM     21  C   UNL     1      37.246 -26.174 -15.204  0.00  0.00    +0.243 C 
ATOM     22  H   UNL     1      39.220 -26.359 -15.791  0.00  0.00    +0.145 HD
ATOM     23  H   UNL     1      38.929 -25.087 -14.692  0.00  0.00    +0.145 HD
ENDBRANCH   4  21
BRANCH   5  25
ATOM     24  O   UNL     1      36.018 -24.242  -9.899  0.00  0.00    -0.245 OA
ATOM     25  C   UNL     1      36.404 -23.774 -10.975  0.00  0.00    +0.338 C 
BRANCH  25  26
ATOM     26  O   UNL     1      37.324 -22.773 -11.040  0.00  0.00    -0.477 OA
ATOM     27  H   UNL     1      37.291 -22.150 -11.739  0.00  0.00    +0.295 HD
ENDBRANCH  25  26
ENDBRANCH   5  25
TORSDOF 5
ENDMDL
MODEL 8
REMARK VINA RESULT:     -10.3     10.314     14.120
REMARK  Name = 5287459
REMARK  5 active torsions:
REMARK  status: ('A' for Active; 'I' for Inactive)
REMARK    1  A    between atoms: C_1  and  C_7
REMARK    2  A    between atoms: C_4  and  C_21
REMARK    3  A    between atoms: C_5  and  C_25
REMARK    4  A    between atoms: C_8  and  C_13
REMARK    5  A    between atoms: C_25  and  O_26
REMARK                            x       y       z     vdW  Elec       q    Type
REMARK                         _______ _______ _______ _____ _____    ______ ____
ROOT
ATOM      1  C   UNL     1      33.478 -13.530 -23.091  0.00  0.00    +0.000 C 
ATOM      2  C   UNL     1      33.436 -14.243 -24.288  0.00  0.00    +0.005 C 
ATOM      3  C   UNL     1      33.929 -14.148 -21.926  0.00  0.00    +0.006 C 
ATOM      4  C   UNL     1      33.848 -15.576 -24.320  0.00  0.00    +0.053 C 
ATOM      5  C   UNL     1      34.340 -15.481 -21.957  0.00  0.00    +0.076 C 
ATOM      6  C   UNL     1      34.299 -16.194 -23.155  0.00  0.00    +0.011 C 
ENDROOT
BRANCH   1   7
ATOM      7  C   UNL     1      33.051 -12.147 -23.058  0.00  0.00    +0.000 C 
ATOM      8  C   UNL     1      32.229  -9.482 -22.994  0.00  0.00    +0.000 C 
ATOM      9  C   UNL     1      33.704 -11.197 -23.843  0.00  0.00    +0.000 C 
ATOM     10  C   UNL     1      31.986 -11.765 -22.242  0.00  0.00    +0.000 C 
ATOM     11  C   UNL     1      33.294  -9.864 -23.810  0.00  0.00    +0.000 C 
ATOM     12  C   UNL     1      31.576 -10.433 -22.209  0.00  0.00    +0.000 C 
BRANCH   8  13
ATOM     13  C   UNL     1      31.803  -8.100 -22.960  0.00  0.00    +0.000 C 
ATOM     14  C   UNL     1      31.343  -7.482 -24.122  0.00  0.00    +0.000 C 
ATOM     15  C   UNL     1      31.852  -7.386 -21.762  0.00  0.00    +0.000 C 
ATOM     16  C   UNL     1      30.932  -6.149 -24.088  0.00  0.00    +0.000 C 
ATOM     17  C   UNL     1      31.441  -6.053 -21.728  0.00  0.00    +0.000 C 
ATOM     18  C   UNL     1      30.981  -5.434 -22.890  0.00  0.00    +0.000 C 
ENDBRANCH   8  13
ENDBRANCH   1   7
BRANCH   4  21
ATOM     19  O   UNL     1      33.375 -15.804 -26.616  0.00  0.00    -0.270 OA
ATOM     20  N   UNL     1      34.275 -17.630 -25.560  0.00  0.00    -0.325 N 
ATOM     21  C   UNL     1      33.804 -16.321 -25.569  0.00  0.00    +0.243 C 
ATOM     22  H   UNL     1      34.260 -18.165 -26.387  0.00  0.00    +0.145 HD
ATOM     23  H   UNL     1      34.624 -18.022 -24.727  0.00  0.00    +0.145 HD
ENDBRANCH   4  21
BRANCH   5  25
ATOM     24  O   UNL     1      34.925 -15.580 -19.639  0.00  0.00    -0.245 OA
ATOM     25  C   UNL     1      34.810 -16.126 -20.741  0.00  0.00    +0.338 C 
BRANCH  25  26
ATOM     26  O   UNL     1      35.123 -17.436 -20.936  0.00  0.00    -0.477 OA
ATOM     27  H   UNL     1      35.757 -17.676 -21.583  0.00  0.00    +0.295 HD
ENDBRANCH  25  26
ENDBRANCH   5  25
TORSDOF 5
ENDMDL
MODEL 9
REMARK VINA RESULT:     -10.3      9.086     13.140
REMARK  Name = 5287459
REMARK  5 active torsions:
REMARK  status: ('A' for Active; 'I' for Inactive)
REMARK    1  A    between atoms: C_1  and  C_7
REMARK    2  A    between atoms: C_4  and  C_21
REMARK    3  A    between atoms: C_5  and  C_25
REMARK    4  A    between atoms: C_8  and  C_13
REMARK    5  A    between atoms: C_25  and  O_26
REMARK                            x       y       z     vdW  Elec       q    Type
REMARK                         _______ _______ _______ _____ _____    ______ ____
ROOT
ATOM      1  C   UNL     1      33.288 -13.906 -22.531  0.00  0.00    +0.000 C 
ATOM      2  C   UNL     1      33.866 -13.425 -23.705  0.00  0.00    +0.005 C 
ATOM      3  C   UNL     1      32.443 -13.087 -21.784  0.00  0.00    +0.006 C 
ATOM      4  C   UNL     1      33.597 -12.125 -24.134  0.00  0.00    +0.053 C 
ATOM      5  C   UNL     1      32.174 -11.787 -22.211  0.00  0.00    +0.076 C 
ATOM      6  C   UNL     1      32.751 -11.306 -23.387  0.00  0.00    +0.011 C 
ENDROOT
BRANCH   1   7
ATOM      7  C   UNL     1      33.568 -15.255 -22.086  0.00  0.00    +0.000 C 
ATOM      8  C   UNL     1      34.105 -17.854 -21.229  0.00  0.00    +0.000 C 
ATOM      9  C   UNL     1      32.722 -15.875 -21.167  0.00  0.00    +0.000 C 
ATOM     10  C   UNL     1      34.682 -15.934 -22.578  0.00  0.00    +0.000 C 
ATOM     11  C   UNL     1      32.991 -17.175 -20.737  0.00  0.00    +0.000 C 
ATOM     12  C   UNL     1      34.951 -17.234 -22.148  0.00  0.00    +0.000 C 
BRANCH   8  13
ATOM     13  C   UNL     1      34.386 -19.202 -20.783  0.00  0.00    +0.000 C 
ATOM     14  C   UNL     1      33.345 -20.029 -20.361  0.00  0.00    +0.000 C 
ATOM     15  C   UNL     1      35.698 -19.674 -20.777  0.00  0.00    +0.000 C 
ATOM     16  C   UNL     1      33.616 -21.328 -19.933  0.00  0.00    +0.000 C 
ATOM     17  C   UNL     1      35.969 -20.974 -20.348  0.00  0.00    +0.000 C 
ATOM     18  C   UNL     1      34.929 -21.801 -19.926  0.00  0.00    +0.000 C 
ENDBRANCH   8  13
ENDBRANCH   1   7
BRANCH   4  21
ATOM     19  O   UNL     1      33.849 -12.050 -26.475  0.00  0.00    -0.270 OA
ATOM     20  N   UNL     1      35.172 -10.636 -25.246  0.00  0.00    -0.325 N 
ATOM     21  C   UNL     1      34.199 -11.624 -25.359  0.00  0.00    +0.243 C 
ATOM     22  H   UNL     1      35.602 -10.273 -26.054  0.00  0.00    +0.145 HD
ATOM     23  H   UNL     1      35.430 -10.299 -24.358  0.00  0.00    +0.145 HD
ENDBRANCH   4  21
BRANCH   5  25
ATOM     24  O   UNL     1      31.614  -9.863 -20.904  0.00  0.00    -0.245 OA
ATOM     25  C   UNL     1      31.292 -10.932 -21.431  0.00  0.00    +0.338 C 
BRANCH  25  26
ATOM     26  O   UNL     1      30.032 -11.438 -21.333  0.00  0.00    -0.477 OA
ATOM     27  H   UNL     1      29.318 -11.002 -21.755  0.00  0.00    +0.295 HD
ENDBRANCH  25  26
ENDBRANCH   5  25
TORSDOF 5
ENDMDL
