MODEL 1
REMARK VINA RESULT:      -2.8      0.000      0.000
REMARK  Name = 1567
REMARK  3 active torsions:
REMARK  status: ('A' for Active; 'I' for Inactive)
REMARK    1  A    between atoms: C_1  and  S_2
REMARK    2  A    between atoms: C_1  and  C_4
REMARK    3  A    between atoms: C_4  and  O_5
REMARK                            x       y       z     vdW  Elec       q    Type
REMARK                         _______ _______ _______ _____ _____    ______ ____
ROOT
ATOM      1  C   UNL     1      38.804 -25.071 -14.567  0.00  0.00    +0.085 C 
ENDROOT
BRANCH   1   2
ATOM      2  S   UNL     1      37.581 -26.416 -14.613  0.00  0.00    -0.165 S 
ATOM      3  H   UNL     1      36.821 -26.378 -13.485  0.00  0.00    +0.102 HD
ENDBRANCH   1   2
BRANCH   1   4
ATOM      4  C   UNL     1      40.220 -25.604 -14.714  0.00  0.00    +0.148 C 
BRANCH   4   5
ATOM      5  O   UNL     1      40.466 -25.974 -16.064  0.00  0.00    -0.381 OA
ATOM      6  H   UNL     1      41.422 -26.005 -16.223  0.00  0.00    +0.210 HD
ENDBRANCH   4   5
ENDBRANCH   1   4
TORSDOF 3
ENDMDL
MODEL 2
REMARK VINA RESULT:      -2.7     10.878     10.933
REMARK  Name = 1567
REMARK  3 active torsions:
REMARK  status: ('A' for Active; 'I' for Inactive)
REMARK    1  A    between atoms: C_1  and  S_2
REMARK    2  A    between atoms: C_1  and  C_4
REMARK    3  A    between atoms: C_4  and  O_5
REMARK                            x       y       z     vdW  Elec       q    Type
REMARK                         _______ _______ _______ _____ _____    ______ ____
ROOT
ATOM      1  C   UNL     1      41.329 -14.540 -16.033  0.00  0.00    +0.085 C 
ENDROOT
BRANCH   1   2
ATOM      2  S   UNL     1      41.373 -14.366 -17.843  0.00  0.00    -0.165 S 
ATOM      3  H   UNL     1      40.361 -15.090 -18.393  0.00  0.00    +0.102 HD
ENDBRANCH   1   2
BRANCH   1   4
ATOM      4  C   UNL     1      41.226 -15.998 -15.617  0.00  0.00    +0.148 C 
BRANCH   4   5
ATOM      5  O   UNL     1      39.894 -16.302 -15.226  0.00  0.00    -0.381 OA
ATOM      6  H   UNL     1      39.416 -15.481 -15.039  0.00  0.00    +0.210 HD
ENDBRANCH   4   5
ENDBRANCH   1   4
TORSDOF 3
ENDMDL
MODEL 3
REMARK VINA RESULT:      -2.7     11.674     11.768
REMARK  Name = 1567
REMARK  3 active torsions:
REMARK  status: ('A' for Active; 'I' for Inactive)
REMARK    1  A    between atoms: C_1  and  S_2
REMARK    2  A    between atoms: C_1  and  C_4
REMARK    3  A    between atoms: C_4  and  O_5
REMARK                            x       y       z     vdW  Elec       q    Type
REMARK                         _______ _______ _______ _____ _____    ______ ____
ROOT
ATOM      1  C   UNL     1      40.988 -15.139 -15.043  0.00  0.00    +0.085 C 
ENDROOT
BRANCH   1   2
ATOM      2  S   UNL     1      41.732 -15.248 -16.700  0.00  0.00    -0.165 S 
ATOM      3  H   UNL     1      41.159 -14.323 -17.516  0.00  0.00    +0.102 HD
ENDBRANCH   1   2
BRANCH   1   4
ATOM      4  C   UNL     1      40.790 -13.694 -14.617  0.00  0.00    +0.148 C 
BRANCH   4   5
ATOM      5  O   UNL     1      40.862 -13.587 -13.202  0.00  0.00    -0.381 OA
ATOM      6  H   UNL     1      41.740 -13.865 -12.901  0.00  0.00    +0.210 HD
ENDBRANCH   4   5
ENDBRANCH   1   4
TORSDOF 3
ENDMDL
MODEL 4
REMARK VINA RESULT:      -2.7      3.168      3.201
REMARK  Name = 1567
REMARK  3 active torsions:
REMARK  status: ('A' for Active; 'I' for Inactive)
REMARK    1  A    between atoms: C_1  and  S_2
REMARK    2  A    between atoms: C_1  and  C_4
REMARK    3  A    between atoms: C_4  and  O_5
REMARK                            x       y       z     vdW  Elec       q    Type
REMARK                         _______ _______ _______ _____ _____    ______ ____
ROOT
ATOM      1  C   UNL     1      36.168 -25.486 -15.001  0.00  0.00    +0.085 C 
ENDROOT
BRANCH   1   2
ATOM      2  S   UNL     1      37.236 -24.013 -14.974  0.00  0.00    -0.165 S 
ATOM      3  H   UNL     1      38.534 -24.391 -15.118  0.00  0.00    +0.102 HD
ENDBRANCH   1   2
BRANCH   1   4
ATOM      4  C   UNL     1      36.985 -26.761 -15.133  0.00  0.00    +0.148 C 
BRANCH   4   5
ATOM      5  O   UNL     1      36.772 -27.349 -16.409  0.00  0.00    -0.381 OA
ATOM      6  H   UNL     1      37.626 -27.572 -16.809  0.00  0.00    +0.210 HD
ENDBRANCH   4   5
ENDBRANCH   1   4
TORSDOF 3
ENDMDL
MODEL 5
REMARK VINA RESULT:      -2.7      2.844      3.041
REMARK  Name = 1567
REMARK  3 active torsions:
REMARK  status: ('A' for Active; 'I' for Inactive)
REMARK    1  A    between atoms: C_1  and  S_2
REMARK    2  A    between atoms: C_1  and  C_4
REMARK    3  A    between atoms: C_4  and  O_5
REMARK                            x       y       z     vdW  Elec       q    Type
REMARK                         _______ _______ _______ _____ _____    ______ ____
ROOT
ATOM      1  C   UNL     1      37.340 -26.645 -13.982  0.00  0.00    +0.085 C 
ENDROOT
BRANCH   1   2
ATOM      2  S   UNL     1      38.847 -25.627 -13.930  0.00  0.00    -0.165 S 
ATOM      3  H   UNL     1      38.516 -24.341 -13.639  0.00  0.00    +0.102 HD
ENDBRANCH   1   2
BRANCH   1   4
ATOM      4  C   UNL     1      36.512 -26.348 -15.221  0.00  0.00    +0.148 C 
BRANCH   4   5
ATOM      5  O   UNL     1      36.848 -27.255 -16.263  0.00  0.00    -0.381 OA
ATOM      6  H   UNL     1      36.342 -27.034 -17.059  0.00  0.00    +0.210 HD
ENDBRANCH   4   5
ENDBRANCH   1   4
TORSDOF 3
ENDMDL
MODEL 6
REMARK VINA RESULT:      -2.6     10.832     10.888
REMARK  Name = 1567
REMARK  3 active torsions:
REMARK  status: ('A' for Active; 'I' for Inactive)
REMARK    1  A    between atoms: C_1  and  S_2
REMARK    2  A    between atoms: C_1  and  C_4
REMARK    3  A    between atoms: C_4  and  O_5
REMARK                            x       y       z     vdW  Elec       q    Type
REMARK                         _______ _______ _______ _____ _____    ______ ____
ROOT
ATOM      1  C   UNL     1      41.122 -14.579 -16.058  0.00  0.00    +0.085 C 
ENDROOT
BRANCH   1   2
ATOM      2  S   UNL     1      41.389 -14.394 -17.848  0.00  0.00    -0.165 S 
ATOM      3  H   UNL     1      41.905 -15.547 -18.352  0.00  0.00    +0.102 HD
ENDBRANCH   1   2
BRANCH   1   4
ATOM      4  C   UNL     1      41.215 -16.035 -15.631  0.00  0.00    +0.148 C 
BRANCH   4   5
ATOM      5  O   UNL     1      42.530 -16.527 -15.854  0.00  0.00    -0.381 OA
ATOM      6  H   UNL     1      43.167 -15.803 -15.755  0.00  0.00    +0.210 HD
ENDBRANCH   4   5
ENDBRANCH   1   4
TORSDOF 3
ENDMDL
MODEL 7
REMARK VINA RESULT:      -2.5      4.983      5.247
REMARK  Name = 1567
REMARK  3 active torsions:
REMARK  status: ('A' for Active; 'I' for Inactive)
REMARK    1  A    between atoms: C_1  and  S_2
REMARK    2  A    between atoms: C_1  and  C_4
REMARK    3  A    between atoms: C_4  and  O_5
REMARK                            x       y       z     vdW  Elec       q    Type
REMARK                         _______ _______ _______ _____ _____    ______ ____
ROOT
ATOM      1  C   UNL     1      36.104 -24.911 -12.538  0.00  0.00    +0.085 C 
ENDROOT
BRANCH   1   2
ATOM      2  S   UNL     1      37.735 -25.712 -12.617  0.00  0.00    -0.165 S 
ATOM      3  H   UNL     1      37.647 -26.850 -13.355  0.00  0.00    +0.102 HD
ENDBRANCH   1   2
BRANCH   1   4
ATOM      4  C   UNL     1      35.896 -24.203 -11.209  0.00  0.00    +0.148 C 
BRANCH   4   5
ATOM      5  O   UNL     1      35.272 -25.080 -10.280  0.00  0.00    -0.381 OA
ATOM      6  H   UNL     1      34.585 -24.600  -9.794  0.00  0.00    +0.210 HD
ENDBRANCH   4   5
ENDBRANCH   1   4
TORSDOF 3
ENDMDL
MODEL 8
REMARK VINA RESULT:      -2.5     11.197     11.453
REMARK  Name = 1567
REMARK  3 active torsions:
REMARK  status: ('A' for Active; 'I' for Inactive)
REMARK    1  A    between atoms: C_1  and  S_2
REMARK    2  A    between atoms: C_1  and  C_4
REMARK    3  A    between atoms: C_4  and  O_5
REMARK                            x       y       z     vdW  Elec       q    Type
REMARK                         _______ _______ _______ _____ _____    ______ ____
ROOT
ATOM      1  C   UNL     1      28.604 -22.759 -15.763  0.00  0.00    +0.085 C 
ENDROOT
BRANCH   1   2
ATOM      2  S   UNL     1      29.089 -24.465 -15.357  0.00  0.00    -0.165 S 
ATOM      3  H   UNL     1      27.997 -25.273 -15.413  0.00  0.00    +0.102 HD
ENDBRANCH   1   2
BRANCH   1   4
ATOM      4  C   UNL     1      27.836 -22.697 -17.073  0.00  0.00    +0.148 C 
BRANCH   4   5
ATOM      5  O   UNL     1      27.668 -24.005 -17.604  0.00  0.00    -0.381 OA
ATOM      6  H   UNL     1      27.818 -23.988 -18.561  0.00  0.00    +0.210 HD
ENDBRANCH   4   5
ENDBRANCH   1   4
TORSDOF 3
ENDMDL
MODEL 9
REMARK VINA RESULT:      -2.4     13.235     13.367
REMARK  Name = 1567
REMARK  3 active torsions:
REMARK  status: ('A' for Active; 'I' for Inactive)
REMARK    1  A    between atoms: C_1  and  S_2
REMARK    2  A    between atoms: C_1  and  C_4
REMARK    3  A    between atoms: C_4  and  O_5
REMARK                            x       y       z     vdW  Elec       q    Type
REMARK                         _______ _______ _______ _____ _____    ______ ____
ROOT
ATOM      1  C   UNL     1      34.567 -17.772 -24.980  0.00  0.00    +0.085 C 
ENDROOT
BRANCH   1   2
ATOM      2  S   UNL     1      34.875 -18.976 -23.651  0.00  0.00    -0.165 S 
ATOM      3  H   UNL     1      33.966 -18.795 -22.656  0.00  0.00    +0.102 HD
ENDBRANCH   1   2
BRANCH   1   4
ATOM      4  C   UNL     1      34.521 -16.351 -24.441  0.00  0.00    +0.148 C 
BRANCH   4   5
ATOM      5  O   UNL     1      35.663 -16.097 -23.634  0.00  0.00    -0.381 OA
ATOM      6  H   UNL     1      35.600 -15.206 -23.256  0.00  0.00    +0.210 HD
ENDBRANCH   4   5
ENDBRANCH   1   4
TORSDOF 3
ENDMDL
