MODEL 1
REMARK VINA RESULT:      -7.9      0.000      0.000
REMARK  Name = 5039
REMARK  10 active torsions:
REMARK  status: ('A' for Active; 'I' for Inactive)
REMARK    1  A    between atoms: S_1  and  C_2
REMARK    2  A    between atoms: S_1  and  C_13
REMARK    3  A    between atoms: C_2  and  C_5
REMARK    4  A    between atoms: C_4  and  C_8
REMARK    5  A    between atoms: C_8  and  N_9
REMARK    6  A    between atoms: C_13  and  C_14
REMARK    7  A    between atoms: C_14  and  N_15
REMARK    8  A    between atoms: N_15  and  C_17
REMARK    9  A    between atoms: C_17  and  N_22
REMARK   10  A    between atoms: C_18  and  N_21
REMARK                            x       y       z     vdW  Elec       q    Type
REMARK                         _______ _______ _______ _____ _____    ______ ____
ROOT
ATOM      1  S   UNL     1      36.534 -21.667 -18.263  0.00  0.00    -0.130 S 
ENDROOT
BRANCH   1   2
ATOM      2  C   UNL     1      34.956 -22.088 -19.035  0.00  0.00    +0.122 C 
BRANCH   2   5
ATOM      3  O   UNL     1      35.333 -20.023 -20.261  0.00  0.00    -0.463 OA
ATOM      4  C   UNL     1      34.647 -19.084 -20.963  0.00  0.00    +0.102 C 
ATOM      5  C   UNL     1      34.422 -20.940 -19.842  0.00  0.00    +0.133 C 
ATOM      6  C   UNL     1      33.307 -19.392 -20.998  0.00  0.00    +0.034 C 
ATOM      7  C   UNL     1      33.160 -20.596 -20.271  0.00  0.00    +0.037 C 
BRANCH   4   8
ATOM      8  C   UNL     1      35.440 -17.979 -21.518  0.00  0.00    -0.011 C 
BRANCH   8   9
ATOM      9  N   UNL     1      34.609 -16.814 -21.869  0.00  0.00    +0.389 N 
ATOM     10  C   UNL     1      35.064 -16.235 -23.129  0.00  0.00    -0.100 C 
ATOM     11  C   UNL     1      34.655 -15.826 -20.796  0.00  0.00    -0.100 C 
ATOM     12  H   UNL     1      33.642 -17.116 -21.986  0.00  0.00    -0.079 HD
ENDBRANCH   8   9
ENDBRANCH   4   8
ENDBRANCH   2   5
ENDBRANCH   1   2
BRANCH   1  13
ATOM     13  C   UNL     1      36.230 -22.409 -16.630  0.00  0.00    +0.079 C 
BRANCH  13  14
ATOM     14  C   UNL     1      37.510 -22.572 -15.820  0.00  0.00    +0.100 C 
BRANCH  14  15
ATOM     15  N   UNL     1      37.815 -23.966 -15.592  0.00  0.00    -0.319 N 
ATOM     16  H   UNL     1      37.974 -24.520 -16.390  0.00  0.00    +0.148 HD
BRANCH  15  17
ATOM     17  C   UNL     1      37.905 -24.606 -14.354  0.00  0.00    +0.118 C 
ATOM     18  C   UNL     1      37.159 -24.234 -13.292  0.00  0.00    +0.194 C 
BRANCH  18  21
ATOM     19  O   UNL     1      38.047 -24.422 -11.207  0.00  0.00    -0.126 OA
ATOM     20  O   UNL     1      36.620 -25.950 -11.900  0.00  0.00    -0.126 OA
ATOM     21  N   UNL     1      37.283 -24.914 -12.052  0.00  0.00    +0.062 N 
ENDBRANCH  18  21
BRANCH  17  22
ATOM     22  N   UNL     1      38.799 -25.672 -14.195  0.00  0.00    -0.319 N 
ATOM     23  C   UNL     1      40.241 -25.637 -14.165  0.00  0.00    +0.109 C 
ATOM     24  H   UNL     1      38.389 -26.561 -14.089  0.00  0.00    +0.148 HD
ENDBRANCH  17  22
ENDBRANCH  15  17
ENDBRANCH  14  15
ENDBRANCH  13  14
ENDBRANCH   1  13
TORSDOF 10
ENDMDL
MODEL 2
REMARK VINA RESULT:      -7.8      1.776      2.164
REMARK  Name = 5039
REMARK  10 active torsions:
REMARK  status: ('A' for Active; 'I' for Inactive)
REMARK    1  A    between atoms: S_1  and  C_2
REMARK    2  A    between atoms: S_1  and  C_13
REMARK    3  A    between atoms: C_2  and  C_5
REMARK    4  A    between atoms: C_4  and  C_8
REMARK    5  A    between atoms: C_8  and  N_9
REMARK    6  A    between atoms: C_13  and  C_14
REMARK    7  A    between atoms: C_14  and  N_15
REMARK    8  A    between atoms: N_15  and  C_17
REMARK    9  A    between atoms: C_17  and  N_22
REMARK   10  A    between atoms: C_18  and  N_21
REMARK                            x       y       z     vdW  Elec       q    Type
REMARK                         _______ _______ _______ _____ _____    ______ ____
ROOT
ATOM      1  S   UNL     1      36.546 -21.662 -18.005  0.00  0.00    -0.130 S 
ENDROOT
BRANCH   1   2
ATOM      2  C   UNL     1      35.106 -22.180 -18.964  0.00  0.00    +0.122 C 
BRANCH   2   5
ATOM      3  O   UNL     1      35.444 -20.131 -20.228  0.00  0.00    -0.463 OA
ATOM      4  C   UNL     1      34.734 -19.197 -20.914  0.00  0.00    +0.102 C 
ATOM      5  C   UNL     1      34.545 -21.038 -19.763  0.00  0.00    +0.133 C 
ATOM      6  C   UNL     1      33.393 -19.499 -20.893  0.00  0.00    +0.034 C 
ATOM      7  C   UNL     1      33.270 -20.693 -20.146  0.00  0.00    +0.037 C 
BRANCH   4   8
ATOM      8  C   UNL     1      35.510 -18.103 -21.513  0.00  0.00    -0.011 C 
BRANCH   8   9
ATOM      9  N   UNL     1      34.664 -16.955 -21.886  0.00  0.00    +0.389 N 
ATOM     10  C   UNL     1      35.118 -16.389 -23.151  0.00  0.00    -0.100 C 
ATOM     11  C   UNL     1      34.690 -15.951 -20.827  0.00  0.00    -0.100 C 
ATOM     12  H   UNL     1      33.703 -17.273 -22.003  0.00  0.00    -0.079 HD
ENDBRANCH   8   9
ENDBRANCH   4   8
ENDBRANCH   2   5
ENDBRANCH   1   2
BRANCH   1  13
ATOM     13  C   UNL     1      36.206 -22.614 -16.492  0.00  0.00    +0.079 C 
BRANCH  13  14
ATOM     14  C   UNL     1      37.339 -22.514 -15.478  0.00  0.00    +0.100 C 
BRANCH  14  15
ATOM     15  N   UNL     1      37.412 -23.697 -14.651  0.00  0.00    -0.319 N 
ATOM     16  H   UNL     1      36.792 -23.742 -13.888  0.00  0.00    +0.148 HD
BRANCH  15  17
ATOM     17  C   UNL     1      38.273 -24.782 -14.826  0.00  0.00    +0.118 C 
ATOM     18  C   UNL     1      39.599 -24.698 -14.585  0.00  0.00    +0.194 C 
BRANCH  18  21
ATOM     19  O   UNL     1      40.861 -26.400 -13.760  0.00  0.00    -0.126 OA
ATOM     20  O   UNL     1      40.686 -26.163 -15.943  0.00  0.00    -0.126 OA
ATOM     21  N   UNL     1      40.438 -25.828 -14.775  0.00  0.00    +0.062 N 
ENDBRANCH  18  21
BRANCH  17  22
ATOM     22  N   UNL     1      37.756 -26.006 -15.267  0.00  0.00    -0.319 N 
ATOM     23  C   UNL     1      36.395 -26.480 -15.203  0.00  0.00    +0.109 C 
ATOM     24  H   UNL     1      38.406 -26.623 -15.673  0.00  0.00    +0.148 HD
ENDBRANCH  17  22
ENDBRANCH  15  17
ENDBRANCH  14  15
ENDBRANCH  13  14
ENDBRANCH   1  13
TORSDOF 10
ENDMDL
MODEL 3
REMARK VINA RESULT:      -7.8      1.563      1.750
REMARK  Name = 5039
REMARK  10 active torsions:
REMARK  status: ('A' for Active; 'I' for Inactive)
REMARK    1  A    between atoms: S_1  and  C_2
REMARK    2  A    between atoms: S_1  and  C_13
REMARK    3  A    between atoms: C_2  and  C_5
REMARK    4  A    between atoms: C_4  and  C_8
REMARK    5  A    between atoms: C_8  and  N_9
REMARK    6  A    between atoms: C_13  and  C_14
REMARK    7  A    between atoms: C_14  and  N_15
REMARK    8  A    between atoms: N_15  and  C_17
REMARK    9  A    between atoms: C_17  and  N_22
REMARK   10  A    between atoms: C_18  and  N_21
REMARK                            x       y       z     vdW  Elec       q    Type
REMARK                         _______ _______ _______ _____ _____    ______ ____
ROOT
ATOM      1  S   UNL     1      36.759 -21.655 -17.837  0.00  0.00    -0.130 S 
ENDROOT
BRANCH   1   2
ATOM      2  C   UNL     1      35.140 -22.177 -18.447  0.00  0.00    +0.122 C 
BRANCH   2   5
ATOM      3  O   UNL     1      35.503 -20.377 -20.040  0.00  0.00    -0.463 OA
ATOM      4  C   UNL     1      34.809 -19.587 -20.901  0.00  0.00    +0.102 C 
ATOM      5  C   UNL     1      34.597 -21.201 -19.452  0.00  0.00    +0.133 C 
ATOM      6  C   UNL     1      33.470 -19.900 -20.869  0.00  0.00    +0.034 C 
ATOM      7  C   UNL     1      33.332 -20.946 -19.928  0.00  0.00    +0.037 C 
BRANCH   4   8
ATOM      8  C   UNL     1      35.595 -18.605 -21.659  0.00  0.00    -0.011 C 
BRANCH   8   9
ATOM      9  N   UNL     1      34.748 -17.728 -22.486  0.00  0.00    +0.389 N 
ATOM     10  C   UNL     1      35.119 -17.852 -23.891  0.00  0.00    -0.100 C 
ATOM     11  C   UNL     1      34.870 -16.345 -22.036  0.00  0.00    -0.100 C 
ATOM     12  H   UNL     1      33.774 -18.012 -22.386  0.00  0.00    -0.079 HD
ENDBRANCH   8   9
ENDBRANCH   4   8
ENDBRANCH   2   5
ENDBRANCH   1   2
BRANCH   1  13
ATOM     13  C   UNL     1      36.604 -22.270 -16.132  0.00  0.00    +0.079 C 
BRANCH  13  14
ATOM     14  C   UNL     1      35.277 -22.980 -15.890  0.00  0.00    +0.100 C 
BRANCH  14  15
ATOM     15  N   UNL     1      34.942 -23.006 -14.485  0.00  0.00    -0.319 N 
ATOM     16  H   UNL     1      34.314 -22.317 -14.167  0.00  0.00    +0.148 HD
BRANCH  15  17
ATOM     17  C   UNL     1      35.419 -23.908 -13.533  0.00  0.00    +0.118 C 
ATOM     18  C   UNL     1      35.699 -23.540 -12.263  0.00  0.00    +0.194 C 
BRANCH  18  21
ATOM     19  O   UNL     1      37.411 -24.606 -11.215  0.00  0.00    -0.126 OA
ATOM     20  O   UNL     1      35.340 -25.140 -10.688  0.00  0.00    -0.126 OA
ATOM     21  N   UNL     1      36.181 -24.491 -11.327  0.00  0.00    +0.062 N 
ENDBRANCH  18  21
BRANCH  17  22
ATOM     22  N   UNL     1      35.620 -25.247 -13.892  0.00  0.00    -0.319 N 
ATOM     23  C   UNL     1      36.773 -25.842 -14.524  0.00  0.00    +0.109 C 
ATOM     24  H   UNL     1      34.880 -25.860 -13.687  0.00  0.00    +0.148 HD
ENDBRANCH  17  22
ENDBRANCH  15  17
ENDBRANCH  14  15
ENDBRANCH  13  14
ENDBRANCH   1  13
TORSDOF 10
ENDMDL
MODEL 4
REMARK VINA RESULT:      -7.4      5.448     11.466
REMARK  Name = 5039
REMARK  10 active torsions:
REMARK  status: ('A' for Active; 'I' for Inactive)
REMARK    1  A    between atoms: S_1  and  C_2
REMARK    2  A    between atoms: S_1  and  C_13
REMARK    3  A    between atoms: C_2  and  C_5
REMARK    4  A    between atoms: C_4  and  C_8
REMARK    5  A    between atoms: C_8  and  N_9
REMARK    6  A    between atoms: C_13  and  C_14
REMARK    7  A    between atoms: C_14  and  N_15
REMARK    8  A    between atoms: N_15  and  C_17
REMARK    9  A    between atoms: C_17  and  N_22
REMARK   10  A    between atoms: C_18  and  N_21
REMARK                            x       y       z     vdW  Elec       q    Type
REMARK                         _______ _______ _______ _____ _____    ______ ____
ROOT
ATOM      1  S   UNL     1      32.828 -15.713 -20.812  0.00  0.00    -0.130 S 
ENDROOT
BRANCH   1   2
ATOM      2  C   UNL     1      34.609 -16.005 -20.911  0.00  0.00    +0.122 C 
BRANCH   2   5
ATOM      3  O   UNL     1      35.628 -18.171 -20.484  0.00  0.00    -0.463 OA
ATOM      4  C   UNL     1      35.780 -19.388 -21.069  0.00  0.00    +0.102 C 
ATOM      5  C   UNL     1      34.906 -17.411 -21.349  0.00  0.00    +0.133 C 
ATOM      6  C   UNL     1      35.162 -19.413 -22.297  0.00  0.00    +0.034 C 
ATOM      7  C   UNL     1      34.595 -18.131 -22.479  0.00  0.00    +0.037 C 
BRANCH   4   8
ATOM      8  C   UNL     1      36.540 -20.386 -20.304  0.00  0.00    -0.011 C 
BRANCH   8   9
ATOM      9  N   UNL     1      35.796 -20.878 -19.131  0.00  0.00    +0.389 N 
ATOM     10  C   UNL     1      36.686 -21.628 -18.252  0.00  0.00    -0.100 C 
ATOM     11  C   UNL     1      34.673 -21.704 -19.562  0.00  0.00    -0.100 C 
ATOM     12  H   UNL     1      35.428 -20.082 -18.612  0.00  0.00    -0.079 HD
ENDBRANCH   8   9
ENDBRANCH   4   8
ENDBRANCH   2   5
ENDBRANCH   1   2
BRANCH   1  13
ATOM     13  C   UNL     1      32.859 -13.896 -20.886  0.00  0.00    +0.079 C 
BRANCH  13  14
ATOM     14  C   UNL     1      32.265 -13.358 -22.182  0.00  0.00    +0.100 C 
BRANCH  14  15
ATOM     15  N   UNL     1      33.292 -13.110 -23.168  0.00  0.00    -0.319 N 
ATOM     16  H   UNL     1      33.929 -12.386 -22.971  0.00  0.00    +0.148 HD
BRANCH  15  17
ATOM     17  C   UNL     1      33.471 -13.793 -24.373  0.00  0.00    +0.118 C 
ATOM     18  C   UNL     1      33.502 -15.142 -24.441  0.00  0.00    +0.194 C 
BRANCH  18  21
ATOM     19  O   UNL     1      32.817 -15.621 -26.556  0.00  0.00    -0.126 OA
ATOM     20  O   UNL     1      34.702 -16.494 -25.822  0.00  0.00    -0.126 OA
ATOM     21  N   UNL     1      33.686 -15.796 -25.688  0.00  0.00    +0.062 N 
ENDBRANCH  18  21
BRANCH  17  22
ATOM     22  N   UNL     1      33.627 -13.067 -25.559  0.00  0.00    -0.319 N 
ATOM     23  C   UNL     1      33.904 -11.660 -25.720  0.00  0.00    +0.109 C 
ATOM     24  H   UNL     1      33.536 -13.584 -26.392  0.00  0.00    +0.148 HD
ENDBRANCH  17  22
ENDBRANCH  15  17
ENDBRANCH  14  15
ENDBRANCH  13  14
ENDBRANCH   1  13
TORSDOF 10
ENDMDL
MODEL 5
REMARK VINA RESULT:      -7.3      1.996      2.635
REMARK  Name = 5039
REMARK  10 active torsions:
REMARK  status: ('A' for Active; 'I' for Inactive)
REMARK    1  A    between atoms: S_1  and  C_2
REMARK    2  A    between atoms: S_1  and  C_13
REMARK    3  A    between atoms: C_2  and  C_5
REMARK    4  A    between atoms: C_4  and  C_8
REMARK    5  A    between atoms: C_8  and  N_9
REMARK    6  A    between atoms: C_13  and  C_14
REMARK    7  A    between atoms: C_14  and  N_15
REMARK    8  A    between atoms: N_15  and  C_17
REMARK    9  A    between atoms: C_17  and  N_22
REMARK   10  A    between atoms: C_18  and  N_21
REMARK                            x       y       z     vdW  Elec       q    Type
REMARK                         _______ _______ _______ _____ _____    ______ ____
ROOT
ATOM      1  S   UNL     1      34.544 -23.352 -16.454  0.00  0.00    -0.130 S 
ENDROOT
BRANCH   1   2
ATOM      2  C   UNL     1      33.628 -22.840 -17.925  0.00  0.00    +0.122 C 
BRANCH   2   5
ATOM      3  O   UNL     1      33.809 -21.186 -19.697  0.00  0.00    -0.463 OA
ATOM      4  C   UNL     1      34.752 -20.506 -20.401  0.00  0.00    +0.102 C 
ATOM      5  C   UNL     1      34.475 -21.982 -18.822  0.00  0.00    +0.133 C 
ATOM      6  C   UNL     1      36.013 -20.859 -19.982  0.00  0.00    +0.034 C 
ATOM      7  C   UNL     1      35.834 -21.818 -18.958  0.00  0.00    +0.037 C 
BRANCH   4   8
ATOM      8  C   UNL     1      34.255 -19.572 -21.420  0.00  0.00    -0.011 C 
BRANCH   8   9
ATOM      9  N   UNL     1      35.271 -18.579 -21.813  0.00  0.00    +0.389 N 
ATOM     10  C   UNL     1      35.047 -17.326 -21.100  0.00  0.00    -0.100 C 
ATOM     11  C   UNL     1      35.233 -18.370 -23.256  0.00  0.00    -0.100 C 
ATOM     12  H   UNL     1      36.195 -18.930 -21.563  0.00  0.00    -0.079 HD
ENDBRANCH   8   9
ENDBRANCH   4   8
ENDBRANCH   2   5
ENDBRANCH   1   2
BRANCH   1  13
ATOM     13  C   UNL     1      33.175 -23.280 -15.258  0.00  0.00    +0.079 C 
BRANCH  13  14
ATOM     14  C   UNL     1      33.402 -24.197 -14.062  0.00  0.00    +0.100 C 
BRANCH  14  15
ATOM     15  N   UNL     1      34.685 -24.856 -14.140  0.00  0.00    -0.319 N 
ATOM     16  H   UNL     1      34.769 -25.583 -14.798  0.00  0.00    +0.148 HD
BRANCH  15  17
ATOM     17  C   UNL     1      35.817 -24.566 -13.376  0.00  0.00    +0.118 C 
ATOM     18  C   UNL     1      35.751 -23.861 -12.226  0.00  0.00    +0.194 C 
BRANCH  18  21
ATOM     19  O   UNL     1      37.262 -22.401 -11.356  0.00  0.00    -0.126 OA
ATOM     20  O   UNL     1      37.540 -24.558 -11.006  0.00  0.00    -0.126 OA
ATOM     21  N   UNL     1      36.929 -23.589 -11.480  0.00  0.00    +0.062 N 
ENDBRANCH  18  21
BRANCH  17  22
ATOM     22  N   UNL     1      37.072 -25.014 -13.807  0.00  0.00    -0.319 N 
ATOM     23  C   UNL     1      37.935 -24.436 -14.808  0.00  0.00    +0.109 C 
ATOM     24  H   UNL     1      37.408 -25.828 -13.370  0.00  0.00    +0.148 HD
ENDBRANCH  17  22
ENDBRANCH  15  17
ENDBRANCH  14  15
ENDBRANCH  13  14
ENDBRANCH   1  13
TORSDOF 10
ENDMDL
MODEL 6
REMARK VINA RESULT:      -7.2      7.440     10.989
REMARK  Name = 5039
REMARK  10 active torsions:
REMARK  status: ('A' for Active; 'I' for Inactive)
REMARK    1  A    between atoms: S_1  and  C_2
REMARK    2  A    between atoms: S_1  and  C_13
REMARK    3  A    between atoms: C_2  and  C_5
REMARK    4  A    between atoms: C_4  and  C_8
REMARK    5  A    between atoms: C_8  and  N_9
REMARK    6  A    between atoms: C_13  and  C_14
REMARK    7  A    between atoms: C_14  and  N_15
REMARK    8  A    between atoms: N_15  and  C_17
REMARK    9  A    between atoms: C_17  and  N_22
REMARK   10  A    between atoms: C_18  and  N_21
REMARK                            x       y       z     vdW  Elec       q    Type
REMARK                         _______ _______ _______ _____ _____    ______ ____
ROOT
ATOM      1  S   UNL     1      32.906 -12.925 -23.278  0.00  0.00    -0.130 S 
ENDROOT
BRANCH   1   2
ATOM      2  C   UNL     1      33.863 -12.028 -24.521  0.00  0.00    +0.122 C 
BRANCH   2   5
ATOM      3  O   UNL     1      32.915 -10.026 -23.519  0.00  0.00    -0.463 OA
ATOM      4  C   UNL     1      33.218  -8.719 -23.308  0.00  0.00    +0.102 C 
ATOM      5  C   UNL     1      33.972 -10.570 -24.176  0.00  0.00    +0.133 C 
ATOM      6  C   UNL     1      34.459  -8.423 -23.822  0.00  0.00    +0.034 C 
ATOM      7  C   UNL     1      34.949  -9.624 -24.386  0.00  0.00    +0.037 C 
BRANCH   4   8
ATOM      8  C   UNL     1      32.204  -7.922 -22.604  0.00  0.00    -0.011 C 
BRANCH   8   9
ATOM      9  N   UNL     1      32.634  -7.542 -21.247  0.00  0.00    +0.389 N 
ATOM     10  C   UNL     1      32.347  -8.623 -20.310  0.00  0.00    -0.100 C 
ATOM     11  C   UNL     1      31.968  -6.310 -20.839  0.00  0.00    -0.100 C 
ATOM     12  H   UNL     1      33.640  -7.378 -21.249  0.00  0.00    -0.079 HD
ENDBRANCH   8   9
ENDBRANCH   4   8
ENDBRANCH   2   5
ENDBRANCH   1   2
BRANCH   1  13
ATOM     13  C   UNL     1      34.204 -14.077 -22.733  0.00  0.00    +0.079 C 
BRANCH  13  14
ATOM     14  C   UNL     1      34.222 -15.360 -23.554  0.00  0.00    +0.100 C 
BRANCH  14  15
ATOM     15  N   UNL     1      35.411 -16.137 -23.290  0.00  0.00    -0.319 N 
ATOM     16  H   UNL     1      36.272 -15.722 -23.525  0.00  0.00    +0.148 HD
BRANCH  15  17
ATOM     17  C   UNL     1      35.461 -17.417 -22.735  0.00  0.00    +0.118 C 
ATOM     18  C   UNL     1      35.335 -17.635 -21.408  0.00  0.00    +0.194 C 
BRANCH  18  21
ATOM     19  O   UNL     1      36.478 -19.339 -20.428  0.00  0.00    -0.126 OA
ATOM     20  O   UNL     1      34.352 -19.629 -20.926  0.00  0.00    -0.126 OA
ATOM     21  N   UNL     1      35.392 -18.955 -20.887  0.00  0.00    +0.062 N 
ENDBRANCH  18  21
BRANCH  17  22
ATOM     22  N   UNL     1      35.651 -18.523 -23.572  0.00  0.00    -0.319 N 
ATOM     23  C   UNL     1      34.719 -19.113 -24.503  0.00  0.00    +0.109 C 
ATOM     24  H   UNL     1      36.534 -18.954 -23.519  0.00  0.00    +0.148 HD
ENDBRANCH  17  22
ENDBRANCH  15  17
ENDBRANCH  14  15
ENDBRANCH  13  14
ENDBRANCH   1  13
TORSDOF 10
ENDMDL
MODEL 7
REMARK VINA RESULT:      -7.2      7.926     11.263
REMARK  Name = 5039
REMARK  10 active torsions:
REMARK  status: ('A' for Active; 'I' for Inactive)
REMARK    1  A    between atoms: S_1  and  C_2
REMARK    2  A    between atoms: S_1  and  C_13
REMARK    3  A    between atoms: C_2  and  C_5
REMARK    4  A    between atoms: C_4  and  C_8
REMARK    5  A    between atoms: C_8  and  N_9
REMARK    6  A    between atoms: C_13  and  C_14
REMARK    7  A    between atoms: C_14  and  N_15
REMARK    8  A    between atoms: N_15  and  C_17
REMARK    9  A    between atoms: C_17  and  N_22
REMARK   10  A    between atoms: C_18  and  N_21
REMARK                            x       y       z     vdW  Elec       q    Type
REMARK                         _______ _______ _______ _____ _____    ______ ____
ROOT
ATOM      1  S   UNL     1      33.787 -13.142 -23.719  0.00  0.00    -0.130 S 
ENDROOT
BRANCH   1   2
ATOM      2  C   UNL     1      33.999 -11.839 -24.952  0.00  0.00    +0.122 C 
BRANCH   2   5
ATOM      3  O   UNL     1      32.969 -10.193 -23.489  0.00  0.00    -0.463 OA
ATOM      4  C   UNL     1      33.176  -8.933 -23.023  0.00  0.00    +0.102 C 
ATOM      5  C   UNL     1      34.012 -10.480 -24.311  0.00  0.00    +0.133 C 
ATOM      6  C   UNL     1      34.340  -8.414 -23.539  0.00  0.00    +0.034 C 
ATOM      7  C   UNL     1      34.883  -9.417 -24.375  0.00  0.00    +0.037 C 
BRANCH   4   8
ATOM      8  C   UNL     1      32.159  -8.406 -22.103  0.00  0.00    -0.011 C 
BRANCH   8   9
ATOM      9  N   UNL     1      32.635  -8.362 -20.709  0.00  0.00    +0.389 N 
ATOM     10  C   UNL     1      31.978  -9.402 -19.923  0.00  0.00    -0.100 C 
ATOM     11  C   UNL     1      32.386  -7.043 -20.137  0.00  0.00    -0.100 C 
ATOM     12  H   UNL     1      33.639  -8.534 -20.693  0.00  0.00    -0.079 HD
ENDBRANCH   8   9
ENDBRANCH   4   8
ENDBRANCH   2   5
ENDBRANCH   1   2
BRANCH   1  13
ATOM     13  C   UNL     1      33.042 -14.402 -24.798  0.00  0.00    +0.079 C 
BRANCH  13  14
ATOM     14  C   UNL     1      33.882 -15.671 -24.873  0.00  0.00    +0.100 C 
BRANCH  14  15
ATOM     15  N   UNL     1      34.806 -15.757 -23.766  0.00  0.00    -0.319 N 
ATOM     16  H   UNL     1      35.574 -15.141 -23.781  0.00  0.00    +0.148 HD
BRANCH  15  17
ATOM     17  C   UNL     1      34.720 -16.626 -22.676  0.00  0.00    +0.118 C 
ATOM     18  C   UNL     1      35.313 -17.840 -22.671  0.00  0.00    +0.194 C 
BRANCH  18  21
ATOM     19  O   UNL     1      34.288 -19.533 -21.551  0.00  0.00    -0.126 OA
ATOM     20  O   UNL     1      36.019 -18.533 -20.624  0.00  0.00    -0.126 OA
ATOM     21  N   UNL     1      35.199 -18.691 -21.541  0.00  0.00    +0.062 N 
ENDBRANCH  18  21
BRANCH  17  22
ATOM     22  N   UNL     1      33.996 -16.238 -21.542  0.00  0.00    -0.319 N 
ATOM     23  C   UNL     1      34.371 -15.293 -20.518  0.00  0.00    +0.109 C 
ATOM     24  H   UNL     1      33.117 -16.665 -21.430  0.00  0.00    +0.148 HD
ENDBRANCH  17  22
ENDBRANCH  15  17
ENDBRANCH  14  15
ENDBRANCH  13  14
ENDBRANCH   1  13
TORSDOF 10
ENDMDL
MODEL 8
REMARK VINA RESULT:      -7.1      5.726      6.653
REMARK  Name = 5039
REMARK  10 active torsions:
REMARK  status: ('A' for Active; 'I' for Inactive)
REMARK    1  A    between atoms: S_1  and  C_2
REMARK    2  A    between atoms: S_1  and  C_13
REMARK    3  A    between atoms: C_2  and  C_5
REMARK    4  A    between atoms: C_4  and  C_8
REMARK    5  A    between atoms: C_8  and  N_9
REMARK    6  A    between atoms: C_13  and  C_14
REMARK    7  A    between atoms: C_14  and  N_15
REMARK    8  A    between atoms: N_15  and  C_17
REMARK    9  A    between atoms: C_17  and  N_22
REMARK   10  A    between atoms: C_18  and  N_21
REMARK                            x       y       z     vdW  Elec       q    Type
REMARK                         _______ _______ _______ _____ _____    ______ ____
ROOT
ATOM      1  S   UNL     1      34.810 -24.395 -14.627  0.00  0.00    -0.130 S 
ENDROOT
BRANCH   1   2
ATOM      2  C   UNL     1      33.513 -23.430 -15.433  0.00  0.00    +0.122 C 
BRANCH   2   5
ATOM      3  O   UNL     1      31.165 -23.712 -15.998  0.00  0.00    -0.463 OA
ATOM      4  C   UNL     1      30.031 -24.273 -15.502  0.00  0.00    +0.102 C 
ATOM      5  C   UNL     1      32.149 -23.962 -15.095  0.00  0.00    +0.133 C 
ATOM      6  C   UNL     1      30.281 -24.880 -14.294  0.00  0.00    +0.034 C 
ATOM      7  C   UNL     1      31.656 -24.679 -14.030  0.00  0.00    +0.037 C 
BRANCH   4   8
ATOM      8  C   UNL     1      28.821 -24.125 -16.322  0.00  0.00    -0.011 C 
BRANCH   8   9
ATOM      9  N   UNL     1      28.416 -22.717 -16.474  0.00  0.00    +0.389 N 
ATOM     10  C   UNL     1      27.816 -22.231 -15.236  0.00  0.00    -0.100 C 
ATOM     11  C   UNL     1      27.487 -22.581 -17.591  0.00  0.00    -0.100 C 
ATOM     12  H   UNL     1      29.241 -22.152 -16.674  0.00  0.00    -0.079 HD
ENDBRANCH   8   9
ENDBRANCH   4   8
ENDBRANCH   2   5
ENDBRANCH   1   2
BRANCH   1  13
ATOM     13  C   UNL     1      36.116 -23.129 -14.632  0.00  0.00    +0.079 C 
BRANCH  13  14
ATOM     14  C   UNL     1      37.126 -23.334 -13.509  0.00  0.00    +0.100 C 
BRANCH  14  15
ATOM     15  N   UNL     1      37.341 -24.738 -13.244  0.00  0.00    -0.319 N 
ATOM     16  H   UNL     1      36.754 -25.156 -12.573  0.00  0.00    +0.148 HD
BRANCH  15  17
ATOM     17  C   UNL     1      38.297 -25.560 -13.843  0.00  0.00    +0.118 C 
ATOM     18  C   UNL     1      39.588 -25.188 -13.978  0.00  0.00    +0.194 C 
BRANCH  18  21
ATOM     19  O   UNL     1      41.165 -26.821 -13.854  0.00  0.00    -0.126 OA
ATOM     20  O   UNL     1      40.642 -25.991 -15.826  0.00  0.00    -0.126 OA
ATOM     21  N   UNL     1      40.527 -26.057 -14.594  0.00  0.00    +0.062 N 
ENDBRANCH  18  21
BRANCH  17  22
ATOM     22  N   UNL     1      37.917 -26.818 -14.327  0.00  0.00    -0.319 N 
ATOM     23  C   UNL     1      37.064 -27.127 -15.449  0.00  0.00    +0.109 C 
ATOM     24  H   UNL     1      38.279 -27.591 -13.838  0.00  0.00    +0.148 HD
ENDBRANCH  17  22
ENDBRANCH  15  17
ENDBRANCH  14  15
ENDBRANCH  13  14
ENDBRANCH   1  13
TORSDOF 10
ENDMDL
MODEL 9
REMARK VINA RESULT:      -7.1      4.780      7.214
REMARK  Name = 5039
REMARK  10 active torsions:
REMARK  status: ('A' for Active; 'I' for Inactive)
REMARK    1  A    between atoms: S_1  and  C_2
REMARK    2  A    between atoms: S_1  and  C_13
REMARK    3  A    between atoms: C_2  and  C_5
REMARK    4  A    between atoms: C_4  and  C_8
REMARK    5  A    between atoms: C_8  and  N_9
REMARK    6  A    between atoms: C_13  and  C_14
REMARK    7  A    between atoms: C_14  and  N_15
REMARK    8  A    between atoms: N_15  and  C_17
REMARK    9  A    between atoms: C_17  and  N_22
REMARK   10  A    between atoms: C_18  and  N_21
REMARK                            x       y       z     vdW  Elec       q    Type
REMARK                         _______ _______ _______ _____ _____    ______ ____
ROOT
ATOM      1  S   UNL     1      34.798 -16.527 -21.128  0.00  0.00    -0.130 S 
ENDROOT
BRANCH   1   2
ATOM      2  C   UNL     1      34.652 -16.050 -22.865  0.00  0.00    +0.122 C 
BRANCH   2   5
ATOM      3  O   UNL     1      34.287 -13.932 -24.001  0.00  0.00    -0.463 OA
ATOM      4  C   UNL     1      33.462 -12.852 -23.961  0.00  0.00    +0.102 C 
ATOM      5  C   UNL     1      33.878 -14.771 -23.015  0.00  0.00    +0.133 C 
ATOM      6  C   UNL     1      32.530 -12.995 -22.961  0.00  0.00    +0.034 C 
ATOM      7  C   UNL     1      32.799 -14.240 -22.346  0.00  0.00    +0.037 C 
BRANCH   4   8
ATOM      8  C   UNL     1      33.722 -11.799 -24.952  0.00  0.00    -0.011 C 
BRANCH   8   9
ATOM      9  N   UNL     1      34.660 -10.779 -24.451  0.00  0.00    +0.389 N 
ATOM     10  C   UNL     1      33.926  -9.702 -23.796  0.00  0.00    -0.100 C 
ATOM     11  C   UNL     1      35.470 -10.263 -25.550  0.00  0.00    -0.100 C 
ATOM     12  H   UNL     1      35.283 -11.205 -23.766  0.00  0.00    -0.079 HD
ENDBRANCH   8   9
ENDBRANCH   4   8
ENDBRANCH   2   5
ENDBRANCH   1   2
BRANCH   1  13
ATOM     13  C   UNL     1      35.575 -18.154 -21.371  0.00  0.00    +0.079 C 
BRANCH  13  14
ATOM     14  C   UNL     1      34.561 -19.232 -21.735  0.00  0.00    +0.100 C 
BRANCH  14  15
ATOM     15  N   UNL     1      33.978 -19.826 -20.554  0.00  0.00    -0.319 N 
ATOM     16  H   UNL     1      33.248 -19.327 -20.121  0.00  0.00    +0.148 HD
BRANCH  15  17
ATOM     17  C   UNL     1      34.346 -21.037 -19.964  0.00  0.00    +0.118 C 
ATOM     18  C   UNL     1      33.456 -21.835 -19.335  0.00  0.00    +0.194 C 
BRANCH  18  21
ATOM     19  O   UNL     1      34.192 -23.037 -17.550  0.00  0.00    -0.126 OA
ATOM     20  O   UNL     1      33.892 -24.062 -19.477  0.00  0.00    -0.126 OA
ATOM     21  N   UNL     1      33.874 -23.058 -18.749  0.00  0.00    +0.062 N 
ENDBRANCH  18  21
BRANCH  17  22
ATOM     22  N   UNL     1      35.683 -21.451 -20.018  0.00  0.00    -0.319 N 
ATOM     23  C   UNL     1      36.769 -21.092 -19.139  0.00  0.00    +0.109 C 
ATOM     24  H   UNL     1      35.910 -22.067 -20.751  0.00  0.00    +0.148 HD
ENDBRANCH  17  22
ENDBRANCH  15  17
ENDBRANCH  14  15
ENDBRANCH  13  14
ENDBRANCH   1  13
TORSDOF 10
ENDMDL
