MODEL 1
REMARK VINA RESULT:      -5.6      0.000      0.000
REMARK  Name = 83887
REMARK  6 active torsions:
REMARK  status: ('A' for Active; 'I' for Inactive)
REMARK    1  A    between atoms: CA_1  and  N_2
REMARK    2  A    between atoms: CA_1  and  C_7
REMARK    3  A    between atoms: CA_1  and  CB_10
REMARK    4  A    between atoms: C_7  and  O_8
REMARK    5  A    between atoms: CB_10  and  CG_12
REMARK    6  A    between atoms: CG_12  and  OD1_13
REMARK                            x       y       z     vdW  Elec       q    Type
REMARK                         _______ _______ _______ _____ _____    ______ ____
ROOT
ATOM      1  CA  ASP A   1      38.178 -25.504 -13.759  0.00  0.00    +0.047 C 
ENDROOT
BRANCH   1   2
ATOM      2  N   ASP A   1      38.057 -26.880 -14.240  0.00  0.00    +0.389 N 
ATOM      3  H1  ASP A   1      37.193 -26.980 -14.773  0.00  0.00    -0.088 HD
ATOM      4  H2  ASP A   1      38.041 -27.519 -13.444  0.00  0.00    -0.088 HD
ATOM      5  H3  ASP A   1      38.854 -27.103 -14.838  0.00  0.00    -0.088 HD
ENDBRANCH   1   2
BRANCH   1   7
ATOM      6  OXT ASP A   1      37.952 -24.663 -11.479  0.00  0.00    -0.253 OA
ATOM      7  C   ASP A   1      37.677 -25.505 -12.324  0.00  0.00    +0.293 C 
BRANCH   7   8
ATOM      8  O   ASP A   1      36.849 -26.554 -12.071  0.00  0.00    -0.482 OA
ATOM      9  H   ASP A   1      37.158 -27.432 -12.184  0.00  0.00    +0.295 HD
ENDBRANCH   7   8
ENDBRANCH   1   7
BRANCH   1  10
ATOM     10  CB  ASP A   1      39.635 -25.039 -13.870  0.00  0.00    +0.098 C 
BRANCH  10  12
ATOM     11  OD2 ASP A   1      41.248 -26.856 -14.127  0.00  0.00    -0.250 OA
ATOM     12  CG  ASP A   1      40.501 -26.025 -14.621  0.00  0.00    +0.312 C 
BRANCH  12  13
ATOM     13  OD1 ASP A   1      40.341 -25.858 -15.960  0.00  0.00    -0.480 OA
ATOM     14  HD1 ASP A   1      40.344 -24.997 -16.327  0.00  0.00    +0.295 HD
ENDBRANCH  12  13
ENDBRANCH  10  12
ENDBRANCH   1  10
TORSDOF 6
ENDMDL
MODEL 2
REMARK VINA RESULT:      -5.6      2.464      2.669
REMARK  Name = 83887
REMARK  6 active torsions:
REMARK  status: ('A' for Active; 'I' for Inactive)
REMARK    1  A    between atoms: CA_1  and  N_2
REMARK    2  A    between atoms: CA_1  and  C_7
REMARK    3  A    between atoms: CA_1  and  CB_10
REMARK    4  A    between atoms: C_7  and  O_8
REMARK    5  A    between atoms: CB_10  and  CG_12
REMARK    6  A    between atoms: CG_12  and  OD1_13
REMARK                            x       y       z     vdW  Elec       q    Type
REMARK                         _______ _______ _______ _____ _____    ______ ____
ROOT
ATOM      1  CA  ASP A   1      37.799 -25.029 -14.528  0.00  0.00    +0.047 C 
ENDROOT
BRANCH   1   2
ATOM      2  N   ASP A   1      38.183 -23.946 -15.434  0.00  0.00    +0.389 N 
ATOM      3  H1  ASP A   1      38.954 -24.254 -16.025  0.00  0.00    -0.088 HD
ATOM      4  H2  ASP A   1      38.475 -23.134 -14.889  0.00  0.00    -0.088 HD
ATOM      5  H3  ASP A   1      37.386 -23.693 -16.019  0.00  0.00    -0.088 HD
ENDBRANCH   1   2
BRANCH   1   7
ATOM      6  OXT ASP A   1      35.575 -25.632 -15.334  0.00  0.00    -0.253 OA
ATOM      7  C   ASP A   1      36.775 -25.869 -15.274  0.00  0.00    +0.293 C 
BRANCH   7   8
ATOM      8  O   ASP A   1      37.346 -26.928 -15.908  0.00  0.00    -0.482 OA
ATOM      9  H   ASP A   1      37.451 -26.916 -16.839  0.00  0.00    +0.295 HD
ENDBRANCH   7   8
ENDBRANCH   1   7
BRANCH   1  10
ATOM     10  CB  ASP A   1      39.038 -25.836 -14.125  0.00  0.00    +0.098 C 
BRANCH  10  12
ATOM     11  OD2 ASP A   1      41.110 -24.573 -14.405  0.00  0.00    -0.250 OA
ATOM     12  CG  ASP A   1      40.289 -25.369 -14.835  0.00  0.00    +0.312 C 
BRANCH  12  13
ATOM     13  OD1 ASP A   1      40.382 -25.963 -16.053  0.00  0.00    -0.480 OA
ATOM     14  HD1 ASP A   1      39.910 -25.611 -16.782  0.00  0.00    +0.295 HD
ENDBRANCH  12  13
ENDBRANCH  10  12
ENDBRANCH   1  10
TORSDOF 6
ENDMDL
MODEL 3
REMARK VINA RESULT:      -5.5      2.169      2.520
REMARK  Name = 83887
REMARK  6 active torsions:
REMARK  status: ('A' for Active; 'I' for Inactive)
REMARK    1  A    between atoms: CA_1  and  N_2
REMARK    2  A    between atoms: CA_1  and  C_7
REMARK    3  A    between atoms: CA_1  and  CB_10
REMARK    4  A    between atoms: C_7  and  O_8
REMARK    5  A    between atoms: CB_10  and  CG_12
REMARK    6  A    between atoms: CG_12  and  OD1_13
REMARK                            x       y       z     vdW  Elec       q    Type
REMARK                         _______ _______ _______ _____ _____    ______ ____
ROOT
ATOM      1  CA  ASP A   1      37.762 -26.598 -14.278  0.00  0.00    +0.047 C 
ENDROOT
BRANCH   1   2
ATOM      2  N   ASP A   1      37.014 -26.516 -13.023  0.00  0.00    +0.389 N 
ATOM      3  H1  ASP A   1      37.244 -27.319 -12.437  0.00  0.00    -0.088 HD
ATOM      4  H2  ASP A   1      36.014 -26.516 -13.221  0.00  0.00    -0.088 HD
ATOM      5  H3  ASP A   1      37.264 -25.656 -12.533  0.00  0.00    -0.088 HD
ENDBRANCH   1   2
BRANCH   1   7
ATOM      6  OXT ASP A   1      35.861 -25.608 -15.446  0.00  0.00    -0.253 OA
ATOM      7  C   ASP A   1      36.740 -26.459 -15.395  0.00  0.00    +0.293 C 
BRANCH   7   8
ATOM      8  O   ASP A   1      36.921 -27.387 -16.372  0.00  0.00    -0.482 OA
ATOM      9  H   ASP A   1      36.680 -27.190 -17.256  0.00  0.00    +0.295 HD
ENDBRANCH   7   8
ENDBRANCH   1   7
BRANCH   1  10
ATOM     10  CB  ASP A   1      38.830 -25.499 -14.321  0.00  0.00    +0.098 C 
BRANCH  10  12
ATOM     11  OD2 ASP A   1      41.028 -26.514 -14.000  0.00  0.00    -0.250 OA
ATOM     12  CG  ASP A   1      40.185 -26.025 -14.737  0.00  0.00    +0.312 C 
BRANCH  12  13
ATOM     13  OD1 ASP A   1      40.351 -25.876 -16.076  0.00  0.00    -0.480 OA
ATOM     14  HD1 ASP A   1      41.022 -26.356 -16.520  0.00  0.00    +0.295 HD
ENDBRANCH  12  13
ENDBRANCH  10  12
ENDBRANCH   1  10
TORSDOF 6
ENDMDL
MODEL 4
REMARK VINA RESULT:      -5.4      1.848      3.694
REMARK  Name = 83887
REMARK  6 active torsions:
REMARK  status: ('A' for Active; 'I' for Inactive)
REMARK    1  A    between atoms: CA_1  and  N_2
REMARK    2  A    between atoms: CA_1  and  C_7
REMARK    3  A    between atoms: CA_1  and  CB_10
REMARK    4  A    between atoms: C_7  and  O_8
REMARK    5  A    between atoms: CB_10  and  CG_12
REMARK    6  A    between atoms: CG_12  and  OD1_13
REMARK                            x       y       z     vdW  Elec       q    Type
REMARK                         _______ _______ _______ _____ _____    ______ ____
ROOT
ATOM      1  CA  ASP A   1      39.304 -25.193 -13.957  0.00  0.00    +0.047 C 
ENDROOT
BRANCH   1   2
ATOM      2  N   ASP A   1      38.663 -26.111 -13.015  0.00  0.00    +0.389 N 
ATOM      3  H1  ASP A   1      37.658 -25.938 -13.001  0.00  0.00    -0.088 HD
ATOM      4  H2  ASP A   1      39.047 -25.963 -12.081  0.00  0.00    -0.088 HD
ATOM      5  H3  ASP A   1      38.839 -27.073 -13.306  0.00  0.00    -0.088 HD
ENDBRANCH   1   2
BRANCH   1   7
ATOM      6  OXT ASP A   1      41.247 -26.664 -14.079  0.00  0.00    -0.253 OA
ATOM      7  C   ASP A   1      40.402 -25.984 -14.648  0.00  0.00    +0.293 C 
BRANCH   7   8
ATOM      8  O   ASP A   1      40.336 -25.879 -16.002  0.00  0.00    -0.482 OA
ATOM      9  H   ASP A   1      40.242 -25.037 -16.402  0.00  0.00    +0.295 HD
ENDBRANCH   7   8
ENDBRANCH   1   7
BRANCH   1  10
ATOM     10  CB  ASP A   1      38.265 -24.649 -14.945  0.00  0.00    +0.098 C 
BRANCH  10  12
ATOM     11  OD2 ASP A   1      35.962 -25.304 -14.456  0.00  0.00    -0.250 OA
ATOM     12  CG  ASP A   1      37.027 -25.515 -15.017  0.00  0.00    +0.312 C 
BRANCH  12  13
ATOM     13  OD1 ASP A   1      37.260 -26.595 -15.806  0.00  0.00    -0.480 OA
ATOM     14  HD1 ASP A   1      36.869 -26.646 -16.657  0.00  0.00    +0.295 HD
ENDBRANCH  12  13
ENDBRANCH  10  12
ENDBRANCH   1  10
TORSDOF 6
ENDMDL
MODEL 5
REMARK VINA RESULT:      -5.4      1.484      3.826
REMARK  Name = 83887
REMARK  6 active torsions:
REMARK  status: ('A' for Active; 'I' for Inactive)
REMARK    1  A    between atoms: CA_1  and  N_2
REMARK    2  A    between atoms: CA_1  and  C_7
REMARK    3  A    between atoms: CA_1  and  CB_10
REMARK    4  A    between atoms: C_7  and  O_8
REMARK    5  A    between atoms: CB_10  and  CG_12
REMARK    6  A    between atoms: CG_12  and  OD1_13
REMARK                            x       y       z     vdW  Elec       q    Type
REMARK                         _______ _______ _______ _____ _____    ______ ____
ROOT
ATOM      1  CA  ASP A   1      38.718 -25.479 -14.630  0.00  0.00    +0.047 C 
ENDROOT
BRANCH   1   2
ATOM      2  N   ASP A   1      38.009 -24.425 -15.357  0.00  0.00    +0.389 N 
ATOM      3  H1  ASP A   1      37.357 -23.957 -14.728  0.00  0.00    -0.088 HD
ATOM      4  H2  ASP A   1      37.494 -24.836 -16.136  0.00  0.00    -0.088 HD
ATOM      5  H3  ASP A   1      38.683 -23.747 -15.715  0.00  0.00    -0.088 HD
ENDBRANCH   1   2
BRANCH   1   7
ATOM      6  OXT ASP A   1      41.003 -24.684 -14.307  0.00  0.00    -0.253 OA
ATOM      7  C   ASP A   1      40.191 -25.317 -14.970  0.00  0.00    +0.293 C 
BRANCH   7   8
ATOM      8  O   ASP A   1      40.531 -25.986 -16.104  0.00  0.00    -0.482 OA
ATOM      9  H   ASP A   1      40.465 -25.560 -16.936  0.00  0.00    +0.295 HD
ENDBRANCH   7   8
ENDBRANCH   1   7
BRANCH   1  10
ATOM     10  CB  ASP A   1      38.446 -25.349 -13.127  0.00  0.00    +0.098 C 
BRANCH  10  12
ATOM     11  OD2 ASP A   1      36.726 -26.131 -11.579  0.00  0.00    -0.250 OA
ATOM     12  CG  ASP A   1      37.245 -26.154 -12.685  0.00  0.00    +0.312 C 
BRANCH  12  13
ATOM     13  OD1 ASP A   1      36.806 -26.934 -13.706  0.00  0.00    -0.480 OA
ATOM     14  HD1 ASP A   1      36.616 -26.549 -14.540  0.00  0.00    +0.295 HD
ENDBRANCH  12  13
ENDBRANCH  10  12
ENDBRANCH   1  10
TORSDOF 6
ENDMDL
MODEL 6
REMARK VINA RESULT:      -5.1      2.315      3.521
REMARK  Name = 83887
REMARK  6 active torsions:
REMARK  status: ('A' for Active; 'I' for Inactive)
REMARK    1  A    between atoms: CA_1  and  N_2
REMARK    2  A    between atoms: CA_1  and  C_7
REMARK    3  A    between atoms: CA_1  and  CB_10
REMARK    4  A    between atoms: C_7  and  O_8
REMARK    5  A    between atoms: CB_10  and  CG_12
REMARK    6  A    between atoms: CG_12  and  OD1_13
REMARK                            x       y       z     vdW  Elec       q    Type
REMARK                         _______ _______ _______ _____ _____    ______ ____
ROOT
ATOM      1  CA  ASP A   1      38.241 -25.340 -14.279  0.00  0.00    +0.047 C 
ENDROOT
BRANCH   1   2
ATOM      2  N   ASP A   1      39.337 -25.889 -13.481  0.00  0.00    +0.389 N 
ATOM      3  H1  ASP A   1      40.104 -25.218 -13.447  0.00  0.00    -0.088 HD
ATOM      4  H2  ASP A   1      39.665 -26.758 -13.905  0.00  0.00    -0.088 HD
ATOM      5  H3  ASP A   1      39.008 -26.077 -12.534  0.00  0.00    -0.088 HD
ENDBRANCH   1   2
BRANCH   1   7
ATOM      6  OXT ASP A   1      37.056 -26.940 -15.689  0.00  0.00    -0.253 OA
ATOM      7  C   ASP A   1      37.303 -26.498 -14.574  0.00  0.00    +0.293 C 
BRANCH   7   8
ATOM      8  O   ASP A   1      36.769 -27.027 -13.440  0.00  0.00    -0.482 OA
ATOM      9  H   ASP A   1      35.841 -27.012 -13.309  0.00  0.00    +0.295 HD
ENDBRANCH   7   8
ENDBRANCH   1   7
BRANCH   1  10
ATOM     10  CB  ASP A   1      37.550 -24.209 -13.507  0.00  0.00    +0.098 C 
BRANCH  10  12
ATOM     11  OD2 ASP A   1      38.939 -23.242 -11.746  0.00  0.00    -0.250 OA
ATOM     12  CG  ASP A   1      38.095 -24.049 -12.106  0.00  0.00    +0.312 C 
BRANCH  12  13
ATOM     13  OD1 ASP A   1      37.510 -24.948 -11.274  0.00  0.00    -0.480 OA
ATOM     14  HD1 ASP A   1      36.593 -25.126 -11.347  0.00  0.00    +0.295 HD
ENDBRANCH  12  13
ENDBRANCH  10  12
ENDBRANCH   1  10
TORSDOF 6
ENDMDL
MODEL 7
REMARK VINA RESULT:      -4.9      2.246      2.529
REMARK  Name = 83887
REMARK  6 active torsions:
REMARK  status: ('A' for Active; 'I' for Inactive)
REMARK    1  A    between atoms: CA_1  and  N_2
REMARK    2  A    between atoms: CA_1  and  C_7
REMARK    3  A    between atoms: CA_1  and  CB_10
REMARK    4  A    between atoms: C_7  and  O_8
REMARK    5  A    between atoms: CB_10  and  CG_12
REMARK    6  A    between atoms: CG_12  and  OD1_13
REMARK                            x       y       z     vdW  Elec       q    Type
REMARK                         _______ _______ _______ _____ _____    ______ ____
ROOT
ATOM      1  CA  ASP A   1      36.979 -24.229 -13.168  0.00  0.00    +0.047 C 
ENDROOT
BRANCH   1   2
ATOM      2  N   ASP A   1      36.230 -25.404 -12.720  0.00  0.00    +0.389 N 
ATOM      3  H1  ASP A   1      36.821 -26.232 -12.792  0.00  0.00    -0.088 HD
ATOM      4  H2  ASP A   1      35.404 -25.524 -13.306  0.00  0.00    -0.088 HD
ATOM      5  H3  ASP A   1      35.943 -25.274 -11.750  0.00  0.00    -0.088 HD
ENDBRANCH   1   2
BRANCH   1   7
ATOM      6  OXT ASP A   1      38.225 -22.561 -11.894  0.00  0.00    -0.253 OA
ATOM      7  C   ASP A   1      37.511 -23.556 -11.913  0.00  0.00    +0.293 C 
BRANCH   7   8
ATOM      8  O   ASP A   1      37.083 -24.174 -10.780  0.00  0.00    -0.482 OA
ATOM      9  H   ASP A   1      36.779 -25.059 -10.815  0.00  0.00    +0.295 HD
ENDBRANCH   7   8
ENDBRANCH   1   7
BRANCH   1  10
ATOM     10  CB  ASP A   1      38.100 -24.658 -14.122  0.00  0.00    +0.098 C 
BRANCH  10  12
ATOM     11  OD2 ASP A   1      38.425 -27.047 -14.517  0.00  0.00    -0.250 OA
ATOM     12  CG  ASP A   1      37.835 -26.004 -14.758  0.00  0.00    +0.312 C 
BRANCH  12  13
ATOM     13  OD1 ASP A   1      36.828 -25.901 -15.663  0.00  0.00    -0.480 OA
ATOM     14  HD1 ASP A   1      36.852 -26.410 -16.449  0.00  0.00    +0.295 HD
ENDBRANCH  12  13
ENDBRANCH  10  12
ENDBRANCH   1  10
TORSDOF 6
ENDMDL
MODEL 8
REMARK VINA RESULT:      -4.8      2.579      3.137
REMARK  Name = 83887
REMARK  6 active torsions:
REMARK  status: ('A' for Active; 'I' for Inactive)
REMARK    1  A    between atoms: CA_1  and  N_2
REMARK    2  A    between atoms: CA_1  and  C_7
REMARK    3  A    between atoms: CA_1  and  CB_10
REMARK    4  A    between atoms: C_7  and  O_8
REMARK    5  A    between atoms: CB_10  and  CG_12
REMARK    6  A    between atoms: CG_12  and  OD1_13
REMARK                            x       y       z     vdW  Elec       q    Type
REMARK                         _______ _______ _______ _____ _____    ______ ____
ROOT
ATOM      1  CA  ASP A   1      36.794 -24.782 -12.564  0.00  0.00    +0.047 C 
ENDROOT
BRANCH   1   2
ATOM      2  N   ASP A   1      36.462 -24.240 -13.881  0.00  0.00    +0.389 N 
ATOM      3  H1  ASP A   1      37.317 -23.961 -14.360  0.00  0.00    -0.088 HD
ATOM      4  H2  ASP A   1      35.853 -23.429 -13.773  0.00  0.00    -0.088 HD
ATOM      5  H3  ASP A   1      35.981 -24.954 -14.431  0.00  0.00    -0.088 HD
ENDBRANCH   1   2
BRANCH   1   7
ATOM      6  OXT ASP A   1      35.343 -25.143 -10.634  0.00  0.00    -0.253 OA
ATOM      7  C   ASP A   1      35.569 -24.564 -11.690  0.00  0.00    +0.293 C 
BRANCH   7   8
ATOM      8  O   ASP A   1      34.736 -23.618 -12.201  0.00  0.00    -0.482 OA
ATOM      9  H   ASP A   1      33.845 -23.576 -11.917  0.00  0.00    +0.295 HD
ENDBRANCH   7   8
ENDBRANCH   1   7
BRANCH   1  10
ATOM     10  CB  ASP A   1      37.170 -26.263 -12.687  0.00  0.00    +0.098 C 
BRANCH  10  12
ATOM     11  OD2 ASP A   1      38.417 -26.743 -14.732  0.00  0.00    -0.250 OA
ATOM     12  CG  ASP A   1      37.358 -26.693 -14.124  0.00  0.00    +0.312 C 
BRANCH  12  13
ATOM     13  OD1 ASP A   1      36.160 -27.025 -14.671  0.00  0.00    -0.480 OA
ATOM     14  HD1 ASP A   1      35.646 -26.371 -15.104  0.00  0.00    +0.295 HD
ENDBRANCH  12  13
ENDBRANCH  10  12
ENDBRANCH   1  10
TORSDOF 6
ENDMDL
MODEL 9
REMARK VINA RESULT:      -4.8     10.441     11.066
REMARK  Name = 83887
REMARK  6 active torsions:
REMARK  status: ('A' for Active; 'I' for Inactive)
REMARK    1  A    between atoms: CA_1  and  N_2
REMARK    2  A    between atoms: CA_1  and  C_7
REMARK    3  A    between atoms: CA_1  and  CB_10
REMARK    4  A    between atoms: C_7  and  O_8
REMARK    5  A    between atoms: CB_10  and  CG_12
REMARK    6  A    between atoms: CG_12  and  OD1_13
REMARK                            x       y       z     vdW  Elec       q    Type
REMARK                         _______ _______ _______ _____ _____    ______ ____
ROOT
ATOM      1  CA  ASP A   1      41.806 -14.619 -16.302  0.00  0.00    +0.047 C 
ENDROOT
BRANCH   1   2
ATOM      2  N   ASP A   1      40.933 -14.415 -17.458  0.00  0.00    +0.389 N 
ATOM      3  H1  ASP A   1      41.288 -14.948 -18.251  0.00  0.00    -0.088 HD
ATOM      4  H2  ASP A   1      40.912 -13.423 -17.698  0.00  0.00    -0.088 HD
ATOM      5  H3  ASP A   1      39.989 -14.729 -17.231  0.00  0.00    -0.088 HD
ENDBRANCH   1   2
BRANCH   1   7
ATOM      6  OXT ASP A   1      40.793 -14.074 -14.149  0.00  0.00    -0.253 OA
ATOM      7  C   ASP A   1      40.892 -14.831 -15.107  0.00  0.00    +0.293 C 
BRANCH   7   8
ATOM      8  O   ASP A   1      40.154 -15.969 -15.221  0.00  0.00    -0.482 OA
ATOM      9  H   ASP A   1      39.757 -16.188 -16.041  0.00  0.00    +0.295 HD
ENDBRANCH   7   8
ENDBRANCH   1   7
BRANCH   1  10
ATOM     10  CB  ASP A   1      42.731 -15.816 -16.551  0.00  0.00    +0.098 C 
BRANCH  10  12
ATOM     11  OD2 ASP A   1      42.444 -16.622 -18.840  0.00  0.00    -0.250 OA
ATOM     12  CG  ASP A   1      42.217 -16.726 -17.644  0.00  0.00    +0.312 C 
BRANCH  12  13
ATOM     13  OD1 ASP A   1      41.441 -17.703 -17.107  0.00  0.00    -0.480 OA
ATOM     14  HD1 ASP A   1      41.401 -18.545 -17.517  0.00  0.00    +0.295 HD
ENDBRANCH  12  13
ENDBRANCH  10  12
ENDBRANCH   1  10
TORSDOF 6
ENDMDL
