MODEL 1
REMARK VINA RESULT:      -7.0      0.000      0.000
REMARK  Name = 12092
REMARK  3 active torsions:
REMARK  status: ('A' for Active; 'I' for Inactive)
REMARK    1  A    between atoms: C_1  and  N_7
REMARK    2  A    between atoms: C_4  and  C_11
REMARK    3  A    between atoms: C_11  and  O_12
REMARK                            x       y       z     vdW  Elec       q    Type
REMARK                         _______ _______ _______ _____ _____    ______ ____
ROOT
ATOM      1  C   UNL     1      34.670 -18.920 -21.222  0.00  0.00    +0.048 C 
ATOM      2  C   UNL     1      35.846 -19.573 -20.853  0.00  0.00    +0.015 C 
ATOM      3  C   UNL     1      33.433 -19.451 -20.854  0.00  0.00    +0.015 C 
ATOM      4  C   UNL     1      34.550 -21.286 -19.748  0.00  0.00    +0.076 C 
ATOM      5  C   UNL     1      35.786 -20.756 -20.116  0.00  0.00    +0.008 C 
ATOM      6  C   UNL     1      33.373 -20.634 -20.116  0.00  0.00    +0.008 C 
ENDROOT
BRANCH   1   7
ATOM      7  N   UNL     1      34.729 -17.726 -21.969  0.00  0.00    -0.304 N 
ATOM      8  C   UNL     1      34.607 -16.441 -21.308  0.00  0.00    +0.112 C 
ATOM      9  C   UNL     1      34.928 -17.766 -23.404  0.00  0.00    +0.112 C 
ENDBRANCH   1   7
BRANCH   4  11
ATOM     10  O   UNL     1      33.774 -23.493 -19.245  0.00  0.00    -0.245 OA
ATOM     11  C   UNL     1      34.488 -22.519 -18.980  0.00  0.00    +0.338 C 
BRANCH  11  12
ATOM     12  O   UNL     1      35.318 -22.504 -17.901  0.00  0.00    -0.477 OA
ATOM     13  H   UNL     1      35.657 -23.308 -17.560  0.00  0.00    +0.295 HD
ENDBRANCH  11  12
ENDBRANCH   4  11
TORSDOF 3
ENDMDL
MODEL 2
REMARK VINA RESULT:      -7.0      0.026      1.395
REMARK  Name = 12092
REMARK  3 active torsions:
REMARK  status: ('A' for Active; 'I' for Inactive)
REMARK    1  A    between atoms: C_1  and  N_7
REMARK    2  A    between atoms: C_4  and  C_11
REMARK    3  A    between atoms: C_11  and  O_12
REMARK                            x       y       z     vdW  Elec       q    Type
REMARK                         _______ _______ _______ _____ _____    ______ ____
ROOT
ATOM      1  C   UNL     1      34.678 -18.928 -21.213  0.00  0.00    +0.048 C 
ATOM      2  C   UNL     1      33.440 -19.471 -20.870  0.00  0.00    +0.015 C 
ATOM      3  C   UNL     1      35.853 -19.571 -20.825  0.00  0.00    +0.015 C 
ATOM      4  C   UNL     1      34.552 -21.300 -19.750  0.00  0.00    +0.076 C 
ATOM      5  C   UNL     1      33.377 -20.657 -20.138  0.00  0.00    +0.008 C 
ATOM      6  C   UNL     1      35.790 -20.758 -20.093  0.00  0.00    +0.008 C 
ENDROOT
BRANCH   1   7
ATOM      7  N   UNL     1      34.743 -17.728 -21.951  0.00  0.00    -0.304 N 
ATOM      8  C   UNL     1      34.617 -16.448 -21.283  0.00  0.00    +0.112 C 
ATOM      9  C   UNL     1      34.949 -17.759 -23.386  0.00  0.00    +0.112 C 
ENDBRANCH   1   7
BRANCH   4  11
ATOM     10  O   UNL     1      33.787 -23.515 -19.268  0.00  0.00    -0.245 OA
ATOM     11  C   UNL     1      34.486 -22.536 -18.987  0.00  0.00    +0.338 C 
BRANCH  11  12
ATOM     12  O   UNL     1      35.296 -22.516 -17.892  0.00  0.00    -0.477 OA
ATOM     13  H   UNL     1      35.790 -21.747 -17.690  0.00  0.00    +0.295 HD
ENDBRANCH  11  12
ENDBRANCH   4  11
TORSDOF 3
ENDMDL
MODEL 3
REMARK VINA RESULT:      -6.4      3.648      5.319
REMARK  Name = 12092
REMARK  3 active torsions:
REMARK  status: ('A' for Active; 'I' for Inactive)
REMARK    1  A    between atoms: C_1  and  N_7
REMARK    2  A    between atoms: C_4  and  C_11
REMARK    3  A    between atoms: C_11  and  O_12
REMARK                            x       y       z     vdW  Elec       q    Type
REMARK                         _______ _______ _______ _____ _____    ______ ____
ROOT
ATOM      1  C   UNL     1      35.312 -20.412 -20.234  0.00  0.00    +0.048 C 
ATOM      2  C   UNL     1      34.117 -19.993 -20.818  0.00  0.00    +0.015 C 
ATOM      3  C   UNL     1      36.509 -19.774 -20.560  0.00  0.00    +0.015 C 
ATOM      4  C   UNL     1      35.315 -18.298 -22.055  0.00  0.00    +0.076 C 
ATOM      5  C   UNL     1      34.119 -18.937 -21.729  0.00  0.00    +0.008 C 
ATOM      6  C   UNL     1      36.511 -18.717 -21.470  0.00  0.00    +0.008 C 
ENDROOT
BRANCH   1   7
ATOM      7  N   UNL     1      35.312 -21.481 -19.315  0.00  0.00    -0.304 N 
ATOM      8  C   UNL     1      34.193 -22.401 -19.261  0.00  0.00    +0.112 C 
ATOM      9  C   UNL     1      36.436 -21.682 -18.422  0.00  0.00    +0.112 C 
ENDBRANCH   1   7
BRANCH   4  11
ATOM     10  O   UNL     1      35.283 -15.997 -22.710  0.00  0.00    -0.245 OA
ATOM     11  C   UNL     1      35.317 -17.197 -23.005  0.00  0.00    +0.338 C 
BRANCH  11  12
ATOM     12  O   UNL     1      35.360 -17.624 -24.298  0.00  0.00    -0.477 OA
ATOM     13  H   UNL     1      34.861 -17.180 -24.953  0.00  0.00    +0.295 HD
ENDBRANCH  11  12
ENDBRANCH   4  11
TORSDOF 3
ENDMDL
MODEL 4
REMARK VINA RESULT:      -6.3      4.186      5.777
REMARK  Name = 12092
REMARK  3 active torsions:
REMARK  status: ('A' for Active; 'I' for Inactive)
REMARK    1  A    between atoms: C_1  and  N_7
REMARK    2  A    between atoms: C_4  and  C_11
REMARK    3  A    between atoms: C_11  and  O_12
REMARK                            x       y       z     vdW  Elec       q    Type
REMARK                         _______ _______ _______ _____ _____    ______ ____
ROOT
ATOM      1  C   UNL     1      35.018 -19.099 -21.568  0.00  0.00    +0.048 C 
ATOM      2  C   UNL     1      34.863 -19.491 -22.898  0.00  0.00    +0.015 C 
ATOM      3  C   UNL     1      34.984 -17.746 -21.232  0.00  0.00    +0.015 C 
ATOM      4  C   UNL     1      34.642 -17.177 -23.555  0.00  0.00    +0.076 C 
ATOM      5  C   UNL     1      34.676 -18.530 -23.891  0.00  0.00    +0.008 C 
ATOM      6  C   UNL     1      34.795 -16.784 -22.225  0.00  0.00    +0.008 C 
ENDROOT
BRANCH   1   7
ATOM      7  N   UNL     1      35.210 -20.070 -20.564  0.00  0.00    -0.304 N 
ATOM      8  C   UNL     1      34.077 -20.780 -20.004  0.00  0.00    +0.112 C 
ATOM      9  C   UNL     1      36.543 -20.381 -20.088  0.00  0.00    +0.112 C 
ENDBRANCH   1   7
BRANCH   4  11
ATOM     10  O   UNL     1      33.973 -15.047 -24.415  0.00  0.00    -0.245 OA
ATOM     11  C   UNL     1      34.446 -16.175 -24.590  0.00  0.00    +0.338 C 
BRANCH  11  12
ATOM     12  O   UNL     1      34.847 -16.608 -25.818  0.00  0.00    -0.477 OA
ATOM     13  H   UNL     1      35.555 -16.181 -26.256  0.00  0.00    +0.295 HD
ENDBRANCH  11  12
ENDBRANCH   4  11
TORSDOF 3
ENDMDL
MODEL 5
REMARK VINA RESULT:      -6.2      3.304      5.125
REMARK  Name = 12092
REMARK  3 active torsions:
REMARK  status: ('A' for Active; 'I' for Inactive)
REMARK    1  A    between atoms: C_1  and  N_7
REMARK    2  A    between atoms: C_4  and  C_11
REMARK    3  A    between atoms: C_11  and  O_12
REMARK                            x       y       z     vdW  Elec       q    Type
REMARK                         _______ _______ _______ _____ _____    ______ ____
ROOT
ATOM      1  C   UNL     1      34.546 -21.548 -19.121  0.00  0.00    +0.048 C 
ATOM      2  C   UNL     1      33.346 -21.094 -19.668  0.00  0.00    +0.015 C 
ATOM      3  C   UNL     1      35.761 -21.107 -19.644  0.00  0.00    +0.015 C 
ATOM      4  C   UNL     1      34.577 -19.761 -21.263  0.00  0.00    +0.076 C 
ATOM      5  C   UNL     1      33.362 -20.201 -20.740  0.00  0.00    +0.008 C 
ATOM      6  C   UNL     1      35.777 -20.213 -20.715  0.00  0.00    +0.008 C 
ENDROOT
BRANCH   1   7
ATOM      7  N   UNL     1      34.531 -22.452 -18.039  0.00  0.00    -0.304 N 
ATOM      8  C   UNL     1      33.396 -23.328 -17.831  0.00  0.00    +0.112 C 
ATOM      9  C   UNL     1      35.657 -22.527 -17.130  0.00  0.00    +0.112 C 
ENDBRANCH   1   7
BRANCH   4  11
ATOM     10  O   UNL     1      34.585 -19.145 -23.576  0.00  0.00    -0.245 OA
ATOM     11  C   UNL     1      34.593 -18.830 -22.380  0.00  0.00    +0.338 C 
BRANCH  11  12
ATOM     12  O   UNL     1      34.619 -17.530 -21.975  0.00  0.00    -0.477 OA
ATOM     13  H   UNL     1      34.007 -17.227 -21.334  0.00  0.00    +0.295 HD
ENDBRANCH  11  12
ENDBRANCH   4  11
TORSDOF 3
ENDMDL
MODEL 6
REMARK VINA RESULT:      -6.2      6.648      8.273
REMARK  Name = 12092
REMARK  3 active torsions:
REMARK  status: ('A' for Active; 'I' for Inactive)
REMARK    1  A    between atoms: C_1  and  N_7
REMARK    2  A    between atoms: C_4  and  C_11
REMARK    3  A    between atoms: C_11  and  O_12
REMARK                            x       y       z     vdW  Elec       q    Type
REMARK                         _______ _______ _______ _____ _____    ______ ____
ROOT
ATOM      1  C   UNL     1      35.872 -24.283 -15.142  0.00  0.00    +0.048 C 
ATOM      2  C   UNL     1      36.294 -25.559 -14.769  0.00  0.00    +0.015 C 
ATOM      3  C   UNL     1      36.811 -23.305 -15.467  0.00  0.00    +0.015 C 
ATOM      4  C   UNL     1      38.596 -24.878 -15.047  0.00  0.00    +0.076 C 
ATOM      5  C   UNL     1      37.656 -25.856 -14.722  0.00  0.00    +0.008 C 
ATOM      6  C   UNL     1      38.173 -23.602 -15.420  0.00  0.00    +0.008 C 
ENDROOT
BRANCH   1   7
ATOM      7  N   UNL     1      34.495 -23.981 -15.188  0.00  0.00    -0.304 N 
ATOM      8  C   UNL     1      33.916 -23.379 -16.372  0.00  0.00    +0.112 C 
ATOM      9  C   UNL     1      33.639 -24.282 -14.058  0.00  0.00    +0.112 C 
ENDBRANCH   1   7
BRANCH   4  11
ATOM     10  O   UNL     1      40.801 -24.808 -14.122  0.00  0.00    -0.245 OA
ATOM     11  C   UNL     1      40.016 -25.188 -14.997  0.00  0.00    +0.338 C 
BRANCH  11  12
ATOM     12  O   UNL     1      40.417 -25.965 -16.042  0.00  0.00    -0.477 OA
ATOM     13  H   UNL     1      41.156 -26.531 -15.946  0.00  0.00    +0.295 HD
ENDBRANCH  11  12
ENDBRANCH   4  11
TORSDOF 3
ENDMDL
MODEL 7
REMARK VINA RESULT:      -6.2      2.222      3.497
REMARK  Name = 12092
REMARK  3 active torsions:
REMARK  status: ('A' for Active; 'I' for Inactive)
REMARK    1  A    between atoms: C_1  and  N_7
REMARK    2  A    between atoms: C_4  and  C_11
REMARK    3  A    between atoms: C_11  and  O_12
REMARK                            x       y       z     vdW  Elec       q    Type
REMARK                         _______ _______ _______ _____ _____    ______ ____
ROOT
ATOM      1  C   UNL     1      34.549 -16.657 -23.245  0.00  0.00    +0.048 C 
ATOM      2  C   UNL     1      34.711 -17.947 -23.750  0.00  0.00    +0.015 C 
ATOM      3  C   UNL     1      34.747 -16.409 -21.887  0.00  0.00    +0.015 C 
ATOM      4  C   UNL     1      35.269 -18.741 -21.537  0.00  0.00    +0.076 C 
ATOM      5  C   UNL     1      35.071 -18.989 -22.895  0.00  0.00    +0.008 C 
ATOM      6  C   UNL     1      35.108 -17.451 -21.033  0.00  0.00    +0.008 C 
ENDROOT
BRANCH   1   7
ATOM      7  N   UNL     1      34.183 -15.603 -24.108  0.00  0.00    -0.304 N 
ATOM      8  C   UNL     1      33.844 -15.872 -25.491  0.00  0.00    +0.112 C 
ATOM      9  C   UNL     1      34.128 -14.240 -23.619  0.00  0.00    +0.112 C 
ENDBRANCH   1   7
BRANCH   4  11
ATOM     10  O   UNL     1      34.940 -20.806 -20.372  0.00  0.00    -0.245 OA
ATOM     11  C   UNL     1      35.645 -19.828 -20.646  0.00  0.00    +0.338 C 
BRANCH  11  12
ATOM     12  O   UNL     1      36.890 -19.664 -20.120  0.00  0.00    -0.477 OA
ATOM     13  H   UNL     1      37.004 -19.168 -19.334  0.00  0.00    +0.295 HD
ENDBRANCH  11  12
ENDBRANCH   4  11
TORSDOF 3
ENDMDL
MODEL 8
REMARK VINA RESULT:      -6.2      2.192      3.443
REMARK  Name = 12092
REMARK  3 active torsions:
REMARK  status: ('A' for Active; 'I' for Inactive)
REMARK    1  A    between atoms: C_1  and  N_7
REMARK    2  A    between atoms: C_4  and  C_11
REMARK    3  A    between atoms: C_11  and  O_12
REMARK                            x       y       z     vdW  Elec       q    Type
REMARK                         _______ _______ _______ _____ _____    ______ ____
ROOT
ATOM      1  C   UNL     1      34.550 -16.719 -23.229  0.00  0.00    +0.048 C 
ATOM      2  C   UNL     1      34.780 -16.461 -21.878  0.00  0.00    +0.015 C 
ATOM      3  C   UNL     1      34.676 -18.018 -23.722  0.00  0.00    +0.015 C 
ATOM      4  C   UNL     1      35.262 -18.801 -21.513  0.00  0.00    +0.076 C 
ATOM      5  C   UNL     1      35.136 -17.502 -21.020  0.00  0.00    +0.008 C 
ATOM      6  C   UNL     1      35.031 -19.059 -22.864  0.00  0.00    +0.008 C 
ENDROOT
BRANCH   1   7
ATOM      7  N   UNL     1      34.192 -15.667 -24.097  0.00  0.00    -0.304 N 
ATOM      8  C   UNL     1      33.881 -15.937 -25.487  0.00  0.00    +0.112 C 
ATOM      9  C   UNL     1      34.117 -14.305 -23.608  0.00  0.00    +0.112 C 
ENDBRANCH   1   7
BRANCH   4  11
ATOM     10  O   UNL     1      34.935 -20.873 -20.362  0.00  0.00    -0.245 OA
ATOM     11  C   UNL     1      35.633 -19.885 -20.618  0.00  0.00    +0.338 C 
BRANCH  11  12
ATOM     12  O   UNL     1      36.866 -19.708 -20.068  0.00  0.00    -0.477 OA
ATOM     13  H   UNL     1      37.469 -19.105 -20.455  0.00  0.00    +0.295 HD
ENDBRANCH  11  12
ENDBRANCH   4  11
TORSDOF 3
ENDMDL
MODEL 9
REMARK VINA RESULT:      -6.1      3.768      5.477
REMARK  Name = 12092
REMARK  3 active torsions:
REMARK  status: ('A' for Active; 'I' for Inactive)
REMARK    1  A    between atoms: C_1  and  N_7
REMARK    2  A    between atoms: C_4  and  C_11
REMARK    3  A    between atoms: C_11  and  O_12
REMARK                            x       y       z     vdW  Elec       q    Type
REMARK                         _______ _______ _______ _____ _____    ______ ____
ROOT
ATOM      1  C   UNL     1      33.776 -14.204 -22.547  0.00  0.00    +0.048 C 
ATOM      2  C   UNL     1      33.880 -14.649 -21.229  0.00  0.00    +0.015 C 
ATOM      3  C   UNL     1      34.313 -14.966 -23.584  0.00  0.00    +0.015 C 
ATOM      4  C   UNL     1      35.058 -16.618 -21.987  0.00  0.00    +0.076 C 
ATOM      5  C   UNL     1      34.521 -15.856 -20.949  0.00  0.00    +0.008 C 
ATOM      6  C   UNL     1      34.954 -16.173 -23.305  0.00  0.00    +0.008 C 
ENDROOT
BRANCH   1   7
ATOM      7  N   UNL     1      33.130 -12.983 -22.830  0.00  0.00    -0.304 N 
ATOM      8  C   UNL     1      33.586 -12.148 -23.923  0.00  0.00    +0.112 C 
ATOM      9  C   UNL     1      31.992 -12.555 -22.041  0.00  0.00    +0.112 C 
ENDBRANCH   1   7
BRANCH   4  11
ATOM     10  O   UNL     1      35.601 -18.529 -20.653  0.00  0.00    -0.245 OA
ATOM     11  C   UNL     1      35.726 -17.876 -21.695  0.00  0.00    +0.338 C 
BRANCH  11  12
ATOM     12  O   UNL     1      36.534 -18.285 -22.712  0.00  0.00    -0.477 OA
ATOM     13  H   UNL     1      36.341 -19.077 -23.173  0.00  0.00    +0.295 HD
ENDBRANCH  11  12
ENDBRANCH   4  11
TORSDOF 3
ENDMDL
