MODEL 1
REMARK VINA RESULT:     -11.0      0.000      0.000
REMARK  Name = 46926350
REMARK  7 active torsions:
REMARK  status: ('A' for Active; 'I' for Inactive)
REMARK    1  A    between atoms: C_5  and  C_28
REMARK    2  A    between atoms: C_12  and  N_16
REMARK    3  A    between atoms: C_14  and  C_26
REMARK    4  A    between atoms: N_16  and  C_18
REMARK    5  A    between atoms: C_18  and  C_21
REMARK    6  A    between atoms: C_28  and  C_29
REMARK    7  A    between atoms: C_29  and  O_30
REMARK                            x       y       z     vdW  Elec       q    Type
REMARK                         _______ _______ _______ _____ _____    ______ ____
ROOT
ATOM      1  N   UNL     1      35.667 -24.493 -14.551  0.00  0.00    -0.285 N 
ATOM      2  N   UNL     1      33.425 -23.951 -14.583  0.00  0.00    -0.374 NA
ATOM      3  N   UNL     1      32.447 -23.118 -16.620  0.00  0.00    -0.152 N 
ATOM      4  N   UNL     1      31.242 -22.693 -17.096  0.00  0.00    -0.174 NA
ATOM      5  C   UNL     1      35.903 -24.146 -13.142  0.00  0.00    +0.078 C 
ATOM      6  C   UNL     1      36.371 -25.380 -12.359  0.00  0.00    +0.020 C 
ATOM      7  C   UNL     1      37.518 -26.119 -13.043  0.00  0.00    +0.003 C 
ATOM      8  C   UNL     1      36.732 -25.210 -15.256  0.00  0.00    +0.093 C 
ATOM      9  C   UNL     1      37.147 -26.456 -14.483  0.00  0.00    +0.022 C 
ATOM     10  C   UNL     1      34.574 -24.039 -15.212  0.00  0.00    +0.187 C 
ATOM     11  C   UNL     1      34.742 -23.654 -16.656  0.00  0.00    +0.079 C 
ATOM     12  C   UNL     1      33.662 -23.204 -17.314  0.00  0.00    +0.127 C 
ATOM     13  C   UNL     1      32.352 -23.490 -15.280  0.00  0.00    +0.191 C 
ATOM     14  C   UNL     1      31.042 -23.288 -14.910  0.00  0.00    +0.112 C 
ATOM     15  C   UNL     1      30.413 -22.800 -16.060  0.00  0.00    +0.100 C 
ENDROOT
BRANCH  12  16
ATOM     16  N   UNL     1      33.670 -22.820 -18.625  0.00  0.00    -0.316 N 
ATOM     17  H   UNL     1      32.828 -22.870 -19.131  0.00  0.00    +0.148 HD
BRANCH  16  18
ATOM     18  C   UNL     1      34.849 -22.349 -19.304  0.00  0.00    +0.117 C 
BRANCH  18  21
ATOM     19  O   UNL     1      36.344 -18.439 -21.682  0.00  0.00    -0.163 OA
ATOM     20  N   UNL     1      35.379 -19.109 -21.192  0.00  0.00    -0.127 N 
ATOM     21  C   UNL     1      34.568 -21.049 -20.004  0.00  0.00    +0.018 C 
ATOM     22  C   UNL     1      35.615 -20.307 -20.544  0.00  0.00    +0.119 C 
ATOM     23  C   UNL     1      33.265 -20.577 -20.119  0.00  0.00    +0.001 C 
ATOM     24  C   UNL     1      33.017 -19.374 -20.770  0.00  0.00    +0.022 C 
ATOM     25  C   UNL     1      34.081 -18.650 -21.300  0.00  0.00    +0.121 C 
ENDBRANCH  18  21
ENDBRANCH  16  18
ENDBRANCH  12  16
BRANCH  14  26
ATOM     26  C   UNL     1      30.433 -23.533 -13.590  0.00  0.00    +0.015 C 
ATOM     27  C   UNL     1      30.431 -25.014 -13.197  0.00  0.00    +0.001 C 
ENDBRANCH  14  26
BRANCH   5  28
ATOM     28  C   UNL     1      36.881 -22.975 -13.037  0.00  0.00    +0.052 C 
BRANCH  28  29
ATOM     29  C   UNL     1      37.386 -22.798 -11.618  0.00  0.00    +0.139 C 
BRANCH  29  30
ATOM     30  O   UNL     1      38.797 -22.958 -11.619  0.00  0.00    -0.382 OA
ATOM     31  H   UNL     1      39.138 -22.829 -10.719  0.00  0.00    +0.210 HD
ENDBRANCH  29  30
ENDBRANCH  28  29
ENDBRANCH   5  28
TORSDOF 7
ENDMDL
MODEL 2
REMARK VINA RESULT:     -10.2      3.059      5.967
REMARK  Name = 46926350
REMARK  7 active torsions:
REMARK  status: ('A' for Active; 'I' for Inactive)
REMARK    1  A    between atoms: C_5  and  C_28
REMARK    2  A    between atoms: C_12  and  N_16
REMARK    3  A    between atoms: C_14  and  C_26
REMARK    4  A    between atoms: N_16  and  C_18
REMARK    5  A    between atoms: C_18  and  C_21
REMARK    6  A    between atoms: C_28  and  C_29
REMARK    7  A    between atoms: C_29  and  O_30
REMARK                            x       y       z     vdW  Elec       q    Type
REMARK                         _______ _______ _______ _____ _____    ______ ____
ROOT
ATOM      1  N   UNL     1      35.233 -24.010 -14.782  0.00  0.00    -0.285 N 
ATOM      2  N   UNL     1      35.294 -22.959 -16.835  0.00  0.00    -0.374 NA
ATOM      3  N   UNL     1      33.223 -22.426 -17.942  0.00  0.00    -0.152 N 
ATOM      4  N   UNL     1      32.780 -21.843 -19.092  0.00  0.00    -0.174 NA
ATOM      5  C   UNL     1      36.483 -24.767 -14.945  0.00  0.00    +0.078 C 
ATOM      6  C   UNL     1      37.495 -24.367 -13.862  0.00  0.00    +0.020 C 
ATOM      7  C   UNL     1      36.902 -24.395 -12.456  0.00  0.00    +0.003 C 
ATOM      8  C   UNL     1      34.623 -23.995 -13.451  0.00  0.00    +0.093 C 
ATOM      9  C   UNL     1      35.633 -23.551 -12.399  0.00  0.00    +0.022 C 
ATOM     10  C   UNL     1      34.594 -23.474 -15.850  0.00  0.00    +0.187 C 
ATOM     11  C   UNL     1      33.091 -23.498 -15.848  0.00  0.00    +0.079 C 
ATOM     12  C   UNL     1      32.453 -22.968 -16.903  0.00  0.00    +0.127 C 
ATOM     13  C   UNL     1      34.616 -22.431 -17.889  0.00  0.00    +0.191 C 
ATOM     14  C   UNL     1      35.054 -21.831 -19.047  0.00  0.00    +0.112 C 
ATOM     15  C   UNL     1      33.888 -21.494 -19.743  0.00  0.00    +0.100 C 
ENDROOT
BRANCH  12  16
ATOM     16  N   UNL     1      31.094 -22.922 -17.032  0.00  0.00    -0.316 N 
ATOM     17  H   UNL     1      30.713 -22.394 -17.770  0.00  0.00    +0.148 HD
BRANCH  16  18
ATOM     18  C   UNL     1      30.192 -23.607 -16.144  0.00  0.00    +0.117 C 
BRANCH  18  21
ATOM     19  O   UNL     1      26.381 -22.116 -18.681  0.00  0.00    -0.163 OA
ATOM     20  N   UNL     1      26.937 -22.272 -17.546  0.00  0.00    -0.127 N 
ATOM     21  C   UNL     1      28.818 -23.002 -16.220  0.00  0.00    +0.018 C 
ATOM     22  C   UNL     1      28.200 -22.826 -17.454  0.00  0.00    +0.119 C 
ATOM     23  C   UNL     1      28.154 -22.614 -15.061  0.00  0.00    +0.001 C 
ATOM     24  C   UNL     1      26.884 -22.056 -15.143  0.00  0.00    +0.022 C 
ATOM     25  C   UNL     1      26.288 -21.890 -16.389  0.00  0.00    +0.121 C 
ENDBRANCH  18  21
ENDBRANCH  16  18
ENDBRANCH  12  16
BRANCH  14  26
ATOM     26  C   UNL     1      36.447 -21.595 -19.465  0.00  0.00    +0.015 C 
ATOM     27  C   UNL     1      36.639 -20.250 -20.177  0.00  0.00    +0.001 C 
ENDBRANCH  14  26
BRANCH   5  28
ATOM     28  C   UNL     1      36.199 -26.269 -14.962  0.00  0.00    +0.052 C 
BRANCH  28  29
ATOM     29  C   UNL     1      37.336 -27.042 -15.603  0.00  0.00    +0.139 C 
BRANCH  29  30
ATOM     30  O   UNL     1      36.846 -27.673 -16.778  0.00  0.00    -0.382 OA
ATOM     31  H   UNL     1      36.635 -28.600 -16.582  0.00  0.00    +0.210 HD
ENDBRANCH  29  30
ENDBRANCH  28  29
ENDBRANCH   5  28
TORSDOF 7
ENDMDL
MODEL 3
REMARK VINA RESULT:      -9.7      3.178      5.785
REMARK  Name = 46926350
REMARK  7 active torsions:
REMARK  status: ('A' for Active; 'I' for Inactive)
REMARK    1  A    between atoms: C_5  and  C_28
REMARK    2  A    between atoms: C_12  and  N_16
REMARK    3  A    between atoms: C_14  and  C_26
REMARK    4  A    between atoms: N_16  and  C_18
REMARK    5  A    between atoms: C_18  and  C_21
REMARK    6  A    between atoms: C_28  and  C_29
REMARK    7  A    between atoms: C_29  and  O_30
REMARK                            x       y       z     vdW  Elec       q    Type
REMARK                         _______ _______ _______ _____ _____    ______ ____
ROOT
ATOM      1  N   UNL     1      36.616 -24.595 -14.221  0.00  0.00    -0.285 N 
ATOM      2  N   UNL     1      35.539 -23.709 -16.058  0.00  0.00    -0.374 NA
ATOM      3  N   UNL     1      33.181 -23.238 -15.923  0.00  0.00    -0.152 N 
ATOM      4  N   UNL     1      32.174 -22.742 -16.697  0.00  0.00    -0.174 NA
ATOM      5  C   UNL     1      37.610 -25.377 -14.971  0.00  0.00    +0.078 C 
ATOM      6  C   UNL     1      39.030 -24.906 -14.628  0.00  0.00    +0.020 C 
ATOM      7  C   UNL     1      39.280 -24.816 -13.125  0.00  0.00    +0.003 C 
ATOM      8  C   UNL     1      36.810 -24.468 -12.774  0.00  0.00    +0.093 C 
ATOM      9  C   UNL     1      38.211 -23.955 -12.461  0.00  0.00    +0.022 C 
ATOM     10  C   UNL     1      35.489 -24.136 -14.818  0.00  0.00    +0.187 C 
ATOM     11  C   UNL     1      34.221 -24.141 -14.010  0.00  0.00    +0.079 C 
ATOM     12  C   UNL     1      33.102 -23.688 -14.597  0.00  0.00    +0.127 C 
ATOM     13  C   UNL     1      34.387 -23.257 -16.622  0.00  0.00    +0.191 C 
ATOM     14  C   UNL     1      34.120 -22.754 -17.875  0.00  0.00    +0.112 C 
ATOM     15  C   UNL     1      32.753 -22.459 -17.862  0.00  0.00    +0.100 C 
ENDROOT
BRANCH  12  16
ATOM     16  N   UNL     1      31.883 -23.636 -13.983  0.00  0.00    -0.316 N 
ATOM     17  H   UNL     1      31.714 -22.910 -13.340  0.00  0.00    +0.148 HD
BRANCH  16  18
ATOM     18  C   UNL     1      30.833 -24.590 -14.227  0.00  0.00    +0.117 C 
BRANCH  18  21
ATOM     19  O   UNL     1      27.517 -24.794 -17.712  0.00  0.00    -0.163 OA
ATOM     20  N   UNL     1      28.082 -24.124 -16.787  0.00  0.00    -0.127 N 
ATOM     21  C   UNL     1      29.726 -23.962 -15.027  0.00  0.00    +0.018 C 
ATOM     22  C   UNL     1      29.101 -24.683 -16.040  0.00  0.00    +0.119 C 
ATOM     23  C   UNL     1      29.318 -22.659 -14.762  0.00  0.00    +0.001 C 
ATOM     24  C   UNL     1      28.293 -22.088 -15.508  0.00  0.00    +0.022 C 
ATOM     25  C   UNL     1      27.685 -22.829 -16.516  0.00  0.00    +0.121 C 
ENDBRANCH  18  21
ENDBRANCH  16  18
ENDBRANCH  12  16
BRANCH  14  26
ATOM     26  C   UNL     1      35.067 -22.569 -18.989  0.00  0.00    +0.015 C 
ATOM     27  C   UNL     1      36.093 -21.460 -18.724  0.00  0.00    +0.001 C 
ENDBRANCH  14  26
BRANCH   5  28
ATOM     28  C   UNL     1      37.408 -26.872 -14.725  0.00  0.00    +0.052 C 
BRANCH  28  29
ATOM     29  C   UNL     1      36.310 -27.437 -15.606  0.00  0.00    +0.139 C 
BRANCH  29  30
ATOM     30  O   UNL     1      36.847 -27.671 -16.901  0.00  0.00    -0.382 OA
ATOM     31  H   UNL     1      36.507 -27.001 -17.516  0.00  0.00    +0.210 HD
ENDBRANCH  29  30
ENDBRANCH  28  29
ENDBRANCH   5  28
TORSDOF 7
ENDMDL
MODEL 4
REMARK VINA RESULT:      -9.6      2.898      7.479
REMARK  Name = 46926350
REMARK  7 active torsions:
REMARK  status: ('A' for Active; 'I' for Inactive)
REMARK    1  A    between atoms: C_5  and  C_28
REMARK    2  A    between atoms: C_12  and  N_16
REMARK    3  A    between atoms: C_14  and  C_26
REMARK    4  A    between atoms: N_16  and  C_18
REMARK    5  A    between atoms: C_18  and  C_21
REMARK    6  A    between atoms: C_28  and  C_29
REMARK    7  A    between atoms: C_29  and  O_30
REMARK                            x       y       z     vdW  Elec       q    Type
REMARK                         _______ _______ _______ _____ _____    ______ ____
ROOT
ATOM      1  N   UNL     1      31.149 -23.903 -15.366  0.00  0.00    -0.285 N 
ATOM      2  N   UNL     1      32.771 -23.218 -16.856  0.00  0.00    -0.374 NA
ATOM      3  N   UNL     1      34.977 -22.707 -16.037  0.00  0.00    -0.152 N 
ATOM      4  N   UNL     1      36.189 -22.292 -16.505  0.00  0.00    -0.174 NA
ATOM      5  C   UNL     1      30.006 -23.321 -16.084  0.00  0.00    +0.078 C 
ATOM      6  C   UNL     1      29.017 -24.420 -16.497  0.00  0.00    +0.020 C 
ATOM      7  C   UNL     1      28.650 -25.351 -15.345  0.00  0.00    +0.003 C 
ATOM      8  C   UNL     1      30.855 -24.812 -14.255  0.00  0.00    +0.093 C 
ATOM      9  C   UNL     1      29.909 -25.921 -14.701  0.00  0.00    +0.022 C 
ATOM     10  C   UNL     1      32.418 -23.502 -15.624  0.00  0.00    +0.187 C 
ATOM     11  C   UNL     1      33.367 -23.402 -14.463  0.00  0.00    +0.079 C 
ATOM     12  C   UNL     1      34.625 -23.005 -14.713  0.00  0.00    +0.127 C 
ATOM     13  C   UNL     1      34.052 -22.818 -17.074  0.00  0.00    +0.191 C 
ATOM     14  C   UNL     1      34.713 -22.459 -18.227  0.00  0.00    +0.112 C 
ATOM     15  C   UNL     1      36.013 -22.147 -17.816  0.00  0.00    +0.100 C 
ENDROOT
BRANCH  12  16
ATOM     16  N   UNL     1      35.590 -22.871 -13.756  0.00  0.00    -0.316 N 
ATOM     17  H   UNL     1      36.033 -21.998 -13.659  0.00  0.00    +0.148 HD
BRANCH  16  18
ATOM     18  C   UNL     1      35.991 -23.942 -12.882  0.00  0.00    +0.117 C 
BRANCH  18  21
ATOM     19  O   UNL     1      36.935 -27.377 -16.122  0.00  0.00    -0.163 OA
ATOM     20  N   UNL     1      37.364 -26.584 -15.223  0.00  0.00    -0.127 N 
ATOM     21  C   UNL     1      36.954 -24.860 -13.583  0.00  0.00    +0.018 C 
ATOM     22  C   UNL     1      36.497 -25.732 -14.567  0.00  0.00    +0.119 C 
ATOM     23  C   UNL     1      38.306 -24.847 -13.255  0.00  0.00    +0.001 C 
ATOM     24  C   UNL     1      39.187 -25.700 -13.910  0.00  0.00    +0.022 C 
ATOM     25  C   UNL     1      38.704 -26.563 -14.889  0.00  0.00    +0.121 C 
ENDBRANCH  18  21
ENDBRANCH  16  18
ENDBRANCH  12  16
BRANCH  14  26
ATOM     26  C   UNL     1      34.170 -22.413 -19.596  0.00  0.00    +0.015 C 
ATOM     27  C   UNL     1      33.354 -21.145 -19.874  0.00  0.00    +0.001 C 
ENDBRANCH  14  26
BRANCH   5  28
ATOM     28  C   UNL     1      29.352 -22.223 -15.244  0.00  0.00    +0.052 C 
BRANCH  28  29
ATOM     29  C   UNL     1      27.870 -22.102 -15.545  0.00  0.00    +0.139 C 
BRANCH  29  30
ATOM     30  O   UNL     1      27.717 -21.563 -16.851  0.00  0.00    -0.382 OA
ATOM     31  H   UNL     1      28.470 -20.984 -17.051  0.00  0.00    +0.210 HD
ENDBRANCH  29  30
ENDBRANCH  28  29
ENDBRANCH   5  28
TORSDOF 7
ENDMDL
MODEL 5
REMARK VINA RESULT:      -9.2      2.727      6.109
REMARK  Name = 46926350
REMARK  7 active torsions:
REMARK  status: ('A' for Active; 'I' for Inactive)
REMARK    1  A    between atoms: C_5  and  C_28
REMARK    2  A    between atoms: C_12  and  N_16
REMARK    3  A    between atoms: C_14  and  C_26
REMARK    4  A    between atoms: N_16  and  C_18
REMARK    5  A    between atoms: C_18  and  C_21
REMARK    6  A    between atoms: C_28  and  C_29
REMARK    7  A    between atoms: C_29  and  O_30
REMARK                            x       y       z     vdW  Elec       q    Type
REMARK                         _______ _______ _______ _____ _____    ______ ____
ROOT
ATOM      1  N   UNL     1      35.389 -23.858 -15.081  0.00  0.00    -0.285 N 
ATOM      2  N   UNL     1      35.555 -22.718 -17.079  0.00  0.00    -0.374 NA
ATOM      3  N   UNL     1      33.562 -22.319 -18.372  0.00  0.00    -0.152 N 
ATOM      4  N   UNL     1      33.183 -21.728 -19.540  0.00  0.00    -0.174 NA
ATOM      5  C   UNL     1      36.713 -24.495 -15.142  0.00  0.00    +0.078 C 
ATOM      6  C   UNL     1      37.573 -24.056 -13.948  0.00  0.00    +0.020 C 
ATOM      7  C   UNL     1      36.850 -24.196 -12.612  0.00  0.00    +0.003 C 
ATOM      8  C   UNL     1      34.652 -23.954 -13.818  0.00  0.00    +0.093 C 
ATOM      9  C   UNL     1      35.510 -23.469 -12.655  0.00  0.00    +0.022 C 
ATOM     10  C   UNL     1      34.811 -23.333 -16.189  0.00  0.00    +0.187 C 
ATOM     11  C   UNL     1      33.323 -23.488 -16.340  0.00  0.00    +0.079 C 
ATOM     12  C   UNL     1      32.747 -22.970 -17.436  0.00  0.00    +0.127 C 
ATOM     13  C   UNL     1      34.938 -22.206 -18.178  0.00  0.00    +0.191 C 
ATOM     14  C   UNL     1      35.431 -21.520 -19.264  0.00  0.00    +0.112 C 
ATOM     15  C   UNL     1      34.313 -21.256 -20.063  0.00  0.00    +0.100 C 
ENDROOT
BRANCH  12  16
ATOM     16  N   UNL     1      31.409 -23.037 -17.700  0.00  0.00    -0.316 N 
ATOM     17  H   UNL     1      31.121 -23.431 -18.555  0.00  0.00    +0.148 HD
BRANCH  16  18
ATOM     18  C   UNL     1      30.398 -22.560 -16.793  0.00  0.00    +0.117 C 
BRANCH  18  21
ATOM     19  O   UNL     1      30.990 -23.284 -12.070  0.00  0.00    -0.163 OA
ATOM     20  N   UNL     1      30.639 -23.745 -13.204  0.00  0.00    -0.127 N 
ATOM     21  C   UNL     1      30.322 -23.443 -15.579  0.00  0.00    +0.018 C 
ATOM     22  C   UNL     1      30.701 -22.950 -14.333  0.00  0.00    +0.119 C 
ATOM     23  C   UNL     1      29.871 -24.754 -15.688  0.00  0.00    +0.001 C 
ATOM     24  C   UNL     1      29.805 -25.561 -14.557  0.00  0.00    +0.022 C 
ATOM     25  C   UNL     1      30.191 -25.046 -13.324  0.00  0.00    +0.121 C 
ENDBRANCH  18  21
ENDBRANCH  16  18
ENDBRANCH  12  16
BRANCH  14  26
ATOM     26  C   UNL     1      36.831 -21.146 -19.531  0.00  0.00    +0.015 C 
ATOM     27  C   UNL     1      36.961 -19.869 -20.371  0.00  0.00    +0.001 C 
ENDBRANCH  14  26
BRANCH   5  28
ATOM     28  C   UNL     1      36.569 -26.014 -15.239  0.00  0.00    +0.052 C 
BRANCH  28  29
ATOM     29  C   UNL     1      37.384 -26.719 -14.171  0.00  0.00    +0.139 C 
BRANCH  29  30
ATOM     30  O   UNL     1      38.583 -27.200 -14.763  0.00  0.00    -0.382 OA
ATOM     31  H   UNL     1      39.132 -27.622 -14.083  0.00  0.00    +0.210 HD
ENDBRANCH  29  30
ENDBRANCH  28  29
ENDBRANCH   5  28
TORSDOF 7
ENDMDL
MODEL 6
REMARK VINA RESULT:      -9.0      2.744      7.300
REMARK  Name = 46926350
REMARK  7 active torsions:
REMARK  status: ('A' for Active; 'I' for Inactive)
REMARK    1  A    between atoms: C_5  and  C_28
REMARK    2  A    between atoms: C_12  and  N_16
REMARK    3  A    between atoms: C_14  and  C_26
REMARK    4  A    between atoms: N_16  and  C_18
REMARK    5  A    between atoms: C_18  and  C_21
REMARK    6  A    between atoms: C_28  and  C_29
REMARK    7  A    between atoms: C_29  and  O_30
REMARK                            x       y       z     vdW  Elec       q    Type
REMARK                         _______ _______ _______ _____ _____    ______ ____
ROOT
ATOM      1  N   UNL     1      31.291 -23.791 -15.923  0.00  0.00    -0.285 N 
ATOM      2  N   UNL     1      32.400 -22.685 -17.617  0.00  0.00    -0.374 NA
ATOM      3  N   UNL     1      34.808 -22.627 -17.601  0.00  0.00    -0.152 N 
ATOM      4  N   UNL     1      35.840 -22.130 -18.341  0.00  0.00    -0.174 NA
ATOM      5  C   UNL     1      30.102 -22.926 -15.911  0.00  0.00    +0.078 C 
ATOM      6  C   UNL     1      28.844 -23.742 -16.238  0.00  0.00    +0.020 C 
ATOM      7  C   UNL     1      28.727 -25.014 -15.403  0.00  0.00    +0.003 C 
ATOM      8  C   UNL     1      31.232 -25.030 -15.144  0.00  0.00    +0.093 C 
ATOM      9  C   UNL     1      30.000 -25.845 -15.521  0.00  0.00    +0.022 C 
ATOM     10  C   UNL     1      32.445 -23.387 -16.508  0.00  0.00    +0.187 C 
ATOM     11  C   UNL     1      33.737 -23.774 -15.843  0.00  0.00    +0.079 C 
ATOM     12  C   UNL     1      34.882 -23.376 -16.419  0.00  0.00    +0.127 C 
ATOM     13  C   UNL     1      33.579 -22.299 -18.173  0.00  0.00    +0.191 C 
ATOM     14  C   UNL     1      33.858 -21.572 -19.308  0.00  0.00    +0.112 C 
ATOM     15  C   UNL     1      35.254 -21.501 -19.358  0.00  0.00    +0.100 C 
ENDROOT
BRANCH  12  16
ATOM     16  N   UNL     1      36.124 -23.656 -15.924  0.00  0.00    -0.316 N 
ATOM     17  H   UNL     1      36.869 -23.061 -16.169  0.00  0.00    +0.148 HD
BRANCH  16  18
ATOM     18  C   UNL     1      36.399 -24.776 -15.063  0.00  0.00    +0.117 C 
BRANCH  18  21
ATOM     19  O   UNL     1      35.205 -25.163 -10.415  0.00  0.00    -0.163 OA
ATOM     20  N   UNL     1      35.879 -24.569 -11.318  0.00  0.00    -0.127 N 
ATOM     21  C   UNL     1      36.517 -24.326 -13.634  0.00  0.00    +0.018 C 
ATOM     22  C   UNL     1      35.786 -24.967 -12.638  0.00  0.00    +0.119 C 
ATOM     23  C   UNL     1      37.354 -23.269 -13.295  0.00  0.00    +0.001 C 
ATOM     24  C   UNL     1      37.455 -22.861 -11.970  0.00  0.00    +0.022 C 
ATOM     25  C   UNL     1      36.713 -23.517 -10.993  0.00  0.00    +0.121 C 
ENDBRANCH  18  21
ENDBRANCH  16  18
ENDBRANCH  12  16
BRANCH  14  26
ATOM     26  C   UNL     1      32.897 -20.994 -20.264  0.00  0.00    +0.015 C 
ATOM     27  C   UNL     1      33.414 -19.716 -20.934  0.00  0.00    +0.001 C 
ENDBRANCH  14  26
BRANCH   5  28
ATOM     28  C   UNL     1      29.994 -22.186 -14.577  0.00  0.00    +0.052 C 
BRANCH  28  29
ATOM     29  C   UNL     1      31.187 -22.472 -13.685  0.00  0.00    +0.139 C 
BRANCH  29  30
ATOM     30  O   UNL     1      30.759 -23.294 -12.608  0.00  0.00    -0.382 OA
ATOM     31  H   UNL     1      31.378 -24.034 -12.499  0.00  0.00    +0.210 HD
ENDBRANCH  29  30
ENDBRANCH  28  29
ENDBRANCH   5  28
TORSDOF 7
ENDMDL
MODEL 7
REMARK VINA RESULT:      -8.5      6.150     12.823
REMARK  Name = 46926350
REMARK  7 active torsions:
REMARK  status: ('A' for Active; 'I' for Inactive)
REMARK    1  A    between atoms: C_5  and  C_28
REMARK    2  A    between atoms: C_12  and  N_16
REMARK    3  A    between atoms: C_14  and  C_26
REMARK    4  A    between atoms: N_16  and  C_18
REMARK    5  A    between atoms: C_18  and  C_21
REMARK    6  A    between atoms: C_28  and  C_29
REMARK    7  A    between atoms: C_29  and  O_30
REMARK                            x       y       z     vdW  Elec       q    Type
REMARK                         _______ _______ _______ _____ _____    ______ ____
ROOT
ATOM      1  N   UNL     1      32.456 -12.127 -22.284  0.00  0.00    -0.285 N 
ATOM      2  N   UNL     1      32.810 -13.598 -24.025  0.00  0.00    -0.374 NA
ATOM      3  N   UNL     1      33.977 -15.661 -23.600  0.00  0.00    -0.152 N 
ATOM      4  N   UNL     1      34.397 -16.774 -24.268  0.00  0.00    -0.174 NA
ATOM      5  C   UNL     1      32.511 -10.898 -23.089  0.00  0.00    +0.078 C 
ATOM      6  C   UNL     1      31.179 -10.140 -23.000  0.00  0.00    +0.020 C 
ATOM      7  C   UNL     1      30.699  -9.950 -21.563  0.00  0.00    +0.003 C 
ATOM      8  C   UNL     1      31.994 -12.005 -20.899  0.00  0.00    +0.093 C 
ATOM      9  C   UNL     1      30.649 -11.291 -20.840  0.00  0.00    +0.022 C 
ATOM     10  C   UNL     1      32.951 -13.298 -22.755  0.00  0.00    +0.187 C 
ATOM     11  C   UNL     1      33.648 -14.204 -21.778  0.00  0.00    +0.079 C 
ATOM     12  C   UNL     1      34.140 -15.364 -22.240  0.00  0.00    +0.127 C 
ATOM     13  C   UNL     1      33.321 -14.781 -24.460  0.00  0.00    +0.191 C 
ATOM     14  C   UNL     1      33.333 -15.367 -25.705  0.00  0.00    +0.112 C 
ATOM     15  C   UNL     1      34.004 -16.581 -25.525  0.00  0.00    +0.100 C 
ENDROOT
BRANCH  12  16
ATOM     16  N   UNL     1      34.794 -16.279 -21.466  0.00  0.00    -0.316 N 
ATOM     17  H   UNL     1      34.697 -16.219 -20.489  0.00  0.00    +0.148 HD
BRANCH  16  18
ATOM     18  C   UNL     1      35.619 -17.327 -22.007  0.00  0.00    +0.117 C 
BRANCH  18  21
ATOM     19  O   UNL     1      32.651 -20.681 -20.240  0.00  0.00    -0.163 OA
ATOM     20  N   UNL     1      33.843 -20.265 -20.409  0.00  0.00    -0.127 N 
ATOM     21  C   UNL     1      35.381 -18.617 -21.273  0.00  0.00    +0.018 C 
ATOM     22  C   UNL     1      34.083 -19.082 -21.082  0.00  0.00    +0.119 C 
ATOM     23  C   UNL     1      36.452 -19.355 -20.780  0.00  0.00    +0.001 C 
ATOM     24  C   UNL     1      36.220 -20.547 -20.103  0.00  0.00    +0.022 C 
ATOM     25  C   UNL     1      34.914 -20.989 -19.924  0.00  0.00    +0.121 C 
ENDBRANCH  18  21
ENDBRANCH  16  18
ENDBRANCH  12  16
BRANCH  14  26
ATOM     26  C   UNL     1      32.764 -14.834 -26.955  0.00  0.00    +0.015 C 
ATOM     27  C   UNL     1      33.326 -13.457 -27.328  0.00  0.00    +0.001 C 
ENDBRANCH  14  26
BRANCH   5  28
ATOM     28  C   UNL     1      33.707 -10.041 -22.673  0.00  0.00    +0.052 C 
BRANCH  28  29
ATOM     29  C   UNL     1      34.350  -9.366 -23.869  0.00  0.00    +0.139 C 
BRANCH  29  30
ATOM     30  O   UNL     1      35.530 -10.080 -24.211  0.00  0.00    -0.382 OA
ATOM     31  H   UNL     1      35.361 -11.034 -24.145  0.00  0.00    +0.210 HD
ENDBRANCH  29  30
ENDBRANCH  28  29
ENDBRANCH   5  28
TORSDOF 7
ENDMDL
MODEL 8
REMARK VINA RESULT:      -8.3     11.583     15.633
REMARK  Name = 46926350
REMARK  7 active torsions:
REMARK  status: ('A' for Active; 'I' for Inactive)
REMARK    1  A    between atoms: C_5  and  C_28
REMARK    2  A    between atoms: C_12  and  N_16
REMARK    3  A    between atoms: C_14  and  C_26
REMARK    4  A    between atoms: N_16  and  C_18
REMARK    5  A    between atoms: C_18  and  C_21
REMARK    6  A    between atoms: C_28  and  C_29
REMARK    7  A    between atoms: C_29  and  O_30
REMARK                            x       y       z     vdW  Elec       q    Type
REMARK                         _______ _______ _______ _____ _____    ______ ____
ROOT
ATOM      1  N   UNL     1      33.407 -12.302 -24.514  0.00  0.00    -0.285 N 
ATOM      2  N   UNL     1      32.479 -11.172 -22.729  0.00  0.00    -0.374 NA
ATOM      3  N   UNL     1      33.114  -8.884 -22.330  0.00  0.00    -0.152 N 
ATOM      4  N   UNL     1      32.850  -7.870 -21.458  0.00  0.00    -0.174 NA
ATOM      5  C   UNL     1      33.393 -13.635 -23.894  0.00  0.00    +0.078 C 
ATOM      6  C   UNL     1      32.522 -14.596 -24.714  0.00  0.00    +0.020 C 
ATOM      7  C   UNL     1      32.859 -14.580 -26.203  0.00  0.00    +0.003 C 
ATOM      8  C   UNL     1      33.717 -12.226 -25.944  0.00  0.00    +0.093 C 
ATOM      9  C   UNL     1      32.808 -13.155 -26.742  0.00  0.00    +0.022 C 
ATOM     10  C   UNL     1      33.286 -11.178 -23.765  0.00  0.00    +0.187 C 
ATOM     11  C   UNL     1      34.097  -9.979 -24.171  0.00  0.00    +0.079 C 
ATOM     12  C   UNL     1      33.980  -8.864 -23.432  0.00  0.00    +0.127 C 
ATOM     13  C   UNL     1      32.386 -10.027 -22.003  0.00  0.00    +0.191 C 
ATOM     14  C   UNL     1      31.644  -9.712 -20.887  0.00  0.00    +0.112 C 
ATOM     15  C   UNL     1      31.970  -8.382 -20.600  0.00  0.00    +0.100 C 
ENDROOT
BRANCH  12  16
ATOM     16  N   UNL     1      34.656  -7.705 -23.685  0.00  0.00    -0.316 N 
ATOM     17  H   UNL     1      35.084  -7.240 -22.931  0.00  0.00    +0.148 HD
BRANCH  16  18
ATOM     18  C   UNL     1      34.773  -7.128 -24.998  0.00  0.00    +0.117 C 
BRANCH  18  21
ATOM     19  O   UNL     1      30.707  -4.927 -23.654  0.00  0.00    -0.163 OA
ATOM     20  N   UNL     1      31.661  -5.030 -24.491  0.00  0.00    -0.127 N 
ATOM     21  C   UNL     1      33.703  -6.095 -25.217  0.00  0.00    +0.018 C 
ATOM     22  C   UNL     1      32.655  -5.972 -24.309  0.00  0.00    +0.119 C 
ATOM     23  C   UNL     1      33.750  -5.255 -26.325  0.00  0.00    +0.001 C 
ATOM     24  C   UNL     1      32.755  -4.303 -26.517  0.00  0.00    +0.022 C 
ATOM     25  C   UNL     1      31.718  -4.202 -25.595  0.00  0.00    +0.121 C 
ENDBRANCH  18  21
ENDBRANCH  16  18
ENDBRANCH  12  16
BRANCH  14  26
ATOM     26  C   UNL     1      30.710 -10.584 -20.153  0.00  0.00    +0.015 C 
ATOM     27  C   UNL     1      31.236 -10.997 -18.774  0.00  0.00    +0.001 C 
ENDBRANCH  14  26
BRANCH   5  28
ATOM     28  C   UNL     1      34.820 -14.148 -23.702  0.00  0.00    +0.052 C 
BRANCH  28  29
ATOM     29  C   UNL     1      34.832 -15.554 -23.132  0.00  0.00    +0.139 C 
BRANCH  29  30
ATOM     30  O   UNL     1      35.606 -16.382 -23.989  0.00  0.00    -0.382 OA
ATOM     31  H   UNL     1      35.058 -17.115 -24.312  0.00  0.00    +0.210 HD
ENDBRANCH  29  30
ENDBRANCH  28  29
ENDBRANCH   5  28
TORSDOF 7
ENDMDL
MODEL 9
REMARK VINA RESULT:      -8.0      2.799      7.246
REMARK  Name = 46926350
REMARK  7 active torsions:
REMARK  status: ('A' for Active; 'I' for Inactive)
REMARK    1  A    between atoms: C_5  and  C_28
REMARK    2  A    between atoms: C_12  and  N_16
REMARK    3  A    between atoms: C_14  and  C_26
REMARK    4  A    between atoms: N_16  and  C_18
REMARK    5  A    between atoms: C_18  and  C_21
REMARK    6  A    between atoms: C_28  and  C_29
REMARK    7  A    between atoms: C_29  and  O_30
REMARK                            x       y       z     vdW  Elec       q    Type
REMARK                         _______ _______ _______ _____ _____    ______ ____
ROOT
ATOM      1  N   UNL     1      31.042 -23.787 -16.019  0.00  0.00    -0.285 N 
ATOM      2  N   UNL     1      32.262 -22.692 -17.642  0.00  0.00    -0.374 NA
ATOM      3  N   UNL     1      34.668 -22.739 -17.533  0.00  0.00    -0.152 N 
ATOM      4  N   UNL     1      35.748 -22.270 -18.221  0.00  0.00    -0.174 NA
ATOM      5  C   UNL     1      29.891 -22.873 -16.030  0.00  0.00    +0.078 C 
ATOM      6  C   UNL     1      28.613 -23.626 -16.425  0.00  0.00    +0.020 C 
ATOM      7  C   UNL     1      28.410 -24.911 -15.627  0.00  0.00    +0.003 C 
ATOM      8  C   UNL     1      30.900 -25.041 -15.274  0.00  0.00    +0.093 C 
ATOM      9  C   UNL     1      29.650 -25.792 -15.717  0.00  0.00    +0.022 C 
ATOM     10  C   UNL     1      32.234 -23.421 -16.550  0.00  0.00    +0.187 C 
ATOM     11  C   UNL     1      33.481 -23.879 -15.846  0.00  0.00    +0.079 C 
ATOM     12  C   UNL     1      34.664 -23.518 -16.368  0.00  0.00    +0.127 C 
ATOM     13  C   UNL     1      33.478 -22.345 -18.143  0.00  0.00    +0.191 C 
ATOM     14  C   UNL     1      33.831 -21.604 -19.248  0.00  0.00    +0.112 C 
ATOM     15  C   UNL     1      35.230 -21.593 -19.243  0.00  0.00    +0.100 C 
ENDROOT
BRANCH  12  16
ATOM     16  N   UNL     1      35.873 -23.863 -15.833  0.00  0.00    -0.316 N 
ATOM     17  H   UNL     1      36.589 -23.187 -15.824  0.00  0.00    +0.148 HD
BRANCH  16  18
ATOM     18  C   UNL     1      36.153 -25.163 -15.285  0.00  0.00    +0.117 C 
BRANCH  18  21
ATOM     19  O   UNL     1      40.834 -26.277 -15.094  0.00  0.00    -0.163 OA
ATOM     20  N   UNL     1      39.819 -25.746 -14.536  0.00  0.00    -0.127 N 
ATOM     21  C   UNL     1      37.477 -25.161 -14.573  0.00  0.00    +0.018 C 
ATOM     22  C   UNL     1      38.593 -25.738 -15.173  0.00  0.00    +0.119 C 
ATOM     23  C   UNL     1      37.599 -24.583 -13.314  0.00  0.00    +0.001 C 
ATOM     24  C   UNL     1      38.829 -24.587 -12.665  0.00  0.00    +0.022 C 
ATOM     25  C   UNL     1      39.929 -25.171 -13.285  0.00  0.00    +0.121 C 
ENDBRANCH  18  21
ENDBRANCH  16  18
ENDBRANCH  12  16
BRANCH  14  26
ATOM     26  C   UNL     1      32.933 -20.963 -20.225  0.00  0.00    +0.015 C 
ATOM     27  C   UNL     1      33.542 -19.710 -20.865  0.00  0.00    +0.001 C 
ENDBRANCH  14  26
BRANCH   5  28
ATOM     28  C   UNL     1      29.763 -22.160 -14.683  0.00  0.00    +0.052 C 
BRANCH  28  29
ATOM     29  C   UNL     1      31.031 -22.295 -13.861  0.00  0.00    +0.139 C 
BRANCH  29  30
ATOM     30  O   UNL     1      30.774 -23.181 -12.780  0.00  0.00    -0.382 OA
ATOM     31  H   UNL     1      31.598 -23.628 -12.526  0.00  0.00    +0.210 HD
ENDBRANCH  29  30
ENDBRANCH  28  29
ENDBRANCH   5  28
TORSDOF 7
ENDMDL
