MODEL 1
REMARK VINA RESULT:      -5.6      0.000      0.000
REMARK  Name = 219104
REMARK  4 active torsions:
REMARK  status: ('A' for Active; 'I' for Inactive)
REMARK    1  A    between atoms: C_3  and  S_8
REMARK    2  A    between atoms: S_8  and  S_9
REMARK    3  A    between atoms: S_9  and  C_10
REMARK    4  A    between atoms: C_10  and  C_12
REMARK                            x       y       z     vdW  Elec       q    Type
REMARK                         _______ _______ _______ _____ _____    ______ ____
ROOT
ATOM      1  N   UNL     1      35.233 -17.324 -23.971  0.00  0.00    -0.308 N 
ATOM      2  N   UNL     1      33.838 -15.675 -23.455  0.00  0.00    -0.308 N 
ATOM      3  C   UNL     1      34.609 -16.608 -23.018  0.00  0.00    +0.205 C 
ATOM      4  C   UNL     1      34.819 -16.796 -25.162  0.00  0.00    +0.076 C 
ATOM      5  C   UNL     1      33.959 -15.780 -24.817  0.00  0.00    +0.076 C 
ATOM      6  H   UNL     1      35.858 -18.073 -23.839  0.00  0.00    +0.149 HD
ATOM      7  H   UNL     1      33.293 -15.039 -22.935  0.00  0.00    +0.149 HD
ENDROOT
BRANCH   3   8
ATOM      8  S   UNL     1      34.903 -17.004 -21.321  0.00  0.00    -0.042 S 
BRANCH   8   9
ATOM      9  S   UNL     1      36.233 -18.551 -21.572  0.00  0.00    -0.080 S 
BRANCH   9  10
ATOM     10  C   UNL     1      35.178 -19.998 -21.201  0.00  0.00    +0.058 C 
ATOM     11  C   UNL     1      35.822 -20.795 -20.069  0.00  0.00    +0.013 C 
BRANCH  10  12
ATOM     12  C   UNL     1      33.747 -19.582 -20.831  0.00  0.00    +0.012 C 
ATOM     13  C   UNL     1      32.998 -20.617 -20.002  0.00  0.00    +0.001 C 
ENDBRANCH  10  12
ENDBRANCH   9  10
ENDBRANCH   8   9
ENDBRANCH   3   8
TORSDOF 4
ENDMDL
MODEL 2
REMARK VINA RESULT:      -5.5      1.563      2.089
REMARK  Name = 219104
REMARK  4 active torsions:
REMARK  status: ('A' for Active; 'I' for Inactive)
REMARK    1  A    between atoms: C_3  and  S_8
REMARK    2  A    between atoms: S_8  and  S_9
REMARK    3  A    between atoms: S_9  and  C_10
REMARK    4  A    between atoms: C_10  and  C_12
REMARK                            x       y       z     vdW  Elec       q    Type
REMARK                         _______ _______ _______ _____ _____    ______ ____
ROOT
ATOM      1  N   UNL     1      34.893 -16.250 -20.996  0.00  0.00    -0.308 N 
ATOM      2  N   UNL     1      34.600 -15.411 -23.031  0.00  0.00    -0.308 N 
ATOM      3  C   UNL     1      34.936 -16.435 -22.327  0.00  0.00    +0.205 C 
ATOM      4  C   UNL     1      34.481 -14.959 -20.813  0.00  0.00    +0.076 C 
ATOM      5  C   UNL     1      34.307 -14.462 -22.083  0.00  0.00    +0.076 C 
ATOM      6  H   UNL     1      35.111 -16.908 -20.297  0.00  0.00    +0.149 HD
ATOM      7  H   UNL     1      34.561 -15.329 -24.012  0.00  0.00    +0.149 HD
ENDROOT
BRANCH   3   8
ATOM      8  S   UNL     1      35.431 -18.010 -22.957  0.00  0.00    -0.042 S 
BRANCH   8   9
ATOM      9  S   UNL     1      36.226 -18.813 -21.240  0.00  0.00    -0.080 S 
BRANCH   9  10
ATOM     10  C   UNL     1      35.171 -20.287 -21.008  0.00  0.00    +0.058 C 
ATOM     11  C   UNL     1      35.777 -21.154 -19.907  0.00  0.00    +0.013 C 
BRANCH  10  12
ATOM     12  C   UNL     1      33.723 -19.905 -20.668  0.00  0.00    +0.012 C 
ATOM     13  C   UNL     1      33.028 -20.888 -19.733  0.00  0.00    +0.001 C 
ENDBRANCH  10  12
ENDBRANCH   9  10
ENDBRANCH   8   9
ENDBRANCH   3   8
TORSDOF 4
ENDMDL
MODEL 3
REMARK VINA RESULT:      -5.5      2.072      2.724
REMARK  Name = 219104
REMARK  4 active torsions:
REMARK  status: ('A' for Active; 'I' for Inactive)
REMARK    1  A    between atoms: C_3  and  S_8
REMARK    2  A    between atoms: S_8  and  S_9
REMARK    3  A    between atoms: S_9  and  C_10
REMARK    4  A    between atoms: C_10  and  C_12
REMARK                            x       y       z     vdW  Elec       q    Type
REMARK                         _______ _______ _______ _____ _____    ______ ____
ROOT
ATOM      1  N   UNL     1      34.173 -13.684 -23.577  0.00  0.00    -0.308 N 
ATOM      2  N   UNL     1      32.861 -14.849 -22.216  0.00  0.00    -0.308 N 
ATOM      3  C   UNL     1      33.920 -14.845 -22.948  0.00  0.00    +0.205 C 
ATOM      4  C   UNL     1      33.163 -12.837 -23.214  0.00  0.00    +0.076 C 
ATOM      5  C   UNL     1      32.366 -13.579 -22.374  0.00  0.00    +0.076 C 
ATOM      6  H   UNL     1      34.929 -13.484 -24.176  0.00  0.00    +0.149 HD
ATOM      7  H   UNL     1      32.495 -15.586 -21.674  0.00  0.00    +0.149 HD
ENDROOT
BRANCH   3   8
ATOM      8  S   UNL     1      35.030 -16.202 -23.176  0.00  0.00    -0.042 S 
BRANCH   8   9
ATOM      9  S   UNL     1      34.789 -17.129 -21.358  0.00  0.00    -0.080 S 
BRANCH   9  10
ATOM     10  C   UNL     1      34.176 -18.774 -21.870  0.00  0.00    +0.058 C 
ATOM     11  C   UNL     1      34.890 -19.183 -23.156  0.00  0.00    +0.013 C 
BRANCH  10  12
ATOM     12  C   UNL     1      34.380 -19.827 -20.771  0.00  0.00    +0.012 C 
ATOM     13  C   UNL     1      33.082 -20.414 -20.229  0.00  0.00    +0.001 C 
ENDBRANCH  10  12
ENDBRANCH   9  10
ENDBRANCH   8   9
ENDBRANCH   3   8
TORSDOF 4
ENDMDL
MODEL 4
REMARK VINA RESULT:      -5.4      1.340      1.906
REMARK  Name = 219104
REMARK  4 active torsions:
REMARK  status: ('A' for Active; 'I' for Inactive)
REMARK    1  A    between atoms: C_3  and  S_8
REMARK    2  A    between atoms: S_8  and  S_9
REMARK    3  A    between atoms: S_9  and  C_10
REMARK    4  A    between atoms: C_10  and  C_12
REMARK                            x       y       z     vdW  Elec       q    Type
REMARK                         _______ _______ _______ _____ _____    ______ ____
ROOT
ATOM      1  N   UNL     1      34.525 -18.551 -23.787  0.00  0.00    -0.308 N 
ATOM      2  N   UNL     1      35.189 -16.433 -23.837  0.00  0.00    -0.308 N 
ATOM      3  C   UNL     1      34.971 -17.476 -23.115  0.00  0.00    +0.205 C 
ATOM      4  C   UNL     1      34.442 -18.163 -25.095  0.00  0.00    +0.076 C 
ATOM      5  C   UNL     1      34.857 -16.852 -25.100  0.00  0.00    +0.076 C 
ATOM      6  H   UNL     1      34.303 -19.436 -23.415  0.00  0.00    +0.149 HD
ATOM      7  H   UNL     1      35.515 -15.548 -23.551  0.00  0.00    +0.149 HD
ENDROOT
BRANCH   3   8
ATOM      8  S   UNL     1      35.210 -17.597 -21.367  0.00  0.00    -0.042 S 
BRANCH   8   9
ATOM      9  S   UNL     1      34.157 -19.326 -21.014  0.00  0.00    -0.080 S 
BRANCH   9  10
ATOM     10  C   UNL     1      35.509 -20.516 -20.703  0.00  0.00    +0.058 C 
ATOM     11  C   UNL     1      36.808 -19.738 -20.499  0.00  0.00    +0.013 C 
BRANCH  10  12
ATOM     12  C   UNL     1      35.215 -21.413 -19.492  0.00  0.00    +0.012 C 
ATOM     13  C   UNL     1      36.390 -21.566 -18.535  0.00  0.00    +0.001 C 
ENDBRANCH  10  12
ENDBRANCH   9  10
ENDBRANCH   8   9
ENDBRANCH   3   8
TORSDOF 4
ENDMDL
MODEL 5
REMARK VINA RESULT:      -5.3      2.970      5.517
REMARK  Name = 219104
REMARK  4 active torsions:
REMARK  status: ('A' for Active; 'I' for Inactive)
REMARK    1  A    between atoms: C_3  and  S_8
REMARK    2  A    between atoms: S_8  and  S_9
REMARK    3  A    between atoms: S_9  and  C_10
REMARK    4  A    between atoms: C_10  and  C_12
REMARK                            x       y       z     vdW  Elec       q    Type
REMARK                         _______ _______ _______ _____ _____    ______ ____
ROOT
ATOM      1  N   UNL     1      35.156 -20.911 -19.885  0.00  0.00    -0.308 N 
ATOM      2  N   UNL     1      32.995 -21.310 -19.572  0.00  0.00    -0.308 N 
ATOM      3  C   UNL     1      33.881 -20.571 -20.142  0.00  0.00    +0.205 C 
ATOM      4  C   UNL     1      35.092 -21.994 -19.053  0.00  0.00    +0.076 C 
ATOM      5  C   UNL     1      33.748 -22.221 -18.875  0.00  0.00    +0.076 C 
ATOM      6  H   UNL     1      35.969 -20.471 -20.225  0.00  0.00    +0.149 HD
ATOM      7  H   UNL     1      32.013 -21.239 -19.625  0.00  0.00    +0.149 HD
ENDROOT
BRANCH   3   8
ATOM      8  S   UNL     1      33.559 -19.193 -21.202  0.00  0.00    -0.042 S 
BRANCH   8   9
ATOM      9  S   UNL     1      35.469 -18.451 -21.361  0.00  0.00    -0.080 S 
BRANCH   9  10
ATOM     10  C   UNL     1      35.606 -18.190 -23.165  0.00  0.00    +0.058 C 
ATOM     11  C   UNL     1      34.921 -19.353 -23.880  0.00  0.00    +0.013 C 
BRANCH  10  12
ATOM     12  C   UNL     1      34.998 -16.848 -23.597  0.00  0.00    +0.012 C 
ATOM     13  C   UNL     1      34.659 -16.772 -25.080  0.00  0.00    +0.001 C 
ENDBRANCH  10  12
ENDBRANCH   9  10
ENDBRANCH   8   9
ENDBRANCH   3   8
TORSDOF 4
ENDMDL
MODEL 6
REMARK VINA RESULT:      -5.3      2.426      4.965
REMARK  Name = 219104
REMARK  4 active torsions:
REMARK  status: ('A' for Active; 'I' for Inactive)
REMARK    1  A    between atoms: C_3  and  S_8
REMARK    2  A    between atoms: S_8  and  S_9
REMARK    3  A    between atoms: S_9  and  C_10
REMARK    4  A    between atoms: C_10  and  C_12
REMARK                            x       y       z     vdW  Elec       q    Type
REMARK                         _______ _______ _______ _____ _____    ______ ____
ROOT
ATOM      1  N   UNL     1      33.616 -19.374 -21.260  0.00  0.00    -0.308 N 
ATOM      2  N   UNL     1      35.223 -20.411 -20.132  0.00  0.00    -0.308 N 
ATOM      3  C   UNL     1      34.926 -19.488 -20.978  0.00  0.00    +0.205 C 
ATOM      4  C   UNL     1      32.991 -20.333 -20.512  0.00  0.00    +0.076 C 
ATOM      5  C   UNL     1      34.003 -20.960 -19.826  0.00  0.00    +0.076 C 
ATOM      6  H   UNL     1      33.194 -18.733 -21.876  0.00  0.00    +0.149 HD
ATOM      7  H   UNL     1      36.112 -20.663 -19.788  0.00  0.00    +0.149 HD
ENDROOT
BRANCH   3   8
ATOM      8  S   UNL     1      36.070 -18.394 -21.766  0.00  0.00    -0.042 S 
BRANCH   8   9
ATOM      9  S   UNL     1      34.748 -17.300 -22.897  0.00  0.00    -0.080 S 
BRANCH   9  10
ATOM     10  C   UNL     1      34.878 -15.654 -22.112  0.00  0.00    +0.058 C 
ATOM     11  C   UNL     1      34.293 -14.611 -23.063  0.00  0.00    +0.013 C 
BRANCH  10  12
ATOM     12  C   UNL     1      34.168 -15.612 -20.751  0.00  0.00    +0.012 C 
ATOM     13  C   UNL     1      32.648 -15.644 -20.846  0.00  0.00    +0.001 C 
ENDBRANCH  10  12
ENDBRANCH   9  10
ENDBRANCH   8   9
ENDBRANCH   3   8
TORSDOF 4
ENDMDL
MODEL 7
REMARK VINA RESULT:      -5.3      2.021      5.237
REMARK  Name = 219104
REMARK  4 active torsions:
REMARK  status: ('A' for Active; 'I' for Inactive)
REMARK    1  A    between atoms: C_3  and  S_8
REMARK    2  A    between atoms: S_8  and  S_9
REMARK    3  A    between atoms: S_9  and  C_10
REMARK    4  A    between atoms: C_10  and  C_12
REMARK                            x       y       z     vdW  Elec       q    Type
REMARK                         _______ _______ _______ _____ _____    ______ ____
ROOT
ATOM      1  N   UNL     1      33.635 -19.481 -21.260  0.00  0.00    -0.308 N 
ATOM      2  N   UNL     1      35.308 -20.406 -20.131  0.00  0.00    -0.308 N 
ATOM      3  C   UNL     1      34.953 -19.523 -20.997  0.00  0.00    +0.205 C 
ATOM      4  C   UNL     1      33.070 -20.448 -20.477  0.00  0.00    +0.076 C 
ATOM      5  C   UNL     1      34.122 -21.005 -19.790  0.00  0.00    +0.076 C 
ATOM      6  H   UNL     1      33.173 -18.879 -21.887  0.00  0.00    +0.149 HD
ATOM      7  H   UNL     1      36.213 -20.604 -19.795  0.00  0.00    +0.149 HD
ENDROOT
BRANCH   3   8
ATOM      8  S   UNL     1      36.030 -18.397 -21.833  0.00  0.00    -0.042 S 
BRANCH   8   9
ATOM      9  S   UNL     1      34.760 -16.789 -21.992  0.00  0.00    -0.080 S 
BRANCH   9  10
ATOM     10  C   UNL     1      34.925 -16.372 -23.764  0.00  0.00    +0.058 C 
ATOM     11  C   UNL     1      34.839 -17.661 -24.580  0.00  0.00    +0.013 C 
BRANCH  10  12
ATOM     12  C   UNL     1      33.856 -15.366 -24.217  0.00  0.00    +0.012 C 
ATOM     13  C   UNL     1      33.470 -15.495 -25.685  0.00  0.00    +0.001 C 
ENDBRANCH  10  12
ENDBRANCH   9  10
ENDBRANCH   8   9
ENDBRANCH   3   8
TORSDOF 4
ENDMDL
MODEL 8
REMARK VINA RESULT:      -5.2      2.863      5.746
REMARK  Name = 219104
REMARK  4 active torsions:
REMARK  status: ('A' for Active; 'I' for Inactive)
REMARK    1  A    between atoms: C_3  and  S_8
REMARK    2  A    between atoms: S_8  and  S_9
REMARK    3  A    between atoms: S_9  and  C_10
REMARK    4  A    between atoms: C_10  and  C_12
REMARK                            x       y       z     vdW  Elec       q    Type
REMARK                         _______ _______ _______ _____ _____    ______ ____
ROOT
ATOM      1  N   UNL     1      34.261 -21.420 -19.667  0.00  0.00    -0.308 N 
ATOM      2  N   UNL     1      36.201 -20.367 -19.904  0.00  0.00    -0.308 N 
ATOM      3  C   UNL     1      34.965 -20.437 -20.255  0.00  0.00    +0.205 C 
ATOM      4  C   UNL     1      35.140 -22.063 -18.841  0.00  0.00    +0.076 C 
ATOM      5  C   UNL     1      36.330 -21.395 -19.005  0.00  0.00    +0.076 C 
ATOM      6  H   UNL     1      33.309 -21.633 -19.803  0.00  0.00    +0.149 HD
ATOM      7  H   UNL     1      36.889 -19.730 -20.208  0.00  0.00    +0.149 HD
ENDROOT
BRANCH   3   8
ATOM      8  S   UNL     1      34.151 -19.372 -21.408  0.00  0.00    -0.042 S 
BRANCH   8   9
ATOM      9  S   UNL     1      35.431 -17.766 -21.328  0.00  0.00    -0.080 S 
BRANCH   9  10
ATOM     10  C   UNL     1      34.298 -16.382 -21.703  0.00  0.00    +0.058 C 
ATOM     11  C   UNL     1      34.420 -15.336 -20.597  0.00  0.00    +0.013 C 
BRANCH  10  12
ATOM     12  C   UNL     1      34.589 -15.761 -23.077  0.00  0.00    +0.012 C 
ATOM     13  C   UNL     1      34.198 -14.292 -23.187  0.00  0.00    +0.001 C 
ENDBRANCH  10  12
ENDBRANCH   9  10
ENDBRANCH   8   9
ENDBRANCH   3   8
TORSDOF 4
ENDMDL
MODEL 9
REMARK VINA RESULT:      -5.1      8.634     10.108
REMARK  Name = 219104
REMARK  4 active torsions:
REMARK  status: ('A' for Active; 'I' for Inactive)
REMARK    1  A    between atoms: C_3  and  S_8
REMARK    2  A    between atoms: S_8  and  S_9
REMARK    3  A    between atoms: S_9  and  C_10
REMARK    4  A    between atoms: C_10  and  C_12
REMARK                            x       y       z     vdW  Elec       q    Type
REMARK                         _______ _______ _______ _____ _____    ______ ____
ROOT
ATOM      1  N   UNL     1      31.671 -10.283 -21.159  0.00  0.00    -0.308 N 
ATOM      2  N   UNL     1      31.988  -9.437 -19.131  0.00  0.00    -0.308 N 
ATOM      3  C   UNL     1      32.091  -9.255 -20.401  0.00  0.00    +0.205 C 
ATOM      4  C   UNL     1      31.247 -11.242 -20.283  0.00  0.00    +0.076 C 
ATOM      5  C   UNL     1      31.453 -10.697 -19.038  0.00  0.00    +0.076 C 
ATOM      6  H   UNL     1      31.668 -10.334 -22.143  0.00  0.00    +0.149 HD
ATOM      7  H   UNL     1      32.234  -8.821 -18.403  0.00  0.00    +0.149 HD
ENDROOT
BRANCH   3   8
ATOM      8  S   UNL     1      32.719  -7.805 -21.195  0.00  0.00    -0.042 S 
BRANCH   8   9
ATOM      9  S   UNL     1      32.120  -8.204 -23.120  0.00  0.00    -0.080 S 
BRANCH   9  10
ATOM     10  C   UNL     1      33.730  -8.395 -23.966  0.00  0.00    +0.058 C 
ATOM     11  C   UNL     1      34.761  -7.516 -23.260  0.00  0.00    +0.013 C 
BRANCH  10  12
ATOM     12  C   UNL     1      34.189  -9.860 -23.997  0.00  0.00    +0.012 C 
ATOM     13  C   UNL     1      35.215 -10.162 -25.083  0.00  0.00    +0.001 C 
ENDBRANCH  10  12
ENDBRANCH   9  10
ENDBRANCH   8   9
ENDBRANCH   3   8
TORSDOF 4
ENDMDL
