MODEL 1
REMARK VINA RESULT:      -6.0      0.000      0.000
REMARK  Name = 12358972
REMARK  1 active torsions:
REMARK  status: ('A' for Active; 'I' for Inactive)
REMARK    1  A    between atoms: C_2  and  N_11
REMARK                            x       y       z     vdW  Elec       q    Type
REMARK                         _______ _______ _______ _____ _____    ______ ____
ROOT
ATOM      1  C   UNL     1      36.650 -24.549 -14.623  0.00  0.00    -0.016 C 
ATOM      2  C   UNL     1      36.792 -24.554 -13.037  0.00  0.00    -0.046 C 
ATOM      3  C   UNL     1      37.513 -25.800 -15.024  0.00  0.00    -0.002 C 
ATOM      4  C   UNL     1      37.732 -25.785 -12.806  0.00  0.00    -0.018 C 
ATOM      5  C   UNL     1      37.252 -26.779 -13.872  0.00  0.00    -0.002 C 
ATOM      6  C   UNL     1      39.020 -25.552 -14.827  0.00  0.00    -0.000 C 
ATOM      7  C   UNL     1      39.168 -25.522 -13.302  0.00  0.00    -0.002 C 
ATOM      8  C   UNL     1      35.201 -24.772 -15.128  0.00  0.00    -0.002 C 
ATOM      9  C   UNL     1      37.132 -23.254 -15.304  0.00  0.00    -0.002 C 
ATOM     10  C   UNL     1      37.311 -23.261 -12.395  0.00  0.00    -0.022 C 
ENDROOT
BRANCH   2  11
ATOM     11  N   UNL     1      35.513 -24.861 -12.367  0.00  0.00    +0.385 N 
ATOM     12  C   UNL     1      35.563 -24.445 -10.979  0.00  0.00    -0.105 C 
ATOM     13  H   UNL     1      35.342 -25.865 -12.411  0.00  0.00    -0.084 HD
ATOM     14  H   UNL     1      34.761 -24.358 -12.838  0.00  0.00    -0.084 HD
ENDBRANCH   2  11
TORSDOF 1
ENDMDL
MODEL 2
REMARK VINA RESULT:      -6.0     18.353     20.358
REMARK  Name = 12358972
REMARK  1 active torsions:
REMARK  status: ('A' for Active; 'I' for Inactive)
REMARK    1  A    between atoms: C_2  and  N_11
REMARK                            x       y       z     vdW  Elec       q    Type
REMARK                         _______ _______ _______ _____ _____    ______ ____
ROOT
ATOM      1  C   UNL     1      32.375  -8.035 -21.964  0.00  0.00    -0.016 C 
ATOM      2  C   UNL     1      33.248  -8.064 -23.295  0.00  0.00    -0.046 C 
ATOM      3  C   UNL     1      31.136  -7.178 -22.413  0.00  0.00    -0.002 C 
ATOM      4  C   UNL     1      32.376  -7.197 -24.266  0.00  0.00    -0.018 C 
ATOM      5  C   UNL     1      30.946  -7.593 -23.878  0.00  0.00    -0.002 C 
ATOM      6  C   UNL     1      31.499  -5.693 -22.603  0.00  0.00    -0.000 C 
ATOM      7  C   UNL     1      32.367  -5.708 -23.865  0.00  0.00    -0.002 C 
ATOM      8  C   UNL     1      31.866  -9.429 -21.512  0.00  0.00    -0.002 C 
ATOM      9  C   UNL     1      33.095  -7.440 -20.740  0.00  0.00    -0.002 C 
ATOM     10  C   UNL     1      34.696  -7.574 -23.171  0.00  0.00    -0.022 C 
ENDROOT
BRANCH   2  11
ATOM     11  N   UNL     1      33.321  -9.418 -23.881  0.00  0.00    +0.385 N 
ATOM     12  C   UNL     1      34.690  -9.734 -24.241  0.00  0.00    -0.105 C 
ATOM     13  H   UNL     1      32.736  -9.456 -24.716  0.00  0.00    -0.084 HD
ATOM     14  H   UNL     1      32.993 -10.096 -23.194  0.00  0.00    -0.084 HD
ENDBRANCH   2  11
TORSDOF 1
ENDMDL
MODEL 3
REMARK VINA RESULT:      -5.9      1.246      2.902
REMARK  Name = 12358972
REMARK  1 active torsions:
REMARK  status: ('A' for Active; 'I' for Inactive)
REMARK    1  A    between atoms: C_2  and  N_11
REMARK                            x       y       z     vdW  Elec       q    Type
REMARK                         _______ _______ _______ _____ _____    ______ ____
ROOT
ATOM      1  C   UNL     1      37.619 -25.373 -14.170  0.00  0.00    -0.016 C 
ATOM      2  C   UNL     1      36.686 -24.137 -14.541  0.00  0.00    -0.046 C 
ATOM      3  C   UNL     1      37.515 -25.392 -12.602  0.00  0.00    -0.002 C 
ATOM      4  C   UNL     1      36.232 -23.645 -13.125  0.00  0.00    -0.018 C 
ATOM      5  C   UNL     1      36.065 -24.958 -12.350  0.00  0.00    -0.002 C 
ATOM      6  C   UNL     1      38.262 -24.209 -11.958  0.00  0.00    -0.000 C 
ATOM      7  C   UNL     1      37.391 -23.005 -12.334  0.00  0.00    -0.002 C 
ATOM      8  C   UNL     1      37.109 -26.734 -14.711  0.00  0.00    -0.002 C 
ATOM      9  C   UNL     1      39.072 -25.249 -14.666  0.00  0.00    -0.002 C 
ATOM     10  C   UNL     1      37.323 -23.035 -15.396  0.00  0.00    -0.022 C 
ENDROOT
BRANCH   2  11
ATOM     11  N   UNL     1      35.466 -24.559 -15.258  0.00  0.00    +0.385 N 
ATOM     12  C   UNL     1      34.609 -23.415 -15.503  0.00  0.00    -0.105 C 
ATOM     13  H   UNL     1      34.962 -25.242 -14.692  0.00  0.00    -0.084 HD
ATOM     14  H   UNL     1      35.731 -24.974 -16.151  0.00  0.00    -0.084 HD
ENDBRANCH   2  11
TORSDOF 1
ENDMDL
MODEL 4
REMARK VINA RESULT:      -5.8      1.567      3.397
REMARK  Name = 12358972
REMARK  1 active torsions:
REMARK  status: ('A' for Active; 'I' for Inactive)
REMARK    1  A    between atoms: C_2  and  N_11
REMARK                            x       y       z     vdW  Elec       q    Type
REMARK                         _______ _______ _______ _____ _____    ______ ____
ROOT
ATOM      1  C   UNL     1      36.366 -23.932 -14.759  0.00  0.00    -0.016 C 
ATOM      2  C   UNL     1      37.530 -25.003 -14.580  0.00  0.00    -0.046 C 
ATOM      3  C   UNL     1      36.208 -23.385 -13.294  0.00  0.00    -0.002 C 
ATOM      4  C   UNL     1      37.818 -24.906 -13.044  0.00  0.00    -0.018 C 
ATOM      5  C   UNL     1      37.647 -23.407 -12.764  0.00  0.00    -0.002 C 
ATOM      6  C   UNL     1      35.562 -24.421 -12.355  0.00  0.00    -0.000 C 
ATOM      7  C   UNL     1      36.662 -25.477 -12.199  0.00  0.00    -0.002 C 
ATOM      8  C   UNL     1      36.735 -22.746 -15.688  0.00  0.00    -0.002 C 
ATOM      9  C   UNL     1      35.051 -24.505 -15.322  0.00  0.00    -0.002 C 
ATOM     10  C   UNL     1      37.223 -26.429 -15.056  0.00  0.00    -0.022 C 
ENDROOT
BRANCH   2  11
ATOM     11  N   UNL     1      38.769 -24.597 -15.274  0.00  0.00    +0.385 N 
ATOM     12  C   UNL     1      39.859 -25.479 -14.909  0.00  0.00    -0.105 C 
ATOM     13  H   UNL     1      39.005 -23.641 -15.008  0.00  0.00    -0.084 HD
ATOM     14  H   UNL     1      38.619 -24.651 -16.281  0.00  0.00    -0.084 HD
ENDBRANCH   2  11
TORSDOF 1
ENDMDL
MODEL 5
REMARK VINA RESULT:      -5.7      1.326      3.262
REMARK  Name = 12358972
REMARK  1 active torsions:
REMARK  status: ('A' for Active; 'I' for Inactive)
REMARK    1  A    between atoms: C_2  and  N_11
REMARK                            x       y       z     vdW  Elec       q    Type
REMARK                         _______ _______ _______ _____ _____    ______ ____
ROOT
ATOM      1  C   UNL     1      36.798 -24.166 -12.799  0.00  0.00    -0.016 C 
ATOM      2  C   UNL     1      36.675 -23.934 -14.369  0.00  0.00    -0.046 C 
ATOM      3  C   UNL     1      37.815 -25.362 -12.731  0.00  0.00    -0.002 C 
ATOM      4  C   UNL     1      37.617 -25.052 -14.930  0.00  0.00    -0.018 C 
ATOM      5  C   UNL     1      38.759 -25.076 -13.906  0.00  0.00    -0.002 C 
ATOM      6  C   UNL     1      37.186 -26.684 -13.212  0.00  0.00    -0.000 C 
ATOM      7  C   UNL     1      37.032 -26.464 -14.721  0.00  0.00    -0.002 C 
ATOM      8  C   UNL     1      37.405 -22.964 -12.029  0.00  0.00    -0.002 C 
ATOM      9  C   UNL     1      35.466 -24.479 -12.093  0.00  0.00    -0.002 C 
ATOM     10  C   UNL     1      35.259 -23.977 -14.956  0.00  0.00    -0.022 C 
ENDROOT
BRANCH   2  11
ATOM     11  N   UNL     1      37.253 -22.641 -14.786  0.00  0.00    +0.385 N 
ATOM     12  C   UNL     1      37.261 -22.539 -16.232  0.00  0.00    -0.105 C 
ATOM     13  H   UNL     1      38.209 -22.571 -14.438  0.00  0.00    -0.084 HD
ATOM     14  H   UNL     1      36.687 -21.884 -14.402  0.00  0.00    -0.084 HD
ENDBRANCH   2  11
TORSDOF 1
ENDMDL
MODEL 6
REMARK VINA RESULT:      -5.7     18.179     20.300
REMARK  Name = 12358972
REMARK  1 active torsions:
REMARK  status: ('A' for Active; 'I' for Inactive)
REMARK    1  A    between atoms: C_2  and  N_11
REMARK                            x       y       z     vdW  Elec       q    Type
REMARK                         _______ _______ _______ _____ _____    ______ ____
ROOT
ATOM      1  C   UNL     1      33.073  -7.452 -22.326  0.00  0.00    -0.016 C 
ATOM      2  C   UNL     1      32.037  -8.556 -22.818  0.00  0.00    -0.046 C 
ATOM      3  C   UNL     1      32.311  -6.122 -22.674  0.00  0.00    -0.002 C 
ATOM      4  C   UNL     1      30.876  -7.672 -23.387  0.00  0.00    -0.018 C 
ATOM      5  C   UNL     1      30.845  -6.489 -22.411  0.00  0.00    -0.002 C 
ATOM      6  C   UNL     1      32.254  -5.868 -24.192  0.00  0.00    -0.000 C 
ATOM      7  C   UNL     1      31.283  -6.946 -24.686  0.00  0.00    -0.002 C 
ATOM      8  C   UNL     1      33.344  -7.476 -20.799  0.00  0.00    -0.002 C 
ATOM      9  C   UNL     1      34.459  -7.533 -22.994  0.00  0.00    -0.002 C 
ATOM     10  C   UNL     1      32.566  -9.589 -23.821  0.00  0.00    -0.022 C 
ENDROOT
BRANCH   2  11
ATOM     11  N   UNL     1      31.473  -9.328 -21.693  0.00  0.00    +0.385 N 
ATOM     12  C   UNL     1      31.271 -10.710 -22.085  0.00  0.00    -0.105 C 
ATOM     13  H   UNL     1      30.578  -8.922 -21.420  0.00  0.00    -0.084 HD
ATOM     14  H   UNL     1      32.124  -9.297 -20.909  0.00  0.00    -0.084 HD
ENDBRANCH   2  11
TORSDOF 1
ENDMDL
MODEL 7
REMARK VINA RESULT:      -5.4      1.094      3.083
REMARK  Name = 12358972
REMARK  1 active torsions:
REMARK  status: ('A' for Active; 'I' for Inactive)
REMARK    1  A    between atoms: C_2  and  N_11
REMARK                            x       y       z     vdW  Elec       q    Type
REMARK                         _______ _______ _______ _____ _____    ______ ____
ROOT
ATOM      1  C   UNL     1      36.487 -23.937 -12.877  0.00  0.00    -0.016 C 
ATOM      2  C   UNL     1      37.357 -25.053 -13.607  0.00  0.00    -0.046 C 
ATOM      3  C   UNL     1      35.823 -23.201 -14.098  0.00  0.00    -0.002 C 
ATOM      4  C   UNL     1      37.065 -24.748 -15.115  0.00  0.00    -0.018 C 
ATOM      5  C   UNL     1      35.586 -24.341 -15.096  0.00  0.00    -0.002 C 
ATOM      6  C   UNL     1      36.841 -22.360 -14.890  0.00  0.00    -0.000 C 
ATOM      7  C   UNL     1      37.708 -23.423 -15.574  0.00  0.00    -0.002 C 
ATOM      8  C   UNL     1      35.359 -24.504 -11.976  0.00  0.00    -0.002 C 
ATOM      9  C   UNL     1      37.295 -22.982 -11.978  0.00  0.00    -0.002 C 
ATOM     10  C   UNL     1      38.852 -25.081 -13.267  0.00  0.00    -0.022 C 
ENDROOT
BRANCH   2  11
ATOM     11  N   UNL     1      36.849 -26.414 -13.340  0.00  0.00    +0.385 N 
ATOM     12  C   UNL     1      37.208 -27.303 -14.427  0.00  0.00    -0.105 C 
ATOM     13  H   UNL     1      35.834 -26.383 -13.252  0.00  0.00    -0.084 HD
ATOM     14  H   UNL     1      37.264 -26.760 -12.476  0.00  0.00    -0.084 HD
ENDBRANCH   2  11
TORSDOF 1
ENDMDL
MODEL 8
REMARK VINA RESULT:      -5.2      1.763      3.575
REMARK  Name = 12358972
REMARK  1 active torsions:
REMARK  status: ('A' for Active; 'I' for Inactive)
REMARK    1  A    between atoms: C_2  and  N_11
REMARK                            x       y       z     vdW  Elec       q    Type
REMARK                         _______ _______ _______ _____ _____    ______ ____
ROOT
ATOM      1  C   UNL     1      36.940 -25.831 -14.188  0.00  0.00    -0.016 C 
ATOM      2  C   UNL     1      38.088 -24.729 -14.231  0.00  0.00    -0.046 C 
ATOM      3  C   UNL     1      35.644 -24.946 -14.283  0.00  0.00    -0.002 C 
ATOM      4  C   UNL     1      37.256 -23.405 -14.314  0.00  0.00    -0.018 C 
ATOM      5  C   UNL     1      36.078 -23.805 -15.213  0.00  0.00    -0.002 C 
ATOM      6  C   UNL     1      35.389 -24.152 -12.989  0.00  0.00    -0.000 C 
ATOM      7  C   UNL     1      36.508 -23.105 -12.999  0.00  0.00    -0.002 C 
ATOM      8  C   UNL     1      36.955 -26.807 -15.394  0.00  0.00    -0.002 C 
ATOM      9  C   UNL     1      36.956 -26.723 -12.932  0.00  0.00    -0.002 C 
ATOM     10  C   UNL     1      39.093 -24.747 -13.072  0.00  0.00    -0.022 C 
ENDROOT
BRANCH   2  11
ATOM     11  N   UNL     1      38.888 -24.809 -15.469  0.00  0.00    +0.385 N 
ATOM     12  C   UNL     1      40.219 -25.304 -15.174  0.00  0.00    -0.105 C 
ATOM     13  H   UNL     1      38.958 -23.881 -15.886  0.00  0.00    -0.084 HD
ATOM     14  H   UNL     1      38.432 -25.449 -16.119  0.00  0.00    -0.084 HD
ENDBRANCH   2  11
TORSDOF 1
ENDMDL
MODEL 9
REMARK VINA RESULT:      -5.2      1.343      3.192
REMARK  Name = 12358972
REMARK  1 active torsions:
REMARK  status: ('A' for Active; 'I' for Inactive)
REMARK    1  A    between atoms: C_2  and  N_11
REMARK                            x       y       z     vdW  Elec       q    Type
REMARK                         _______ _______ _______ _____ _____    ______ ____
ROOT
ATOM      1  C   UNL     1      37.836 -24.377 -14.150  0.00  0.00    -0.016 C 
ATOM      2  C   UNL     1      36.572 -25.326 -13.967  0.00  0.00    -0.046 C 
ATOM      3  C   UNL     1      38.116 -23.929 -12.669  0.00  0.00    -0.002 C 
ATOM      4  C   UNL     1      36.328 -25.236 -12.423  0.00  0.00    -0.018 C 
ATOM      5  C   UNL     1      37.753 -25.180 -11.860  0.00  0.00    -0.002 C 
ATOM      6  C   UNL     1      37.045 -22.954 -12.147  0.00  0.00    -0.000 C 
ATOM      7  C   UNL     1      35.809 -23.848 -11.996  0.00  0.00    -0.002 C 
ATOM      8  C   UNL     1      39.098 -25.102 -14.689  0.00  0.00    -0.002 C 
ATOM      9  C   UNL     1      37.609 -23.183 -15.097  0.00  0.00    -0.002 C 
ATOM     10  C   UNL     1      35.333 -24.979 -14.803  0.00  0.00    -0.022 C 
ENDROOT
BRANCH   2  11
ATOM     11  N   UNL     1      36.888 -26.736 -14.268  0.00  0.00    +0.385 N 
ATOM     12  C   UNL     1      36.504 -27.056 -15.629  0.00  0.00    -0.105 C 
ATOM     13  H   UNL     1      36.379 -27.341 -13.624  0.00  0.00    -0.084 HD
ATOM     14  H   UNL     1      37.892 -26.882 -14.163  0.00  0.00    -0.084 HD
ENDBRANCH   2  11
TORSDOF 1
ENDMDL
