MODEL 1
REMARK VINA RESULT:     -10.7      0.000      0.000
REMARK  Name = 71492799
REMARK  6 active torsions:
REMARK  status: ('A' for Active; 'I' for Inactive)
REMARK    1  A    between atoms: N_1  and  C_20
REMARK    2  A    between atoms: C_4  and  C_6
REMARK    3  A    between atoms: C_7  and  C_15
REMARK    4  A    between atoms: C_8  and  C_19
REMARK    5  A    between atoms: C_21  and  C_24
REMARK    6  A    between atoms: N_23  and  N_26
REMARK                            x       y       z     vdW  Elec       q    Type
REMARK                         _______ _______ _______ _____ _____    ______ ____
ROOT
ATOM      1  N   UNL     1      34.635 -20.206 -21.158  0.00  0.00    -0.176 N 
ATOM      2  N   UNL     1      34.830 -20.958 -20.064  0.00  0.00    -0.122 NA
ATOM      3  N   UNL     1      32.665 -20.661 -20.088  0.00  0.00    -0.194 NA
ATOM      4  C   UNL     1      33.653 -21.224 -19.434  0.00  0.00    +0.050 C 
ATOM      5  C   UNL     1      33.309 -20.054 -21.127  0.00  0.00    +0.252 C 
ENDROOT
BRANCH   4   6
ATOM      6  C   UNL     1      33.520 -22.005 -18.236  0.00  0.00    +0.063 C 
ATOM      7  C   UNL     1      32.123 -23.106 -16.601  0.00  0.00    +0.072 C 
ATOM      8  C   UNL     1      34.528 -23.182 -16.383  0.00  0.00    +0.072 C 
ATOM      9  C   UNL     1      34.658 -22.423 -17.546  0.00  0.00    +0.014 C 
ATOM     10  C   UNL     1      32.253 -22.347 -17.763  0.00  0.00    +0.014 C 
ATOM     11  C   UNL     1      33.261 -23.524 -15.910  0.00  0.00    +0.008 C 
BRANCH   7  15
ATOM     12  F   UNL     1      30.542 -24.820 -16.067  0.00  0.00    -0.166 F 
ATOM     13  F   UNL     1      30.524 -23.043 -14.824  0.00  0.00    -0.166 F 
ATOM     14  F   UNL     1      29.764 -22.950 -16.859  0.00  0.00    -0.166 F 
ATOM     15  C   UNL     1      30.768 -23.474 -16.097  0.00  0.00    +0.419 C 
ENDBRANCH   7  15
BRANCH   8  19
ATOM     16  F   UNL     1      35.822 -23.100 -14.389  0.00  0.00    -0.166 F 
ATOM     17  F   UNL     1      35.813 -24.984 -15.475  0.00  0.00    -0.166 F 
ATOM     18  F   UNL     1      36.914 -23.288 -16.260  0.00  0.00    -0.166 F 
ATOM     19  C   UNL     1      35.744 -23.630 -15.644  0.00  0.00    +0.419 C 
ENDBRANCH   8  19
ENDBRANCH   4   6
BRANCH   1  20
ATOM     20  C   UNL     1      35.538 -19.714 -22.070  0.00  0.00    +0.092 C 
ATOM     21  C   UNL     1      35.812 -18.413 -22.244  0.00  0.00    +0.077 C 
BRANCH  21  24
ATOM     22  O   UNL     1      35.423 -17.162 -20.249  0.00  0.00    -0.269 OA
ATOM     23  N   UNL     1      34.117 -16.757 -22.126  0.00  0.00    -0.231 N 
ATOM     24  C   UNL     1      35.117 -17.390 -21.414  0.00  0.00    +0.263 C 
ATOM     25  H   UNL     1      33.934 -16.998 -23.063  0.00  0.00    +0.173 HD
BRANCH  23  26
ATOM     26  N   UNL     1      33.392 -15.788 -21.495  0.00  0.00    -0.248 N 
ATOM     27  H   UNL     1      33.001 -15.959 -20.608  0.00  0.00    +0.172 HD
ATOM     28  N   UNL     1      32.277 -13.703 -21.624  0.00  0.00    -0.228 NA
ATOM     29  C   UNL     1      33.209 -14.548 -22.119  0.00  0.00    +0.144 C 
ATOM     30  C   UNL     1      34.006 -14.268 -23.217  0.00  0.00    +0.036 C 
ATOM     31  C   UNL     1      33.836 -13.040 -23.848  0.00  0.00    +0.005 C 
ATOM     32  C   UNL     1      32.888 -12.144 -23.368  0.00  0.00    +0.021 C 
ATOM     33  C   UNL     1      32.141 -12.520 -22.263  0.00  0.00    +0.100 C 
ENDBRANCH  23  26
ENDBRANCH  21  24
ENDBRANCH   1  20
TORSDOF 6
ENDMDL
MODEL 2
REMARK VINA RESULT:     -10.7      0.108      3.119
REMARK  Name = 71492799
REMARK  6 active torsions:
REMARK  status: ('A' for Active; 'I' for Inactive)
REMARK    1  A    between atoms: N_1  and  C_20
REMARK    2  A    between atoms: C_4  and  C_6
REMARK    3  A    between atoms: C_7  and  C_15
REMARK    4  A    between atoms: C_8  and  C_19
REMARK    5  A    between atoms: C_21  and  C_24
REMARK    6  A    between atoms: N_23  and  N_26
REMARK                            x       y       z     vdW  Elec       q    Type
REMARK                         _______ _______ _______ _____ _____    ______ ____
ROOT
ATOM      1  N   UNL     1      34.624 -20.260 -21.126  0.00  0.00    -0.176 N 
ATOM      2  N   UNL     1      34.829 -21.020 -20.040  0.00  0.00    -0.122 NA
ATOM      3  N   UNL     1      32.669 -20.687 -20.018  0.00  0.00    -0.194 NA
ATOM      4  C   UNL     1      33.662 -21.269 -19.386  0.00  0.00    +0.050 C 
ATOM      5  C   UNL     1      33.302 -20.087 -21.068  0.00  0.00    +0.252 C 
ENDROOT
BRANCH   4   6
ATOM      6  C   UNL     1      33.540 -22.052 -18.188  0.00  0.00    +0.063 C 
ATOM      7  C   UNL     1      34.567 -23.222 -16.341  0.00  0.00    +0.072 C 
ATOM      8  C   UNL     1      32.160 -23.162 -16.545  0.00  0.00    +0.072 C 
ATOM      9  C   UNL     1      32.278 -22.402 -17.709  0.00  0.00    +0.014 C 
ATOM     10  C   UNL     1      34.684 -22.462 -17.504  0.00  0.00    +0.014 C 
ATOM     11  C   UNL     1      33.304 -23.572 -15.861  0.00  0.00    +0.008 C 
BRANCH   7  15
ATOM     12  F   UNL     1      35.881 -25.012 -15.452  0.00  0.00    -0.166 F 
ATOM     13  F   UNL     1      36.954 -23.290 -16.218  0.00  0.00    -0.166 F 
ATOM     14  F   UNL     1      35.858 -23.140 -14.346  0.00  0.00    -0.166 F 
ATOM     15  C   UNL     1      35.789 -23.659 -15.607  0.00  0.00    +0.419 C 
ENDBRANCH   7  15
BRANCH   8  19
ATOM     16  F   UNL     1      30.677 -23.310 -14.692  0.00  0.00    -0.166 F 
ATOM     17  F   UNL     1      29.790 -22.845 -16.622  0.00  0.00    -0.166 F 
ATOM     18  F   UNL     1      30.501 -24.853 -16.214  0.00  0.00    -0.166 F 
ATOM     19  C   UNL     1      30.810 -23.535 -16.031  0.00  0.00    +0.419 C 
ENDBRANCH   8  19
ENDBRANCH   4   6
BRANCH   1  20
ATOM     20  C   UNL     1      35.516 -19.781 -22.056  0.00  0.00    +0.092 C 
ATOM     21  C   UNL     1      35.794 -18.482 -22.244  0.00  0.00    +0.077 C 
BRANCH  21  24
ATOM     22  O   UNL     1      35.457 -17.195 -20.262  0.00  0.00    -0.269 OA
ATOM     23  N   UNL     1      34.087 -16.840 -22.104  0.00  0.00    -0.231 N 
ATOM     24  C   UNL     1      35.115 -17.449 -21.412  0.00  0.00    +0.263 C 
ATOM     25  H   UNL     1      33.876 -17.101 -23.029  0.00  0.00    +0.173 HD
BRANCH  23  26
ATOM     26  N   UNL     1      33.373 -15.865 -21.469  0.00  0.00    -0.248 N 
ATOM     27  H   UNL     1      32.982 -16.034 -20.582  0.00  0.00    +0.172 HD
ATOM     28  N   UNL     1      32.278 -13.769 -21.590  0.00  0.00    -0.228 NA
ATOM     29  C   UNL     1      33.200 -14.622 -22.089  0.00  0.00    +0.144 C 
ATOM     30  C   UNL     1      33.998 -14.347 -23.189  0.00  0.00    +0.036 C 
ATOM     31  C   UNL     1      33.838 -13.116 -23.817  0.00  0.00    +0.005 C 
ATOM     32  C   UNL     1      32.900 -12.212 -23.332  0.00  0.00    +0.021 C 
ATOM     33  C   UNL     1      32.152 -12.583 -22.226  0.00  0.00    +0.100 C 
ENDBRANCH  23  26
ENDBRANCH  21  24
ENDBRANCH   1  20
TORSDOF 6
ENDMDL
MODEL 3
REMARK VINA RESULT:     -10.5      1.778      3.926
REMARK  Name = 71492799
REMARK  6 active torsions:
REMARK  status: ('A' for Active; 'I' for Inactive)
REMARK    1  A    between atoms: N_1  and  C_20
REMARK    2  A    between atoms: C_4  and  C_6
REMARK    3  A    between atoms: C_7  and  C_15
REMARK    4  A    between atoms: C_8  and  C_19
REMARK    5  A    between atoms: C_21  and  C_24
REMARK    6  A    between atoms: N_23  and  N_26
REMARK                            x       y       z     vdW  Elec       q    Type
REMARK                         _______ _______ _______ _____ _____    ______ ____
ROOT
ATOM      1  N   UNL     1      35.182 -22.039 -19.447  0.00  0.00    -0.176 N 
ATOM      2  N   UNL     1      35.173 -22.414 -18.159  0.00  0.00    -0.122 NA
ATOM      3  N   UNL     1      33.071 -22.565 -18.738  0.00  0.00    -0.194 NA
ATOM      4  C   UNL     1      33.915 -22.725 -17.744  0.00  0.00    +0.050 C 
ATOM      5  C   UNL     1      33.887 -22.148 -19.750  0.00  0.00    +0.252 C 
ENDROOT
BRANCH   4   6
ATOM      6  C   UNL     1      33.568 -23.163 -16.421  0.00  0.00    +0.063 C 
ATOM      7  C   UNL     1      34.236 -23.904 -14.222  0.00  0.00    +0.072 C 
ATOM      8  C   UNL     1      31.891 -23.695 -14.766  0.00  0.00    +0.072 C 
ATOM      9  C   UNL     1      32.228 -23.270 -16.051  0.00  0.00    +0.014 C 
ATOM     10  C   UNL     1      34.572 -23.479 -15.506  0.00  0.00    +0.014 C 
ATOM     11  C   UNL     1      32.895 -24.012 -13.851  0.00  0.00    +0.008 C 
BRANCH   7  15
ATOM     12  F   UNL     1      34.835 -24.728 -12.057  0.00  0.00    -0.166 F 
ATOM     13  F   UNL     1      36.183 -25.187 -13.693  0.00  0.00    -0.166 F 
ATOM     14  F   UNL     1      36.076 -23.161 -12.913  0.00  0.00    -0.166 F 
ATOM     15  C   UNL     1      35.308 -24.240 -13.242  0.00  0.00    +0.419 C 
ENDBRANCH   7  15
BRANCH   8  19
ATOM     16  F   UNL     1      29.777 -24.724 -15.118  0.00  0.00    -0.166 F 
ATOM     17  F   UNL     1      30.279 -24.194 -13.070  0.00  0.00    -0.166 F 
ATOM     18  F   UNL     1      29.761 -22.641 -14.494  0.00  0.00    -0.166 F 
ATOM     19  C   UNL     1      30.458 -23.809 -14.369  0.00  0.00    +0.419 C 
ENDBRANCH   8  19
ENDBRANCH   4   6
BRANCH   1  20
ATOM     20  C   UNL     1      36.225 -21.646 -20.250  0.00  0.00    +0.092 C 
ATOM     21  C   UNL     1      36.307 -20.456 -20.864  0.00  0.00    +0.077 C 
BRANCH  21  24
ATOM     22  O   UNL     1      34.039 -19.773 -20.562  0.00  0.00    -0.269 OA
ATOM     23  N   UNL     1      35.711 -18.166 -20.696  0.00  0.00    -0.231 N 
ATOM     24  C   UNL     1      35.217 -19.455 -20.692  0.00  0.00    +0.263 C 
ATOM     25  H   UNL     1      36.674 -17.993 -20.804  0.00  0.00    +0.173 HD
BRANCH  23  26
ATOM     26  N   UNL     1      34.826 -17.137 -20.543  0.00  0.00    -0.248 N 
ATOM     27  H   UNL     1      34.460 -16.925 -19.654  0.00  0.00    +0.172 HD
ATOM     28  N   UNL     1      33.377 -15.562 -21.554  0.00  0.00    -0.228 NA
ATOM     29  C   UNL     1      34.442 -16.386 -21.660  0.00  0.00    +0.144 C 
ATOM     30  C   UNL     1      35.192 -16.542 -22.816  0.00  0.00    +0.036 C 
ATOM     31  C   UNL     1      34.822 -15.803 -23.935  0.00  0.00    +0.005 C 
ATOM     32  C   UNL     1      33.732 -14.944 -23.865  0.00  0.00    +0.021 C 
ATOM     33  C   UNL     1      33.048 -14.860 -22.662  0.00  0.00    +0.100 C 
ENDBRANCH  23  26
ENDBRANCH  21  24
ENDBRANCH   1  20
TORSDOF 6
ENDMDL
MODEL 4
REMARK VINA RESULT:     -10.5      1.778      2.469
REMARK  Name = 71492799
REMARK  6 active torsions:
REMARK  status: ('A' for Active; 'I' for Inactive)
REMARK    1  A    between atoms: N_1  and  C_20
REMARK    2  A    between atoms: C_4  and  C_6
REMARK    3  A    between atoms: C_7  and  C_15
REMARK    4  A    between atoms: C_8  and  C_19
REMARK    5  A    between atoms: C_21  and  C_24
REMARK    6  A    between atoms: N_23  and  N_26
REMARK                            x       y       z     vdW  Elec       q    Type
REMARK                         _______ _______ _______ _____ _____    ______ ____
ROOT
ATOM      1  N   UNL     1      35.182 -22.045 -19.450  0.00  0.00    -0.176 N 
ATOM      2  N   UNL     1      35.176 -22.417 -18.161  0.00  0.00    -0.122 NA
ATOM      3  N   UNL     1      33.074 -22.576 -18.738  0.00  0.00    -0.194 NA
ATOM      4  C   UNL     1      33.918 -22.730 -17.745  0.00  0.00    +0.050 C 
ATOM      5  C   UNL     1      33.887 -22.159 -19.752  0.00  0.00    +0.252 C 
ENDROOT
BRANCH   4   6
ATOM      6  C   UNL     1      33.575 -23.165 -16.420  0.00  0.00    +0.063 C 
ATOM      7  C   UNL     1      31.901 -23.695 -14.761  0.00  0.00    +0.072 C 
ATOM      8  C   UNL     1      34.246 -23.905 -14.221  0.00  0.00    +0.072 C 
ATOM      9  C   UNL     1      34.581 -23.482 -15.507  0.00  0.00    +0.014 C 
ATOM     10  C   UNL     1      32.235 -23.272 -16.046  0.00  0.00    +0.014 C 
ATOM     11  C   UNL     1      32.907 -24.012 -13.847  0.00  0.00    +0.008 C 
BRANCH   7  15
ATOM     12  F   UNL     1      30.291 -24.153 -13.051  0.00  0.00    -0.166 F 
ATOM     13  F   UNL     1      29.759 -22.657 -14.529  0.00  0.00    -0.166 F 
ATOM     14  F   UNL     1      29.799 -24.760 -15.081  0.00  0.00    -0.166 F 
ATOM     15  C   UNL     1      30.469 -23.812 -14.362  0.00  0.00    +0.419 C 
ENDBRANCH   7  15
BRANCH   8  19
ATOM     16  F   UNL     1      36.122 -23.180 -12.952  0.00  0.00    -0.166 F 
ATOM     17  F   UNL     1      34.848 -24.688 -12.041  0.00  0.00    -0.166 F 
ATOM     18  F   UNL     1      36.164 -25.229 -13.679  0.00  0.00    -0.166 F 
ATOM     19  C   UNL     1      35.322 -24.246 -13.244  0.00  0.00    +0.419 C 
ENDBRANCH   8  19
ENDBRANCH   4   6
BRANCH   1  20
ATOM     20  C   UNL     1      36.223 -21.651 -20.256  0.00  0.00    +0.092 C 
ATOM     21  C   UNL     1      36.302 -20.461 -20.870  0.00  0.00    +0.077 C 
BRANCH  21  24
ATOM     22  O   UNL     1      34.034 -19.781 -20.566  0.00  0.00    -0.269 OA
ATOM     23  N   UNL     1      35.704 -18.172 -20.698  0.00  0.00    -0.231 N 
ATOM     24  C   UNL     1      35.211 -19.462 -20.696  0.00  0.00    +0.263 C 
ATOM     25  H   UNL     1      36.666 -17.999 -20.806  0.00  0.00    +0.173 HD
BRANCH  23  26
ATOM     26  N   UNL     1      34.818 -17.145 -20.544  0.00  0.00    -0.248 N 
ATOM     27  H   UNL     1      34.450 -16.936 -19.655  0.00  0.00    +0.172 HD
ATOM     28  N   UNL     1      33.370 -15.566 -21.553  0.00  0.00    -0.228 NA
ATOM     29  C   UNL     1      34.437 -16.390 -21.659  0.00  0.00    +0.144 C 
ATOM     30  C   UNL     1      35.190 -16.540 -22.813  0.00  0.00    +0.036 C 
ATOM     31  C   UNL     1      34.823 -15.797 -23.930  0.00  0.00    +0.005 C 
ATOM     32  C   UNL     1      33.732 -14.939 -23.860  0.00  0.00    +0.021 C 
ATOM     33  C   UNL     1      33.045 -14.860 -22.659  0.00  0.00    +0.100 C 
ENDBRANCH  23  26
ENDBRANCH  21  24
ENDBRANCH   1  20
TORSDOF 6
ENDMDL
MODEL 5
REMARK VINA RESULT:     -10.4      7.186     11.680
REMARK  Name = 71492799
REMARK  6 active torsions:
REMARK  status: ('A' for Active; 'I' for Inactive)
REMARK    1  A    between atoms: N_1  and  C_20
REMARK    2  A    between atoms: C_4  and  C_6
REMARK    3  A    between atoms: C_7  and  C_15
REMARK    4  A    between atoms: C_8  and  C_19
REMARK    5  A    between atoms: C_21  and  C_24
REMARK    6  A    between atoms: N_23  and  N_26
REMARK                            x       y       z     vdW  Elec       q    Type
REMARK                         _______ _______ _______ _____ _____    ______ ____
ROOT
ATOM      1  N   UNL     1      33.273 -13.444 -25.579  0.00  0.00    -0.176 N 
ATOM      2  N   UNL     1      32.684 -12.835 -24.539  0.00  0.00    -0.122 NA
ATOM      3  N   UNL     1      34.209 -11.399 -25.161  0.00  0.00    -0.194 NA
ATOM      4  C   UNL     1      33.246 -11.620 -24.296  0.00  0.00    +0.050 C 
ATOM      5  C   UNL     1      34.188 -12.533 -25.920  0.00  0.00    +0.252 C 
ENDROOT
BRANCH   4   6
ATOM      6  C   UNL     1      32.842 -10.720 -23.253  0.00  0.00    +0.063 C 
ATOM      7  C   UNL     1      32.544  -8.468 -22.433  0.00  0.00    +0.072 C 
ATOM      8  C   UNL     1      31.961 -10.350 -21.034  0.00  0.00    +0.072 C 
ATOM      9  C   UNL     1      32.354 -11.224 -22.047  0.00  0.00    +0.014 C 
ATOM     10  C   UNL     1      32.936  -9.341 -23.445  0.00  0.00    +0.014 C 
ATOM     11  C   UNL     1      32.056  -8.971 -21.226  0.00  0.00    +0.008 C 
BRANCH   7  15
ATOM     12  F   UNL     1      31.606  -6.470 -23.357  0.00  0.00    -0.166 F 
ATOM     13  F   UNL     1      32.664  -6.280 -21.474  0.00  0.00    -0.166 F 
ATOM     14  F   UNL     1      33.774  -6.632 -23.310  0.00  0.00    -0.166 F 
ATOM     15  C   UNL     1      32.642  -6.994 -22.638  0.00  0.00    +0.419 C 
ENDBRANCH   7  15
BRANCH   8  19
ATOM     16  F   UNL     1      31.675 -12.224 -19.599  0.00  0.00    -0.166 F 
ATOM     17  F   UNL     1      31.988 -10.297 -18.642  0.00  0.00    -0.166 F 
ATOM     18  F   UNL     1      30.090 -10.736 -19.596  0.00  0.00    -0.166 F 
ATOM     19  C   UNL     1      31.438 -10.888 -19.745  0.00  0.00    +0.419 C 
ENDBRANCH   8  19
ENDBRANCH   4   6
BRANCH   1  20
ATOM     20  C   UNL     1      33.021 -14.667 -26.152  0.00  0.00    +0.092 C 
ATOM     21  C   UNL     1      33.448 -15.840 -25.661  0.00  0.00    +0.077 C 
BRANCH  21  24
ATOM     22  O   UNL     1      34.150 -15.020 -23.531  0.00  0.00    -0.269 OA
ATOM     23  N   UNL     1      35.101 -16.961 -24.381  0.00  0.00    -0.231 N 
ATOM     24  C   UNL     1      34.254 -15.871 -24.408  0.00  0.00    +0.263 C 
ATOM     25  H   UNL     1      35.125 -17.603 -25.127  0.00  0.00    +0.173 HD
BRANCH  23  26
ATOM     26  N   UNL     1      35.903 -17.126 -23.288  0.00  0.00    -0.248 N 
ATOM     27  H   UNL     1      36.675 -16.532 -23.145  0.00  0.00    +0.172 HD
ATOM     28  N   UNL     1      36.558 -18.476 -21.456  0.00  0.00    -0.228 NA
ATOM     29  C   UNL     1      35.620 -18.146 -22.372  0.00  0.00    +0.144 C 
ATOM     30  C   UNL     1      34.380 -18.758 -22.469  0.00  0.00    +0.036 C 
ATOM     31  C   UNL     1      34.084 -19.774 -21.566  0.00  0.00    +0.005 C 
ATOM     32  C   UNL     1      35.022 -20.140 -20.609  0.00  0.00    +0.021 C 
ATOM     33  C   UNL     1      36.234 -19.467 -20.596  0.00  0.00    +0.100 C 
ENDBRANCH  23  26
ENDBRANCH  21  24
ENDBRANCH   1  20
TORSDOF 6
ENDMDL
MODEL 6
REMARK VINA RESULT:     -10.4      7.201     11.637
REMARK  Name = 71492799
REMARK  6 active torsions:
REMARK  status: ('A' for Active; 'I' for Inactive)
REMARK    1  A    between atoms: N_1  and  C_20
REMARK    2  A    between atoms: C_4  and  C_6
REMARK    3  A    between atoms: C_7  and  C_15
REMARK    4  A    between atoms: C_8  and  C_19
REMARK    5  A    between atoms: C_21  and  C_24
REMARK    6  A    between atoms: N_23  and  N_26
REMARK                            x       y       z     vdW  Elec       q    Type
REMARK                         _______ _______ _______ _____ _____    ______ ____
ROOT
ATOM      1  N   UNL     1      33.255 -13.469 -25.593  0.00  0.00    -0.176 N 
ATOM      2  N   UNL     1      32.667 -12.849 -24.559  0.00  0.00    -0.122 NA
ATOM      3  N   UNL     1      34.198 -11.424 -25.193  0.00  0.00    -0.194 NA
ATOM      4  C   UNL     1      33.234 -11.633 -24.327  0.00  0.00    +0.050 C 
ATOM      5  C   UNL     1      34.174 -12.566 -25.941  0.00  0.00    +0.252 C 
ENDROOT
BRANCH   4   6
ATOM      6  C   UNL     1      32.832 -10.722 -23.292  0.00  0.00    +0.063 C 
ATOM      7  C   UNL     1      31.967 -10.328 -21.072  0.00  0.00    +0.072 C 
ATOM      8  C   UNL     1      32.529  -8.461 -22.498  0.00  0.00    +0.072 C 
ATOM      9  C   UNL     1      32.919  -9.346 -23.503  0.00  0.00    +0.014 C 
ATOM     10  C   UNL     1      32.357 -11.213 -22.076  0.00  0.00    +0.014 C 
ATOM     11  C   UNL     1      32.054  -8.951 -21.282  0.00  0.00    +0.008 C 
BRANCH   7  15
ATOM     12  F   UNL     1      32.012 -10.240 -18.681  0.00  0.00    -0.166 F 
ATOM     13  F   UNL     1      30.111 -10.712 -19.613  0.00  0.00    -0.166 F 
ATOM     14  F   UNL     1      31.712 -12.184 -19.608  0.00  0.00    -0.166 F 
ATOM     15  C   UNL     1      31.461 -10.852 -19.771  0.00  0.00    +0.419 C 
ENDBRANCH   7  15
BRANCH   8  19
ATOM     16  F   UNL     1      32.623  -6.279 -21.557  0.00  0.00    -0.166 F 
ATOM     17  F   UNL     1      33.756  -6.608 -23.384  0.00  0.00    -0.166 F 
ATOM     18  F   UNL     1      31.592  -6.482 -23.461  0.00  0.00    -0.166 F 
ATOM     19  C   UNL     1      32.623  -6.989 -22.722  0.00  0.00    +0.419 C 
ENDBRANCH   8  19
ENDBRANCH   4   6
BRANCH   1  20
ATOM     20  C   UNL     1      32.998 -14.697 -26.155  0.00  0.00    +0.092 C 
ATOM     21  C   UNL     1      33.421 -15.867 -25.652  0.00  0.00    +0.077 C 
BRANCH  21  24
ATOM     22  O   UNL     1      34.107 -15.044 -23.519  0.00  0.00    -0.269 OA
ATOM     23  N   UNL     1      35.090 -16.966 -24.375  0.00  0.00    -0.231 N 
ATOM     24  C   UNL     1      34.226 -15.890 -24.399  0.00  0.00    +0.263 C 
ATOM     25  H   UNL     1      35.125 -17.604 -25.123  0.00  0.00    +0.173 HD
BRANCH  23  26
ATOM     26  N   UNL     1      35.894 -17.122 -23.283  0.00  0.00    -0.248 N 
ATOM     27  H   UNL     1      36.654 -16.514 -23.135  0.00  0.00    +0.172 HD
ATOM     28  N   UNL     1      36.574 -18.470 -21.458  0.00  0.00    -0.228 NA
ATOM     29  C   UNL     1      35.631 -18.153 -22.374  0.00  0.00    +0.144 C 
ATOM     30  C   UNL     1      34.403 -18.789 -22.476  0.00  0.00    +0.036 C 
ATOM     31  C   UNL     1      34.127 -19.817 -21.581  0.00  0.00    +0.005 C 
ATOM     32  C   UNL     1      35.071 -20.171 -20.624  0.00  0.00    +0.021 C 
ATOM     33  C   UNL     1      36.268 -19.473 -20.605  0.00  0.00    +0.100 C 
ENDBRANCH  23  26
ENDBRANCH  21  24
ENDBRANCH   1  20
TORSDOF 6
ENDMDL
MODEL 7
REMARK VINA RESULT:     -10.4      7.512     12.081
REMARK  Name = 71492799
REMARK  6 active torsions:
REMARK  status: ('A' for Active; 'I' for Inactive)
REMARK    1  A    between atoms: N_1  and  C_20
REMARK    2  A    between atoms: C_4  and  C_6
REMARK    3  A    between atoms: C_7  and  C_15
REMARK    4  A    between atoms: C_8  and  C_19
REMARK    5  A    between atoms: C_21  and  C_24
REMARK    6  A    between atoms: N_23  and  N_26
REMARK                            x       y       z     vdW  Elec       q    Type
REMARK                         _______ _______ _______ _____ _____    ______ ____
ROOT
ATOM      1  N   UNL     1      33.816 -11.676 -25.623  0.00  0.00    -0.176 N 
ATOM      2  N   UNL     1      33.001 -11.294 -24.628  0.00  0.00    -0.122 NA
ATOM      3  N   UNL     1      34.677  -9.901 -24.464  0.00  0.00    -0.194 NA
ATOM      4  C   UNL     1      33.520 -10.238 -23.943  0.00  0.00    +0.050 C 
ATOM      5  C   UNL     1      34.815 -10.801 -25.481  0.00  0.00    +0.252 C 
ENDROOT
BRANCH   4   6
ATOM      6  C   UNL     1      32.892  -9.594 -22.824  0.00  0.00    +0.063 C 
ATOM      7  C   UNL     1      32.075  -7.589 -21.753  0.00  0.00    +0.072 C 
ATOM      8  C   UNL     1      31.877  -9.722 -20.636  0.00  0.00    +0.072 C 
ATOM      9  C   UNL     1      32.487 -10.348 -21.723  0.00  0.00    +0.014 C 
ATOM     10  C   UNL     1      32.685  -8.215 -22.839  0.00  0.00    +0.014 C 
ATOM     11  C   UNL     1      31.670  -8.343 -20.650  0.00  0.00    +0.008 C 
BRANCH   7  15
ATOM     12  F   UNL     1      32.389  -5.490 -22.858  0.00  0.00    -0.166 F 
ATOM     13  F   UNL     1      30.532  -5.762 -21.772  0.00  0.00    -0.166 F 
ATOM     14  F   UNL     1      32.394  -5.490 -20.683  0.00  0.00    -0.166 F 
ATOM     15  C   UNL     1      31.851  -6.115 -21.769  0.00  0.00    +0.419 C 
ENDBRANCH   7  15
BRANCH   8  19
ATOM     16  F   UNL     1      31.551 -11.871 -19.672  0.00  0.00    -0.166 F 
ATOM     17  F   UNL     1      32.169 -10.278 -18.327  0.00  0.00    -0.166 F 
ATOM     18  F   UNL     1      30.142 -10.317 -19.100  0.00  0.00    -0.166 F 
ATOM     19  C   UNL     1      31.443 -10.528 -19.458  0.00  0.00    +0.419 C 
ENDBRANCH   8  19
ENDBRANCH   4   6
BRANCH   1  20
ATOM     20  C   UNL     1      33.680 -12.687 -26.544  0.00  0.00    +0.092 C 
ATOM     21  C   UNL     1      33.424 -13.967 -26.237  0.00  0.00    +0.077 C 
BRANCH  21  24
ATOM     22  O   UNL     1      32.213 -14.236 -24.196  0.00  0.00    -0.269 OA
ATOM     23  N   UNL     1      34.434 -14.905 -24.306  0.00  0.00    -0.231 N 
ATOM     24  C   UNL     1      33.266 -14.371 -24.811  0.00  0.00    +0.263 C 
ATOM     25  H   UNL     1      35.240 -14.982 -24.867  0.00  0.00    +0.173 HD
BRANCH  23  26
ATOM     26  N   UNL     1      34.441 -15.326 -23.007  0.00  0.00    -0.248 N 
ATOM     27  H   UNL     1      34.227 -14.697 -22.281  0.00  0.00    +0.172 HD
ATOM     28  N   UNL     1      35.026 -16.998 -21.436  0.00  0.00    -0.228 NA
ATOM     29  C   UNL     1      34.756 -16.658 -22.716  0.00  0.00    +0.144 C 
ATOM     30  C   UNL     1      34.769 -17.552 -23.775  0.00  0.00    +0.036 C 
ATOM     31  C   UNL     1      35.081 -18.880 -23.502  0.00  0.00    +0.005 C 
ATOM     32  C   UNL     1      35.364 -19.267 -22.198  0.00  0.00    +0.021 C 
ATOM     33  C   UNL     1      35.324 -18.297 -21.209  0.00  0.00    +0.100 C 
ENDBRANCH  23  26
ENDBRANCH  21  24
ENDBRANCH   1  20
TORSDOF 6
ENDMDL
MODEL 8
REMARK VINA RESULT:     -10.3      6.979     11.237
REMARK  Name = 71492799
REMARK  6 active torsions:
REMARK  status: ('A' for Active; 'I' for Inactive)
REMARK    1  A    between atoms: N_1  and  C_20
REMARK    2  A    between atoms: C_4  and  C_6
REMARK    3  A    between atoms: C_7  and  C_15
REMARK    4  A    between atoms: C_8  and  C_19
REMARK    5  A    between atoms: C_21  and  C_24
REMARK    6  A    between atoms: N_23  and  N_26
REMARK                            x       y       z     vdW  Elec       q    Type
REMARK                         _______ _______ _______ _____ _____    ______ ____
ROOT
ATOM      1  N   UNL     1      33.167 -14.840 -24.147  0.00  0.00    -0.176 N 
ATOM      2  N   UNL     1      32.992 -13.516 -24.017  0.00  0.00    -0.122 NA
ATOM      3  N   UNL     1      32.656 -14.267 -21.992  0.00  0.00    -0.194 NA
ATOM      4  C   UNL     1      32.688 -13.184 -22.732  0.00  0.00    +0.050 C 
ATOM      5  C   UNL     1      32.953 -15.247 -22.894  0.00  0.00    +0.252 C 
ENDROOT
BRANCH   4   6
ATOM      6  C   UNL     1      32.443 -11.848 -22.264  0.00  0.00    +0.063 C 
ATOM      7  C   UNL     1      32.501  -9.461 -22.626  0.00  0.00    +0.072 C 
ATOM      8  C   UNL     1      31.668 -10.346 -20.538  0.00  0.00    +0.072 C 
ATOM      9  C   UNL     1      31.907 -11.643 -20.993  0.00  0.00    +0.014 C 
ATOM     10  C   UNL     1      32.740 -10.757 -23.080  0.00  0.00    +0.014 C 
ATOM     11  C   UNL     1      31.965  -9.255 -21.354  0.00  0.00    +0.008 C 
BRANCH   7  15
ATOM     12  F   UNL     1      33.896  -8.491 -24.311  0.00  0.00    -0.166 F 
ATOM     13  F   UNL     1      31.797  -7.950 -24.341  0.00  0.00    -0.166 F 
ATOM     14  F   UNL     1      33.096  -7.165 -22.785  0.00  0.00    -0.166 F 
ATOM     15  C   UNL     1      32.816  -8.294 -23.499  0.00  0.00    +0.419 C 
ENDBRANCH   7  15
BRANCH   8  19
ATOM     16  F   UNL     1      29.771 -10.451 -19.109  0.00  0.00    -0.166 F 
ATOM     17  F   UNL     1      31.704 -10.860 -18.202  0.00  0.00    -0.166 F 
ATOM     18  F   UNL     1      31.176  -8.830 -18.754  0.00  0.00    -0.166 F 
ATOM     19  C   UNL     1      31.094 -10.126 -19.179  0.00  0.00    +0.419 C 
ENDBRANCH   8  19
ENDBRANCH   4   6
BRANCH   1  20
ATOM     20  C   UNL     1      33.480 -15.589 -25.256  0.00  0.00    +0.092 C 
ATOM     21  C   UNL     1      34.398 -16.566 -25.280  0.00  0.00    +0.077 C 
BRANCH  21  24
ATOM     22  O   UNL     1      35.789 -16.065 -23.405  0.00  0.00    -0.269 OA
ATOM     23  N   UNL     1      35.047 -18.242 -23.731  0.00  0.00    -0.231 N 
ATOM     24  C   UNL     1      35.158 -16.902 -24.043  0.00  0.00    +0.263 C 
ATOM     25  H   UNL     1      34.518 -18.851 -24.295  0.00  0.00    +0.173 HD
BRANCH  23  26
ATOM     26  N   UNL     1      35.690 -18.699 -22.616  0.00  0.00    -0.248 N 
ATOM     27  H   UNL     1      36.646 -18.506 -22.480  0.00  0.00    +0.172 HD
ATOM     28  N   UNL     1      35.670 -20.117 -20.720  0.00  0.00    -0.228 NA
ATOM     29  C   UNL     1      34.980 -19.445 -21.668  0.00  0.00    +0.144 C 
ATOM     30  C   UNL     1      33.597 -19.443 -21.766  0.00  0.00    +0.036 C 
ATOM     31  C   UNL     1      32.878 -20.180 -20.832  0.00  0.00    +0.005 C 
ATOM     32  C   UNL     1      33.552 -20.883 -19.841  0.00  0.00    +0.021 C 
ATOM     33  C   UNL     1      34.936 -20.821 -19.829  0.00  0.00    +0.100 C 
ENDBRANCH  23  26
ENDBRANCH  21  24
ENDBRANCH   1  20
TORSDOF 6
ENDMDL
MODEL 9
REMARK VINA RESULT:     -10.3      6.988     11.160
REMARK  Name = 71492799
REMARK  6 active torsions:
REMARK  status: ('A' for Active; 'I' for Inactive)
REMARK    1  A    between atoms: N_1  and  C_20
REMARK    2  A    between atoms: C_4  and  C_6
REMARK    3  A    between atoms: C_7  and  C_15
REMARK    4  A    between atoms: C_8  and  C_19
REMARK    5  A    between atoms: C_21  and  C_24
REMARK    6  A    between atoms: N_23  and  N_26
REMARK                            x       y       z     vdW  Elec       q    Type
REMARK                         _______ _______ _______ _____ _____    ______ ____
ROOT
ATOM      1  N   UNL     1      33.179 -14.838 -24.156  0.00  0.00    -0.176 N 
ATOM      2  N   UNL     1      33.013 -13.513 -24.029  0.00  0.00    -0.122 NA
ATOM      3  N   UNL     1      32.632 -14.261 -22.011  0.00  0.00    -0.194 NA
ATOM      4  C   UNL     1      32.688 -13.177 -22.750  0.00  0.00    +0.050 C 
ATOM      5  C   UNL     1      32.937 -15.244 -22.907  0.00  0.00    +0.252 C 
ENDROOT
BRANCH   4   6
ATOM      6  C   UNL     1      32.446 -11.840 -22.286  0.00  0.00    +0.063 C 
ATOM      7  C   UNL     1      31.685 -10.330 -20.561  0.00  0.00    +0.072 C 
ATOM      8  C   UNL     1      32.504  -9.454 -22.659  0.00  0.00    +0.072 C 
ATOM      9  C   UNL     1      32.739 -10.753 -23.110  0.00  0.00    +0.014 C 
ATOM     10  C   UNL     1      31.919 -11.628 -21.012  0.00  0.00    +0.014 C 
ATOM     11  C   UNL     1      31.978  -9.242 -21.384  0.00  0.00    +0.008 C 
BRANCH   7  15
ATOM     12  F   UNL     1      31.198  -8.804 -18.785  0.00  0.00    -0.166 F 
ATOM     13  F   UNL     1      29.804 -10.437 -19.088  0.00  0.00    -0.166 F 
ATOM     14  F   UNL     1      31.767 -10.830 -18.238  0.00  0.00    -0.166 F 
ATOM     15  C   UNL     1      31.124 -10.103 -19.198  0.00  0.00    +0.419 C 
ENDBRANCH   7  15
BRANCH   8  19
ATOM     16  F   UNL     1      31.789  -7.972 -24.375  0.00  0.00    -0.166 F 
ATOM     17  F   UNL     1      33.098  -7.144 -22.849  0.00  0.00    -0.166 F 
ATOM     18  F   UNL     1      33.900  -8.493 -24.347  0.00  0.00    -0.166 F 
ATOM     19  C   UNL     1      32.818  -8.291 -23.538  0.00  0.00    +0.419 C 
ENDBRANCH   8  19
ENDBRANCH   4   6
BRANCH   1  20
ATOM     20  C   UNL     1      33.505 -15.590 -25.259  0.00  0.00    +0.092 C 
ATOM     21  C   UNL     1      34.423 -16.568 -25.268  0.00  0.00    +0.077 C 
BRANCH  21  24
ATOM     22  O   UNL     1      35.771 -16.060 -23.364  0.00  0.00    -0.269 OA
ATOM     23  N   UNL     1      35.073 -18.246 -23.722  0.00  0.00    -0.231 N 
ATOM     24  C   UNL     1      35.166 -16.901 -24.021  0.00  0.00    +0.263 C 
ATOM     25  H   UNL     1      34.566 -18.859 -24.301  0.00  0.00    +0.173 HD
BRANCH  23  26
ATOM     26  N   UNL     1      35.704 -18.701 -22.600  0.00  0.00    -0.248 N 
ATOM     27  H   UNL     1      36.658 -18.509 -22.454  0.00  0.00    +0.172 HD
ATOM     28  N   UNL     1      35.663 -20.117 -20.703  0.00  0.00    -0.228 NA
ATOM     29  C   UNL     1      34.984 -19.446 -21.659  0.00  0.00    +0.144 C 
ATOM     30  C   UNL     1      33.602 -19.444 -21.773  0.00  0.00    +0.036 C 
ATOM     31  C   UNL     1      32.872 -20.180 -20.845  0.00  0.00    +0.005 C 
ATOM     32  C   UNL     1      33.535 -20.883 -19.847  0.00  0.00    +0.021 C 
ATOM     33  C   UNL     1      34.920 -20.820 -19.819  0.00  0.00    +0.100 C 
ENDBRANCH  23  26
ENDBRANCH  21  24
ENDBRANCH   1  20
TORSDOF 6
ENDMDL
