MODEL 1
REMARK VINA RESULT:      -8.9      0.000      0.000
REMARK  Name = 24352
REMARK  6 active torsions:
REMARK  status: ('A' for Active; 'I' for Inactive)
REMARK    1  A    between atoms: N_2  and  C_19
REMARK    2  A    between atoms: C_8  and  C_16
REMARK    3  A    between atoms: C_16  and  C_17
REMARK    4  A    between atoms: C_19  and  C_20
REMARK    5  A    between atoms: C_20  and  C_21
REMARK    6  A    between atoms: C_21  and  N_22
REMARK                            x       y       z     vdW  Elec       q    Type
REMARK                         _______ _______ _______ _____ _____    ______ ____
ROOT
ATOM      1  S   UNL     1      33.538 -15.575 -25.869  0.00  0.00    -0.084 S 
ATOM      2  N   UNL     1      33.906 -14.685 -22.913  0.00  0.00    -0.286 N 
ATOM      3  C   UNL     1      33.759 -13.637 -23.857  0.00  0.00    +0.058 C 
ATOM      4  C   UNL     1      34.334 -16.002 -23.217  0.00  0.00    +0.058 C 
ATOM      5  C   UNL     1      33.609 -13.913 -25.231  0.00  0.00    +0.043 C 
ATOM      6  C   UNL     1      34.241 -16.512 -24.526  0.00  0.00    +0.043 C 
ATOM      7  C   UNL     1      33.792 -12.278 -23.477  0.00  0.00    +0.018 C 
ATOM      8  C   UNL     1      33.660 -11.245 -24.409  0.00  0.00    +0.036 C 
ATOM      9  C   UNL     1      34.903 -16.847 -22.239  0.00  0.00    +0.015 C 
ATOM     10  C   UNL     1      33.471 -12.870 -26.163  0.00  0.00    +0.008 C 
ATOM     11  C   UNL     1      33.496 -11.542 -25.753  0.00  0.00    +0.003 C 
ATOM     12  C   UNL     1      34.674 -17.817 -24.823  0.00  0.00    +0.008 C 
ATOM     13  C   UNL     1      35.338 -18.141 -22.541  0.00  0.00    +0.001 C 
ATOM     14  C   UNL     1      35.219 -18.627 -23.834  0.00  0.00    +0.001 C 
ENDROOT
BRANCH   8  16
ATOM     15  O   UNL     1      32.700  -9.354 -23.392  0.00  0.00    -0.291 OA
ATOM     16  C   UNL     1      33.685  -9.859 -23.968  0.00  0.00    +0.173 C 
BRANCH  16  17
ATOM     17  C   UNL     1      34.938  -8.999 -24.211  0.00  0.00    +0.069 C 
ATOM     18  C   UNL     1      34.876  -7.635 -23.542  0.00  0.00    +0.009 C 
ENDBRANCH  16  17
ENDBRANCH   8  16
BRANCH   2  19
ATOM     19  C   UNL     1      33.659 -14.363 -21.501  0.00  0.00    +0.093 C 
BRANCH  19  20
ATOM     20  C   UNL     1      32.249 -13.805 -21.312  0.00  0.00    -0.001 C 
BRANCH  20  21
ATOM     21  C   UNL     1      32.079 -12.904 -20.086  0.00  0.00    -0.076 C 
BRANCH  21  22
ATOM     22  N   UNL     1      31.804 -11.522 -20.458  0.00  0.00    +0.384 N 
ATOM     23  C   UNL     1      30.748 -11.461 -21.471  0.00  0.00    -0.101 C 
ATOM     24  C   UNL     1      31.425 -10.737 -19.282  0.00  0.00    -0.101 C 
ATOM     25  H   UNL     1      32.655 -11.124 -20.854  0.00  0.00    -0.080 HD
ENDBRANCH  21  22
ENDBRANCH  20  21
ENDBRANCH  19  20
ENDBRANCH   2  19
TORSDOF 6
ENDMDL
MODEL 2
REMARK VINA RESULT:      -8.8      9.866     12.764
REMARK  Name = 24352
REMARK  6 active torsions:
REMARK  status: ('A' for Active; 'I' for Inactive)
REMARK    1  A    between atoms: N_2  and  C_19
REMARK    2  A    between atoms: C_8  and  C_16
REMARK    3  A    between atoms: C_16  and  C_17
REMARK    4  A    between atoms: C_19  and  C_20
REMARK    5  A    between atoms: C_20  and  C_21
REMARK    6  A    between atoms: C_21  and  N_22
REMARK                            x       y       z     vdW  Elec       q    Type
REMARK                         _______ _______ _______ _____ _____    ______ ____
ROOT
ATOM      1  S   UNL     1      37.795 -23.122 -15.216  0.00  0.00    -0.084 S 
ATOM      2  N   UNL     1      34.748 -23.733 -15.135  0.00  0.00    -0.286 N 
ATOM      3  C   UNL     1      35.208 -23.050 -16.290  0.00  0.00    +0.058 C 
ATOM      4  C   UNL     1      35.414 -23.758 -13.884  0.00  0.00    +0.058 C 
ATOM      5  C   UNL     1      36.564 -22.696 -16.432  0.00  0.00    +0.043 C 
ATOM      6  C   UNL     1      36.790 -23.475 -13.787  0.00  0.00    +0.043 C 
ATOM      7  C   UNL     1      34.333 -22.662 -17.327  0.00  0.00    +0.018 C 
ATOM      8  C   UNL     1      34.784 -21.979 -18.460  0.00  0.00    +0.036 C 
ATOM      9  C   UNL     1      34.730 -24.031 -12.679  0.00  0.00    +0.015 C 
ATOM     10  C   UNL     1      37.014 -22.013 -17.576  0.00  0.00    +0.008 C 
ATOM     11  C   UNL     1      36.127 -21.657 -18.585  0.00  0.00    +0.003 C 
ATOM     12  C   UNL     1      37.444 -23.494 -12.542  0.00  0.00    +0.008 C 
ATOM     13  C   UNL     1      35.384 -24.043 -11.443  0.00  0.00    +0.001 C 
ATOM     14  C   UNL     1      36.743 -23.779 -11.376  0.00  0.00    +0.001 C 
ENDROOT
BRANCH   8  16
ATOM     15  O   UNL     1      32.830 -22.302 -19.728  0.00  0.00    -0.291 OA
ATOM     16  C   UNL     1      33.848 -21.613 -19.511  0.00  0.00    +0.173 C 
BRANCH  16  17
ATOM     17  C   UNL     1      34.107 -20.363 -20.370  0.00  0.00    +0.069 C 
ATOM     18  C   UNL     1      32.837 -19.638 -20.787  0.00  0.00    +0.009 C 
ENDBRANCH  16  17
ENDBRANCH   8  16
BRANCH   2  19
ATOM     19  C   UNL     1      33.447 -24.410 -15.223  0.00  0.00    +0.093 C 
BRANCH  19  20
ATOM     20  C   UNL     1      32.321 -23.475 -14.785  0.00  0.00    -0.001 C 
BRANCH  20  21
ATOM     21  C   UNL     1      31.103 -23.465 -15.713  0.00  0.00    -0.076 C 
BRANCH  21  22
ATOM     22  N   UNL     1      29.877 -23.823 -15.010  0.00  0.00    +0.384 N 
ATOM     23  C   UNL     1      28.705 -23.323 -15.730  0.00  0.00    -0.101 C 
ATOM     24  C   UNL     1      29.787 -25.273 -14.837  0.00  0.00    -0.101 C 
ATOM     25  H   UNL     1      29.901 -23.386 -14.088  0.00  0.00    -0.080 HD
ENDBRANCH  21  22
ENDBRANCH  20  21
ENDBRANCH  19  20
ENDBRANCH   2  19
TORSDOF 6
ENDMDL
MODEL 3
REMARK VINA RESULT:      -8.5      3.808      7.014
REMARK  Name = 24352
REMARK  6 active torsions:
REMARK  status: ('A' for Active; 'I' for Inactive)
REMARK    1  A    between atoms: N_2  and  C_19
REMARK    2  A    between atoms: C_8  and  C_16
REMARK    3  A    between atoms: C_16  and  C_17
REMARK    4  A    between atoms: C_19  and  C_20
REMARK    5  A    between atoms: C_20  and  C_21
REMARK    6  A    between atoms: C_21  and  N_22
REMARK                            x       y       z     vdW  Elec       q    Type
REMARK                         _______ _______ _______ _____ _____    ______ ____
ROOT
ATOM      1  S   UNL     1      32.255  -7.633 -19.900  0.00  0.00    -0.084 S 
ATOM      2  N   UNL     1      32.244  -8.896 -22.741  0.00  0.00    -0.286 N 
ATOM      3  C   UNL     1      32.032  -7.495 -22.690  0.00  0.00    +0.058 C 
ATOM      4  C   UNL     1      32.018  -9.794 -21.668  0.00  0.00    +0.058 C 
ATOM      5  C   UNL     1      31.992  -6.811 -21.459  0.00  0.00    +0.043 C 
ATOM      6  C   UNL     1      31.976  -9.338 -20.336  0.00  0.00    +0.043 C 
ATOM      7  C   UNL     1      31.818  -6.728 -23.856  0.00  0.00    +0.018 C 
ATOM      8  C   UNL     1      31.597  -5.349 -23.805  0.00  0.00    +0.036 C 
ATOM      9  C   UNL     1      31.789 -11.171 -21.881  0.00  0.00    +0.015 C 
ATOM     10  C   UNL     1      31.775  -5.422 -21.414  0.00  0.00    +0.008 C 
ATOM     11  C   UNL     1      31.579  -4.695 -22.583  0.00  0.00    +0.003 C 
ATOM     12  C   UNL     1      31.744 -10.233 -19.275  0.00  0.00    +0.008 C 
ATOM     13  C   UNL     1      31.553 -12.055 -20.824  0.00  0.00    +0.001 C 
ATOM     14  C   UNL     1      31.534 -11.585 -19.519  0.00  0.00    +0.001 C 
ENDROOT
BRANCH   8  16
ATOM     15  O   UNL     1      30.409  -3.844 -25.168  0.00  0.00    -0.291 OA
ATOM     16  C   UNL     1      31.395  -4.598 -25.034  0.00  0.00    +0.173 C 
BRANCH  16  17
ATOM     17  C   UNL     1      32.404  -4.728 -26.188  0.00  0.00    +0.069 C 
ATOM     18  C   UNL     1      32.393  -3.543 -27.141  0.00  0.00    +0.009 C 
ENDBRANCH  16  17
ENDBRANCH   8  16
BRANCH   2  19
ATOM     19  C   UNL     1      32.666  -9.470 -24.026  0.00  0.00    +0.093 C 
BRANCH  19  20
ATOM     20  C   UNL     1      34.173  -9.723 -24.035  0.00  0.00    -0.001 C 
BRANCH  20  21
ATOM     21  C   UNL     1      34.624 -10.854 -24.965  0.00  0.00    -0.076 C 
BRANCH  21  22
ATOM     22  N   UNL     1      33.627 -11.913 -25.060  0.00  0.00    +0.384 N 
ATOM     23  C   UNL     1      33.577 -12.453 -26.420  0.00  0.00    -0.101 C 
ATOM     24  C   UNL     1      33.915 -12.979 -24.099  0.00  0.00    -0.101 C 
ATOM     25  H   UNL     1      32.716 -11.512 -24.838  0.00  0.00    -0.080 HD
ENDBRANCH  21  22
ENDBRANCH  20  21
ENDBRANCH  19  20
ENDBRANCH   2  19
TORSDOF 6
ENDMDL
MODEL 4
REMARK VINA RESULT:      -8.3      1.803      4.294
REMARK  Name = 24352
REMARK  6 active torsions:
REMARK  status: ('A' for Active; 'I' for Inactive)
REMARK    1  A    between atoms: N_2  and  C_19
REMARK    2  A    between atoms: C_8  and  C_16
REMARK    3  A    between atoms: C_16  and  C_17
REMARK    4  A    between atoms: C_19  and  C_20
REMARK    5  A    between atoms: C_20  and  C_21
REMARK    6  A    between atoms: C_21  and  N_22
REMARK                            x       y       z     vdW  Elec       q    Type
REMARK                         _______ _______ _______ _____ _____    ______ ____
ROOT
ATOM      1  S   UNL     1      34.573 -16.518 -21.025  0.00  0.00    -0.084 S 
ATOM      2  N   UNL     1      33.767 -14.970 -23.598  0.00  0.00    -0.286 N 
ATOM      3  C   UNL     1      33.286 -14.429 -22.378  0.00  0.00    +0.058 C 
ATOM      4  C   UNL     1      34.168 -16.316 -23.790  0.00  0.00    +0.058 C 
ATOM      5  C   UNL     1      33.565 -15.054 -21.147  0.00  0.00    +0.043 C 
ATOM      6  C   UNL     1      34.534 -17.128 -22.699  0.00  0.00    +0.043 C 
ATOM      7  C   UNL     1      32.482 -13.269 -22.340  0.00  0.00    +0.018 C 
ATOM      8  C   UNL     1      31.998 -12.743 -21.139  0.00  0.00    +0.036 C 
ATOM      9  C   UNL     1      34.186 -16.915 -25.069  0.00  0.00    +0.015 C 
ATOM     10  C   UNL     1      33.080 -14.517 -19.941  0.00  0.00    +0.008 C 
ATOM     11  C   UNL     1      32.301 -13.366 -19.938  0.00  0.00    +0.003 C 
ATOM     12  C   UNL     1      34.925 -18.465 -22.896  0.00  0.00    +0.008 C 
ATOM     13  C   UNL     1      34.569 -18.246 -25.258  0.00  0.00    +0.001 C 
ATOM     14  C   UNL     1      34.943 -19.020 -24.170  0.00  0.00    +0.001 C 
ENDROOT
BRANCH   8  16
ATOM     15  O   UNL     1      30.709 -11.095 -22.214  0.00  0.00    -0.291 OA
ATOM     16  C   UNL     1      31.186 -11.537 -21.148  0.00  0.00    +0.173 C 
BRANCH  16  17
ATOM     17  C   UNL     1      30.904 -10.791 -19.831  0.00  0.00    +0.069 C 
ATOM     18  C   UNL     1      31.942  -9.730 -19.501  0.00  0.00    +0.009 C 
ENDBRANCH  16  17
ENDBRANCH   8  16
BRANCH   2  19
ATOM     19  C   UNL     1      33.786 -14.084 -24.769  0.00  0.00    +0.093 C 
BRANCH  19  20
ATOM     20  C   UNL     1      33.819 -12.619 -24.338  0.00  0.00    -0.001 C 
BRANCH  20  21
ATOM     21  C   UNL     1      34.134 -11.629 -25.464  0.00  0.00    -0.076 C 
BRANCH  21  22
ATOM     22  N   UNL     1      35.148 -10.659 -25.070  0.00  0.00    +0.384 N 
ATOM     23  C   UNL     1      35.753 -10.038 -26.250  0.00  0.00    -0.101 C 
ATOM     24  C   UNL     1      34.569  -9.635 -24.198  0.00  0.00    -0.101 C 
ATOM     25  H   UNL     1      35.876 -11.152 -24.555  0.00  0.00    -0.080 HD
ENDBRANCH  21  22
ENDBRANCH  20  21
ENDBRANCH  19  20
ENDBRANCH   2  19
TORSDOF 6
ENDMDL
MODEL 5
REMARK VINA RESULT:      -8.2     10.189     13.722
REMARK  Name = 24352
REMARK  6 active torsions:
REMARK  status: ('A' for Active; 'I' for Inactive)
REMARK    1  A    between atoms: N_2  and  C_19
REMARK    2  A    between atoms: C_8  and  C_16
REMARK    3  A    between atoms: C_16  and  C_17
REMARK    4  A    between atoms: C_19  and  C_20
REMARK    5  A    between atoms: C_20  and  C_21
REMARK    6  A    between atoms: C_21  and  N_22
REMARK                            x       y       z     vdW  Elec       q    Type
REMARK                         _______ _______ _______ _____ _____    ______ ____
ROOT
ATOM      1  S   UNL     1      35.738 -24.838 -12.556  0.00  0.00    -0.084 S 
ATOM      2  N   UNL     1      36.118 -23.204 -15.173  0.00  0.00    -0.286 N 
ATOM      3  C   UNL     1      34.775 -23.491 -14.817  0.00  0.00    +0.058 C 
ATOM      4  C   UNL     1      37.251 -23.931 -14.732  0.00  0.00    +0.058 C 
ATOM      5  C   UNL     1      34.476 -24.245 -13.665  0.00  0.00    +0.043 C 
ATOM      6  C   UNL     1      37.197 -24.729 -13.573  0.00  0.00    +0.043 C 
ATOM      7  C   UNL     1      33.685 -23.072 -15.609  0.00  0.00    +0.018 C 
ATOM      8  C   UNL     1      32.363 -23.365 -15.265  0.00  0.00    +0.036 C 
ATOM      9  C   UNL     1      38.470 -23.922 -15.447  0.00  0.00    +0.015 C 
ATOM     10  C   UNL     1      33.143 -24.533 -13.320  0.00  0.00    +0.008 C 
ATOM     11  C   UNL     1      32.092 -24.094 -14.116  0.00  0.00    +0.003 C 
ATOM     12  C   UNL     1      38.324 -25.454 -13.144  0.00  0.00    +0.008 C 
ATOM     13  C   UNL     1      39.584 -24.650 -15.020  0.00  0.00    +0.001 C 
ATOM     14  C   UNL     1      39.512 -25.413 -13.865  0.00  0.00    +0.001 C 
ENDROOT
BRANCH   8  16
ATOM     15  O   UNL     1      31.481 -22.525 -17.277  0.00  0.00    -0.291 OA
ATOM     16  C   UNL     1      31.271 -22.899 -16.104  0.00  0.00    +0.173 C 
BRANCH  16  17
ATOM     17  C   UNL     1      29.836 -22.863 -15.548  0.00  0.00    +0.069 C 
ATOM     18  C   UNL     1      28.947 -23.970 -16.093  0.00  0.00    +0.009 C 
ENDBRANCH  16  17
ENDBRANCH   8  16
BRANCH   2  19
ATOM     19  C   UNL     1      36.345 -22.110 -16.127  0.00  0.00    +0.093 C 
BRANCH  19  20
ATOM     20  C   UNL     1      35.827 -22.485 -17.514  0.00  0.00    -0.001 C 
BRANCH  20  21
ATOM     21  C   UNL     1      36.367 -21.617 -18.654  0.00  0.00    -0.076 C 
BRANCH  21  22
ATOM     22  N   UNL     1      35.487 -21.632 -19.816  0.00  0.00    +0.384 N 
ATOM     23  C   UNL     1      34.127 -22.010 -19.428  0.00  0.00    -0.101 C 
ATOM     24  C   UNL     1      35.482 -20.325 -20.476  0.00  0.00    -0.101 C 
ATOM     25  H   UNL     1      35.841 -22.327 -20.473  0.00  0.00    -0.080 HD
ENDBRANCH  21  22
ENDBRANCH  20  21
ENDBRANCH  19  20
ENDBRANCH   2  19
TORSDOF 6
ENDMDL
MODEL 6
REMARK VINA RESULT:      -8.1      2.643      7.160
REMARK  Name = 24352
REMARK  6 active torsions:
REMARK  status: ('A' for Active; 'I' for Inactive)
REMARK    1  A    between atoms: N_2  and  C_19
REMARK    2  A    between atoms: C_8  and  C_16
REMARK    3  A    between atoms: C_16  and  C_17
REMARK    4  A    between atoms: C_19  and  C_20
REMARK    5  A    between atoms: C_20  and  C_21
REMARK    6  A    between atoms: C_21  and  N_22
REMARK                            x       y       z     vdW  Elec       q    Type
REMARK                         _______ _______ _______ _____ _____    ______ ____
ROOT
ATOM      1  S   UNL     1      31.250 -10.756 -21.932  0.00  0.00    -0.084 S 
ATOM      2  N   UNL     1      33.707 -11.027 -23.817  0.00  0.00    -0.286 N 
ATOM      3  C   UNL     1      33.365 -12.190 -23.082  0.00  0.00    +0.058 C 
ATOM      4  C   UNL     1      33.348  -9.703 -23.460  0.00  0.00    +0.058 C 
ATOM      5  C   UNL     1      32.285 -12.186 -22.177  0.00  0.00    +0.043 C 
ATOM      6  C   UNL     1      32.268  -9.451 -22.593  0.00  0.00    +0.043 C 
ATOM      7  C   UNL     1      34.103 -13.388 -23.192  0.00  0.00    +0.018 C 
ATOM      8  C   UNL     1      33.773 -14.532 -22.459  0.00  0.00    +0.036 C 
ATOM      9  C   UNL     1      34.072  -8.582 -23.923  0.00  0.00    +0.015 C 
ATOM     10  C   UNL     1      31.954 -13.340 -21.446  0.00  0.00    +0.008 C 
ATOM     11  C   UNL     1      32.695 -14.508 -21.587  0.00  0.00    +0.003 C 
ATOM     12  C   UNL     1      31.921  -8.135 -22.237  0.00  0.00    +0.008 C 
ATOM     13  C   UNL     1      33.727  -7.276 -23.562  0.00  0.00    +0.001 C 
ATOM     14  C   UNL     1      32.647  -7.053 -22.721  0.00  0.00    +0.001 C 
ENDROOT
BRANCH   8  16
ATOM     15  O   UNL     1      35.310 -15.900 -23.598  0.00  0.00    -0.291 OA
ATOM     16  C   UNL     1      34.553 -15.749 -22.617  0.00  0.00    +0.173 C 
BRANCH  16  17
ATOM     17  C   UNL     1      34.452 -16.867 -21.565  0.00  0.00    +0.069 C 
ATOM     18  C   UNL     1      34.626 -18.263 -22.144  0.00  0.00    +0.009 C 
ENDBRANCH  16  17
ENDBRANCH   8  16
BRANCH   2  19
ATOM     19  C   UNL     1      34.557 -11.202 -25.003  0.00  0.00    +0.093 C 
BRANCH  19  20
ATOM     20  C   UNL     1      33.726 -11.665 -26.199  0.00  0.00    -0.001 C 
BRANCH  20  21
ATOM     21  C   UNL     1      34.316 -12.855 -26.962  0.00  0.00    -0.076 C 
BRANCH  21  22
ATOM     22  N   UNL     1      33.296 -13.835 -27.317  0.00  0.00    +0.384 N 
ATOM     23  C   UNL     1      33.249 -14.911 -26.325  0.00  0.00    -0.101 C 
ATOM     24  C   UNL     1      31.985 -13.195 -27.435  0.00  0.00    -0.101 C 
ATOM     25  H   UNL     1      33.545 -14.238 -28.220  0.00  0.00    -0.080 HD
ENDBRANCH  21  22
ENDBRANCH  20  21
ENDBRANCH  19  20
ENDBRANCH   2  19
TORSDOF 6
ENDMDL
MODEL 7
REMARK VINA RESULT:      -8.0     10.371     14.209
REMARK  Name = 24352
REMARK  6 active torsions:
REMARK  status: ('A' for Active; 'I' for Inactive)
REMARK    1  A    between atoms: N_2  and  C_19
REMARK    2  A    between atoms: C_8  and  C_16
REMARK    3  A    between atoms: C_16  and  C_17
REMARK    4  A    between atoms: C_19  and  C_20
REMARK    5  A    between atoms: C_20  and  C_21
REMARK    6  A    between atoms: C_21  and  N_22
REMARK                            x       y       z     vdW  Elec       q    Type
REMARK                         _______ _______ _______ _____ _____    ______ ____
ROOT
ATOM      1  S   UNL     1      33.252 -23.323 -17.479  0.00  0.00    -0.084 S 
ATOM      2  N   UNL     1      36.180 -22.679 -16.655  0.00  0.00    -0.286 N 
ATOM      3  C   UNL     1      35.341 -23.160 -15.618  0.00  0.00    +0.058 C 
ATOM      4  C   UNL     1      35.728 -22.065 -17.850  0.00  0.00    +0.058 C 
ATOM      5  C   UNL     1      33.987 -23.465 -15.862  0.00  0.00    +0.043 C 
ATOM      6  C   UNL     1      34.413 -22.261 -18.316  0.00  0.00    +0.043 C 
ATOM      7  C   UNL     1      35.805 -23.322 -14.295  0.00  0.00    +0.018 C 
ATOM      8  C   UNL     1      34.976 -23.785 -13.270  0.00  0.00    +0.036 C 
ATOM      9  C   UNL     1      36.553 -21.206 -18.608  0.00  0.00    +0.015 C 
ATOM     10  C   UNL     1      33.157 -23.935 -14.828  0.00  0.00    +0.008 C 
ATOM     11  C   UNL     1      33.651 -24.095 -13.539  0.00  0.00    +0.003 C 
ATOM     12  C   UNL     1      33.968 -21.643 -19.498  0.00  0.00    +0.008 C 
ATOM     13  C   UNL     1      36.104 -20.590 -19.780  0.00  0.00    +0.001 C 
ATOM     14  C   UNL     1      34.811 -20.813 -20.227  0.00  0.00    +0.001 C 
ENDROOT
BRANCH   8  16
ATOM     15  O   UNL     1      34.952 -24.724 -11.114  0.00  0.00    -0.291 OA
ATOM     16  C   UNL     1      35.502 -23.951 -11.925  0.00  0.00    +0.173 C 
BRANCH  16  17
ATOM     17  C   UNL     1      36.753 -23.168 -11.488  0.00  0.00    +0.069 C 
ATOM     18  C   UNL     1      38.053 -23.925 -11.713  0.00  0.00    +0.009 C 
ENDBRANCH  16  17
ENDBRANCH   8  16
BRANCH   2  19
ATOM     19  C   UNL     1      37.631 -22.762 -16.444  0.00  0.00    +0.093 C 
BRANCH  19  20
ATOM     20  C   UNL     1      37.962 -23.794 -15.367  0.00  0.00    -0.001 C 
BRANCH  20  21
ATOM     21  C   UNL     1      39.392 -24.340 -15.425  0.00  0.00    -0.076 C 
BRANCH  21  22
ATOM     22  N   UNL     1      39.439 -25.774 -15.171  0.00  0.00    +0.384 N 
ATOM     23  C   UNL     1      40.556 -26.104 -14.284  0.00  0.00    -0.101 C 
ATOM     24  C   UNL     1      38.177 -26.237 -14.592  0.00  0.00    -0.101 C 
ATOM     25  H   UNL     1      39.582 -26.250 -16.062  0.00  0.00    -0.080 HD
ENDBRANCH  21  22
ENDBRANCH  20  21
ENDBRANCH  19  20
ENDBRANCH   2  19
TORSDOF 6
ENDMDL
MODEL 8
REMARK VINA RESULT:      -7.9      2.577      6.245
REMARK  Name = 24352
REMARK  6 active torsions:
REMARK  status: ('A' for Active; 'I' for Inactive)
REMARK    1  A    between atoms: N_2  and  C_19
REMARK    2  A    between atoms: C_8  and  C_16
REMARK    3  A    between atoms: C_16  and  C_17
REMARK    4  A    between atoms: C_19  and  C_20
REMARK    5  A    between atoms: C_20  and  C_21
REMARK    6  A    between atoms: C_21  and  N_22
REMARK                            x       y       z     vdW  Elec       q    Type
REMARK                         _______ _______ _______ _____ _____    ______ ____
ROOT
ATOM      1  S   UNL     1      33.247 -10.485 -23.510  0.00  0.00    -0.084 S 
ATOM      2  N   UNL     1      32.821 -13.118 -21.913  0.00  0.00    -0.286 N 
ATOM      3  C   UNL     1      33.076 -13.273 -23.299  0.00  0.00    +0.058 C 
ATOM      4  C   UNL     1      32.318 -11.941 -21.304  0.00  0.00    +0.058 C 
ATOM      5  C   UNL     1      33.262 -12.153 -24.134  0.00  0.00    +0.043 C 
ATOM      6  C   UNL     1      32.428 -10.689 -21.940  0.00  0.00    +0.043 C 
ATOM      7  C   UNL     1      33.120 -14.543 -23.913  0.00  0.00    +0.018 C 
ATOM      8  C   UNL     1      33.360 -14.697 -25.282  0.00  0.00    +0.036 C 
ATOM      9  C   UNL     1      31.653 -11.969 -20.058  0.00  0.00    +0.015 C 
ATOM     10  C   UNL     1      33.508 -12.313 -25.509  0.00  0.00    +0.008 C 
ATOM     11  C   UNL     1      33.557 -13.580 -26.080  0.00  0.00    +0.003 C 
ATOM     12  C   UNL     1      31.920  -9.526 -21.334  0.00  0.00    +0.008 C 
ATOM     13  C   UNL     1      31.145 -10.811 -19.463  0.00  0.00    +0.001 C 
ATOM     14  C   UNL     1      31.282  -9.588 -20.101  0.00  0.00    +0.001 C 
ENDROOT
BRANCH   8  16
ATOM     15  O   UNL     1      32.544 -16.398 -26.685  0.00  0.00    -0.291 OA
ATOM     16  C   UNL     1      33.411 -16.027 -25.868  0.00  0.00    +0.173 C 
BRANCH  16  17
ATOM     17  C   UNL     1      34.544 -16.994 -25.481  0.00  0.00    +0.069 C 
ATOM     18  C   UNL     1      34.058 -18.394 -25.142  0.00  0.00    +0.009 C 
ENDBRANCH  16  17
ENDBRANCH   8  16
BRANCH   2  19
ATOM     19  C   UNL     1      33.032 -14.288 -21.051  0.00  0.00    +0.093 C 
BRANCH  19  20
ATOM     20  C   UNL     1      34.490 -14.742 -21.102  0.00  0.00    -0.001 C 
BRANCH  20  21
ATOM     21  C   UNL     1      34.734 -16.167 -20.596  0.00  0.00    -0.076 C 
BRANCH  21  22
ATOM     22  N   UNL     1      34.582 -17.155 -21.657  0.00  0.00    +0.384 N 
ATOM     23  C   UNL     1      35.890 -17.646 -22.095  0.00  0.00    -0.101 C 
ATOM     24  C   UNL     1      33.746 -18.270 -21.207  0.00  0.00    -0.101 C 
ATOM     25  H   UNL     1      34.124 -16.704 -22.449  0.00  0.00    -0.080 HD
ENDBRANCH  21  22
ENDBRANCH  20  21
ENDBRANCH  19  20
ENDBRANCH   2  19
TORSDOF 6
ENDMDL
MODEL 9
REMARK VINA RESULT:      -7.9     10.303     13.841
REMARK  Name = 24352
REMARK  6 active torsions:
REMARK  status: ('A' for Active; 'I' for Inactive)
REMARK    1  A    between atoms: N_2  and  C_19
REMARK    2  A    between atoms: C_8  and  C_16
REMARK    3  A    between atoms: C_16  and  C_17
REMARK    4  A    between atoms: C_19  and  C_20
REMARK    5  A    between atoms: C_20  and  C_21
REMARK    6  A    between atoms: C_21  and  N_22
REMARK                            x       y       z     vdW  Elec       q    Type
REMARK                         _______ _______ _______ _____ _____    ______ ____
ROOT
ATOM      1  S   UNL     1      37.138 -21.485 -17.306  0.00  0.00    -0.084 S 
ATOM      2  N   UNL     1      34.654 -23.221 -16.610  0.00  0.00    -0.286 N 
ATOM      3  C   UNL     1      35.865 -23.594 -15.972  0.00  0.00    +0.058 C 
ATOM      4  C   UNL     1      34.563 -22.470 -17.809  0.00  0.00    +0.058 C 
ATOM      5  C   UNL     1      37.064 -22.899 -16.225  0.00  0.00    +0.043 C 
ATOM      6  C   UNL     1      35.632 -21.663 -18.244  0.00  0.00    +0.043 C 
ATOM      7  C   UNL     1      35.936 -24.692 -15.088  0.00  0.00    +0.018 C 
ATOM      8  C   UNL     1      37.131 -25.068 -14.469  0.00  0.00    +0.036 C 
ATOM      9  C   UNL     1      33.421 -22.520 -18.637  0.00  0.00    +0.015 C 
ATOM     10  C   UNL     1      38.262 -23.277 -15.595  0.00  0.00    +0.008 C 
ATOM     11  C   UNL     1      38.295 -24.357 -14.720  0.00  0.00    +0.003 C 
ATOM     12  C   UNL     1      35.539 -20.926 -19.438  0.00  0.00    +0.008 C 
ATOM     13  C   UNL     1      33.335 -21.790 -19.826  0.00  0.00    +0.001 C 
ATOM     14  C   UNL     1      34.394 -20.989 -20.224  0.00  0.00    +0.001 C 
ENDROOT
BRANCH   8  16
ATOM     15  O   UNL     1      37.207 -27.369 -13.985  0.00  0.00    -0.291 OA
ATOM     16  C   UNL     1      37.153 -26.198 -13.554  0.00  0.00    +0.173 C 
BRANCH  16  17
ATOM     17  C   UNL     1      37.110 -25.957 -12.034  0.00  0.00    +0.069 C 
ATOM     18  C   UNL     1      36.200 -24.809 -11.627  0.00  0.00    +0.009 C 
ENDBRANCH  16  17
ENDBRANCH   8  16
BRANCH   2  19
ATOM     19  C   UNL     1      33.401 -23.707 -16.019  0.00  0.00    +0.093 C 
BRANCH  19  20
ATOM     20  C   UNL     1      32.996 -22.845 -14.824  0.00  0.00    -0.001 C 
BRANCH  20  21
ATOM     21  C   UNL     1      31.726 -23.308 -14.104  0.00  0.00    -0.076 C 
BRANCH  21  22
ATOM     22  N   UNL     1      30.737 -23.844 -15.032  0.00  0.00    +0.384 N 
ATOM     23  C   UNL     1      30.231 -25.133 -14.557  0.00  0.00    -0.101 C 
ATOM     24  C   UNL     1      29.633 -22.900 -15.211  0.00  0.00    -0.101 C 
ATOM     25  H   UNL     1      31.192 -23.987 -15.933  0.00  0.00    -0.080 HD
ENDBRANCH  21  22
ENDBRANCH  20  21
ENDBRANCH  19  20
ENDBRANCH   2  19
TORSDOF 6
ENDMDL
