MODEL 1
REMARK VINA RESULT:     -11.6      0.000      0.000
REMARK  Name = 24778473
REMARK  2 active torsions:
REMARK  status: ('A' for Active; 'I' for Inactive)
REMARK    1  A    between atoms: C_11  and  C_22
REMARK    2  A    between atoms: C_17  and  N_29
REMARK                            x       y       z     vdW  Elec       q    Type
REMARK                         _______ _______ _______ _____ _____    ______ ____
ROOT
ATOM      1  O   UNL     1      32.865 -22.461 -18.122  0.00  0.00    -0.270 OA
ATOM      2  O   UNL     1      36.976 -22.932 -16.111  0.00  0.00    -0.270 OA
ATOM      3  N   UNL     1      31.296 -24.757 -13.647  0.00  0.00    -0.353 N 
ATOM      4  N   UNL     1      35.085 -22.537 -17.418  0.00  0.00    -0.248 N 
ATOM      5  C   UNL     1      32.352 -23.817 -15.379  0.00  0.00    +0.022 A 
ATOM      6  C   UNL     1      33.520 -23.380 -16.016  0.00  0.00    +0.060 C 
ATOM      7  C   UNL     1      32.536 -24.393 -14.111  0.00  0.00    +0.057 A 
ATOM      8  C   UNL     1      30.945 -23.852 -15.659  0.00  0.00    +0.018 A 
ATOM      9  C   UNL     1      34.769 -23.519 -15.411  0.00  0.00    +0.058 C 
ATOM     10  C   UNL     1      30.319 -24.443 -14.559  0.00  0.00    +0.057 A 
ATOM     11  C   UNL     1      34.937 -24.086 -14.168  0.00  0.00    +0.007 C 
ATOM     12  C   UNL     1      33.799 -24.536 -13.495  0.00  0.00    +0.017 C 
ATOM     13  C   UNL     1      33.728 -22.743 -17.316  0.00  0.00    +0.252 C 
ATOM     14  C   UNL     1      35.778 -22.975 -16.317  0.00  0.00    +0.252 C 
ATOM     15  C   UNL     1      30.129 -23.442 -16.736  0.00  0.00    +0.016 C 
ATOM     16  C   UNL     1      28.934 -24.643 -14.483  0.00  0.00    +0.018 C 
ATOM     17  C   UNL     1      28.743 -23.634 -16.675  0.00  0.00    +0.051 C 
ATOM     18  C   UNL     1      28.155 -24.226 -15.563  0.00  0.00    +0.016 C 
ATOM     19  H   UNL     1      31.130 -25.186 -12.777  0.00  0.00    +0.166 HD
ATOM     20  H   UNL     1      35.514 -22.119 -18.198  0.00  0.00    +0.158 HD
ENDROOT
BRANCH  11  22
ATOM     21 CL   UNL     1      36.661 -26.501 -15.004  0.00  0.00    -0.082 Cl
ATOM     22  C   UNL     1      36.234 -24.227 -13.542  0.00  0.00    +0.011 C 
ATOM     23  C   UNL     1      37.089 -25.284 -13.852  0.00  0.00    +0.058 C 
ATOM     24  C   UNL     1      36.621 -23.267 -12.607  0.00  0.00    +0.001 C 
ATOM     25  C   UNL     1      38.332 -25.383 -13.227  0.00  0.00    +0.011 C 
ATOM     26  C   UNL     1      37.864 -23.367 -11.981  0.00  0.00    +0.000 C 
ATOM     27  C   UNL     1      38.719 -24.424 -12.291  0.00  0.00    +0.001 C 
ENDBRANCH  11  22
BRANCH  17  29
ATOM     28  O   UNL     1      26.814 -21.308 -16.940  0.00  0.00    -0.265 OA
ATOM     29  N   UNL     1      27.943 -23.226 -17.744  0.00  0.00    -0.277 N 
ATOM     30  C   UNL     1      27.076 -22.140 -17.797  0.00  0.00    +0.303 C 
ATOM     31  H   UNL     1      28.001 -23.773 -18.560  0.00  0.00    +0.155 HD
ENDBRANCH  17  29
TORSDOF 2
ENDMDL
MODEL 2
REMARK VINA RESULT:     -11.4      9.308     11.601
REMARK  Name = 24778473
REMARK  2 active torsions:
REMARK  status: ('A' for Active; 'I' for Inactive)
REMARK    1  A    between atoms: C_11  and  C_22
REMARK    2  A    between atoms: C_17  and  N_29
REMARK                            x       y       z     vdW  Elec       q    Type
REMARK                         _______ _______ _______ _____ _____    ______ ____
ROOT
ATOM      1  O   UNL     1      34.846 -16.339 -25.922  0.00  0.00    -0.270 OA
ATOM      2  O   UNL     1      35.097 -20.292 -23.582  0.00  0.00    -0.270 OA
ATOM      3  N   UNL     1      33.317 -14.561 -21.204  0.00  0.00    -0.353 N 
ATOM      4  N   UNL     1      35.085 -18.493 -25.066  0.00  0.00    -0.248 N 
ATOM      5  C   UNL     1      33.995 -15.692 -23.009  0.00  0.00    +0.022 A 
ATOM      6  C   UNL     1      34.397 -16.877 -23.638  0.00  0.00    +0.060 C 
ATOM      7  C   UNL     1      33.686 -15.809 -21.644  0.00  0.00    +0.057 A 
ATOM      8  C   UNL     1      33.795 -14.318 -23.373  0.00  0.00    +0.018 A 
ATOM      9  C   UNL     1      34.477 -18.078 -22.934  0.00  0.00    +0.058 C 
ATOM     10  C   UNL     1      33.373 -13.644 -22.224  0.00  0.00    +0.057 A 
ATOM     11  C   UNL     1      34.170 -18.180 -21.596  0.00  0.00    +0.007 C 
ATOM     12  C   UNL     1      33.764 -17.023 -20.927  0.00  0.00    +0.017 C 
ATOM     13  C   UNL     1      34.792 -17.149 -25.019  0.00  0.00    +0.252 C 
ATOM     14  C   UNL     1      34.920 -19.120 -23.857  0.00  0.00    +0.252 C 
ATOM     15  C   UNL     1      33.927 -13.569 -24.562  0.00  0.00    +0.016 C 
ATOM     16  C   UNL     1      33.080 -12.274 -22.206  0.00  0.00    +0.018 C 
ATOM     17  C   UNL     1      33.639 -12.198 -24.560  0.00  0.00    +0.051 C 
ATOM     18  C   UNL     1      33.221 -11.561 -23.396  0.00  0.00    +0.016 C 
ATOM     19  H   UNL     1      33.048 -14.353 -20.280  0.00  0.00    +0.166 HD
ATOM     20  H   UNL     1      35.382 -18.956 -25.882  0.00  0.00    +0.158 HD
ENDROOT
BRANCH  11  22
ATOM     21 CL   UNL     1      36.979 -19.179 -20.811  0.00  0.00    -0.082 Cl
ATOM     22  C   UNL     1      34.254 -19.428 -20.867  0.00  0.00    +0.011 C 
ATOM     23  C   UNL     1      35.478 -19.964 -20.465  0.00  0.00    +0.058 C 
ATOM     24  C   UNL     1      33.067 -20.095 -20.566  0.00  0.00    +0.001 C 
ATOM     25  C   UNL     1      35.515 -21.168 -19.762  0.00  0.00    +0.011 C 
ATOM     26  C   UNL     1      33.104 -21.300 -19.864  0.00  0.00    +0.000 C 
ATOM     27  C   UNL     1      34.327 -21.836 -19.462  0.00  0.00    +0.001 C 
ENDBRANCH  11  22
BRANCH  17  29
ATOM     28  O   UNL     1      35.862 -10.375 -25.527  0.00  0.00    -0.265 OA
ATOM     29  N   UNL     1      33.771 -11.464 -25.740  0.00  0.00    -0.277 N 
ATOM     30  C   UNL     1      34.827 -10.642 -26.121  0.00  0.00    +0.303 C 
ATOM     31  H   UNL     1      33.028 -11.538 -26.380  0.00  0.00    +0.155 HD
ENDBRANCH  17  29
TORSDOF 2
ENDMDL
MODEL 3
REMARK VINA RESULT:     -11.3      9.823     11.673
REMARK  Name = 24778473
REMARK  2 active torsions:
REMARK  status: ('A' for Active; 'I' for Inactive)
REMARK    1  A    between atoms: C_11  and  C_22
REMARK    2  A    between atoms: C_17  and  N_29
REMARK                            x       y       z     vdW  Elec       q    Type
REMARK                         _______ _______ _______ _____ _____    ______ ____
ROOT
ATOM      1  O   UNL     1      33.480 -14.100 -25.015  0.00  0.00    -0.270 OA
ATOM      2  O   UNL     1      35.223 -18.240 -24.021  0.00  0.00    -0.270 OA
ATOM      3  N   UNL     1      32.652 -14.076 -19.812  0.00  0.00    -0.353 N 
ATOM      4  N   UNL     1      34.431 -16.222 -24.884  0.00  0.00    -0.248 N 
ATOM      5  C   UNL     1      33.169 -14.472 -21.950  0.00  0.00    +0.022 A 
ATOM      6  C   UNL     1      33.701 -15.290 -22.955  0.00  0.00    +0.060 C 
ATOM      7  C   UNL     1      33.211 -15.007 -20.652  0.00  0.00    +0.057 A 
ATOM      8  C   UNL     1      32.557 -13.178 -21.855  0.00  0.00    +0.018 A 
ATOM      9  C   UNL     1      34.232 -16.545 -22.660  0.00  0.00    +0.058 C 
ATOM     10  C   UNL     1      32.249 -12.964 -20.509  0.00  0.00    +0.057 A 
ATOM     11  C   UNL     1      34.268 -17.059 -21.384  0.00  0.00    +0.007 C 
ATOM     12  C   UNL     1      33.747 -16.278 -20.349  0.00  0.00    +0.017 C 
ATOM     13  C   UNL     1      33.832 -15.084 -24.397  0.00  0.00    +0.252 C 
ATOM     14  C   UNL     1      34.702 -17.146 -23.906  0.00  0.00    +0.252 C 
ATOM     15  C   UNL     1      32.229 -12.156 -22.773  0.00  0.00    +0.016 C 
ATOM     16  C   UNL     1      31.636 -11.794 -20.041  0.00  0.00    +0.018 C 
ATOM     17  C   UNL     1      31.617 -10.980 -22.321  0.00  0.00    +0.051 C 
ATOM     18  C   UNL     1      31.325 -10.803 -20.973  0.00  0.00    +0.016 C 
ATOM     19  H   UNL     1      32.553 -14.190 -18.839  0.00  0.00    +0.166 HD
ATOM     20  H   UNL     1      34.644 -16.361 -25.835  0.00  0.00    +0.158 HD
ENDROOT
BRANCH  11  22
ATOM     21 CL   UNL     1      32.282 -19.336 -20.771  0.00  0.00    -0.082 Cl
ATOM     22  C   UNL     1      34.821 -18.361 -21.080  0.00  0.00    +0.011 C 
ATOM     23  C   UNL     1      34.007 -19.456 -20.790  0.00  0.00    +0.058 C 
ATOM     24  C   UNL     1      36.208 -18.504 -21.085  0.00  0.00    +0.001 C 
ATOM     25  C   UNL     1      34.580 -20.695 -20.504  0.00  0.00    +0.011 C 
ATOM     26  C   UNL     1      36.781 -19.743 -20.798  0.00  0.00    +0.000 C 
ATOM     27  C   UNL     1      35.968 -20.838 -20.508  0.00  0.00    +0.001 C 
ENDBRANCH  11  22
BRANCH  17  29
ATOM     28  O   UNL     1      33.073  -8.422 -23.056  0.00  0.00    -0.265 OA
ATOM     29  N   UNL     1      31.295  -9.975 -23.235  0.00  0.00    -0.277 N 
ATOM     30  C   UNL     1      32.015  -8.820 -23.523  0.00  0.00    +0.303 C 
ATOM     31  H   UNL     1      30.458 -10.099 -23.737  0.00  0.00    +0.155 HD
ENDBRANCH  17  29
TORSDOF 2
ENDMDL
MODEL 4
REMARK VINA RESULT:     -10.7     13.588     15.794
REMARK  Name = 24778473
REMARK  2 active torsions:
REMARK  status: ('A' for Active; 'I' for Inactive)
REMARK    1  A    between atoms: C_11  and  C_22
REMARK    2  A    between atoms: C_17  and  N_29
REMARK                            x       y       z     vdW  Elec       q    Type
REMARK                         _______ _______ _______ _____ _____    ______ ____
ROOT
ATOM      1  O   UNL     1      31.032 -10.779 -20.438  0.00  0.00    -0.270 OA
ATOM      2  O   UNL     1      32.176 -15.036 -21.752  0.00  0.00    -0.270 OA
ATOM      3  N   UNL     1      34.121  -9.540 -24.523  0.00  0.00    -0.353 N 
ATOM      4  N   UNL     1      31.395 -13.049 -20.813  0.00  0.00    -0.248 N 
ATOM      5  C   UNL     1      32.903 -10.468 -22.893  0.00  0.00    +0.022 A 
ATOM      6  C   UNL     1      32.415 -11.589 -22.209  0.00  0.00    +0.060 C 
ATOM      7  C   UNL     1      33.745 -10.746 -23.982  0.00  0.00    +0.057 A 
ATOM      8  C   UNL     1      32.789  -9.041 -22.800  0.00  0.00    +0.018 A 
ATOM      9  C   UNL     1      32.758 -12.882 -22.603  0.00  0.00    +0.058 C 
ATOM     10  C   UNL     1      33.559  -8.496 -23.831  0.00  0.00    +0.057 A 
ATOM     11  C   UNL     1      33.585 -13.142 -23.672  0.00  0.00    +0.007 C 
ATOM     12  C   UNL     1      34.095 -12.054 -24.385  0.00  0.00    +0.017 C 
ATOM     13  C   UNL     1      31.532 -11.701 -21.050  0.00  0.00    +0.252 C 
ATOM     14  C   UNL     1      32.099 -13.823 -21.701  0.00  0.00    +0.252 C 
ATOM     15  C   UNL     1      32.109  -8.145 -21.946  0.00  0.00    +0.016 C 
ATOM     16  C   UNL     1      33.683  -7.117 -24.046  0.00  0.00    +0.018 C 
ATOM     17  C   UNL     1      32.222  -6.764 -22.148  0.00  0.00    +0.051 C 
ATOM     18  C   UNL     1      32.999  -6.259 -23.185  0.00  0.00    +0.016 C 
ATOM     19  H   UNL     1      34.713  -9.439 -25.302  0.00  0.00    +0.166 HD
ATOM     20  H   UNL     1      30.848 -13.420 -20.084  0.00  0.00    +0.158 HD
ENDROOT
BRANCH  11  22
ATOM     21 CL   UNL     1      32.452 -14.154 -26.355  0.00  0.00    -0.082 Cl
ATOM     22  C   UNL     1      33.937 -14.485 -24.080  0.00  0.00    +0.011 C 
ATOM     23  C   UNL     1      33.478 -15.035 -25.276  0.00  0.00    +0.058 C 
ATOM     24  C   UNL     1      34.764 -15.231 -23.240  0.00  0.00    +0.001 C 
ATOM     25  C   UNL     1      33.843 -16.333 -25.633  0.00  0.00    +0.011 C 
ATOM     26  C   UNL     1      35.128 -16.530 -23.597  0.00  0.00    +0.000 C 
ATOM     27  C   UNL     1      34.668 -17.080 -24.793  0.00  0.00    +0.001 C 
ENDBRANCH  11  22
BRANCH  17  29
ATOM     28  O   UNL     1      30.182  -4.598 -22.743  0.00  0.00    -0.265 OA
ATOM     29  N   UNL     1      31.547  -5.885 -21.299  0.00  0.00    -0.277 N 
ATOM     30  C   UNL     1      30.617  -4.910 -21.643  0.00  0.00    +0.303 C 
ATOM     31  H   UNL     1      31.754  -5.966 -20.341  0.00  0.00    +0.155 HD
ENDBRANCH  17  29
TORSDOF 2
ENDMDL
MODEL 5
REMARK VINA RESULT:     -10.0     12.975     15.258
REMARK  Name = 24778473
REMARK  2 active torsions:
REMARK  status: ('A' for Active; 'I' for Inactive)
REMARK    1  A    between atoms: C_11  and  C_22
REMARK    2  A    between atoms: C_17  and  N_29
REMARK                            x       y       z     vdW  Elec       q    Type
REMARK                         _______ _______ _______ _____ _____    ______ ____
ROOT
ATOM      1  O   UNL     1      31.306 -11.303 -20.555  0.00  0.00    -0.270 OA
ATOM      2  O   UNL     1      32.334 -15.625 -21.753  0.00  0.00    -0.270 OA
ATOM      3  N   UNL     1      34.377 -10.261 -24.707  0.00  0.00    -0.353 N 
ATOM      4  N   UNL     1      31.610 -13.592 -20.866  0.00  0.00    -0.248 N 
ATOM      5  C   UNL     1      33.156 -11.111 -23.038  0.00  0.00    +0.022 A 
ATOM      6  C   UNL     1      32.650 -12.199 -22.315  0.00  0.00    +0.060 C 
ATOM      7  C   UNL     1      33.979 -11.441 -24.127  0.00  0.00    +0.057 A 
ATOM      8  C   UNL     1      33.077  -9.679 -22.986  0.00  0.00    +0.018 A 
ATOM      9  C   UNL     1      32.957 -13.511 -22.675  0.00  0.00    +0.058 C 
ATOM     10  C   UNL     1      33.848  -9.184 -24.041  0.00  0.00    +0.057 A 
ATOM     11  C   UNL     1      33.765 -13.822 -23.744  0.00  0.00    +0.007 C 
ATOM     12  C   UNL     1      34.293 -12.769 -24.494  0.00  0.00    +0.017 C 
ATOM     13  C   UNL     1      31.777 -12.255 -21.144  0.00  0.00    +0.252 C 
ATOM     14  C   UNL     1      32.286 -14.409 -21.738  0.00  0.00    +0.252 C 
ATOM     15  C   UNL     1      32.428  -8.743 -22.152  0.00  0.00    +0.016 C 
ATOM     16  C   UNL     1      34.002  -7.816 -24.299  0.00  0.00    +0.018 C 
ATOM     17  C   UNL     1      32.572  -7.371 -22.397  0.00  0.00    +0.051 C 
ATOM     18  C   UNL     1      33.348  -6.916 -23.457  0.00  0.00    +0.016 C 
ATOM     19  H   UNL     1      34.963 -10.197 -25.496  0.00  0.00    +0.166 HD
ATOM     20  H   UNL     1      31.063 -13.928 -20.120  0.00  0.00    +0.158 HD
ENDROOT
BRANCH  11  22
ATOM     21 CL   UNL     1      32.587 -14.883 -26.388  0.00  0.00    -0.082 Cl
ATOM     22  C   UNL     1      34.081 -15.185 -24.115  0.00  0.00    +0.011 C 
ATOM     23  C   UNL     1      33.598 -15.758 -25.291  0.00  0.00    +0.058 C 
ATOM     24  C   UNL     1      34.895 -15.927 -23.260  0.00  0.00    +0.001 C 
ATOM     25  C   UNL     1      33.928 -17.074 -25.613  0.00  0.00    +0.011 C 
ATOM     26  C   UNL     1      35.225 -17.244 -23.581  0.00  0.00    +0.000 C 
ATOM     27  C   UNL     1      34.742 -17.817 -24.757  0.00  0.00    +0.001 C 
ENDBRANCH  11  22
BRANCH  17  29
ATOM     28  O   UNL     1      32.880  -6.814 -19.431  0.00  0.00    -0.265 OA
ATOM     29  N   UNL     1      31.928  -6.452 -21.568  0.00  0.00    -0.277 N 
ATOM     30  C   UNL     1      32.120  -6.248 -20.205  0.00  0.00    +0.303 C 
ATOM     31  H   UNL     1      31.256  -5.877 -22.000  0.00  0.00    +0.155 HD
ENDBRANCH  17  29
TORSDOF 2
ENDMDL
MODEL 6
REMARK VINA RESULT:     -10.0      3.202      5.701
REMARK  Name = 24778473
REMARK  2 active torsions:
REMARK  status: ('A' for Active; 'I' for Inactive)
REMARK    1  A    between atoms: C_11  and  C_22
REMARK    2  A    between atoms: C_17  and  N_29
REMARK                            x       y       z     vdW  Elec       q    Type
REMARK                         _______ _______ _______ _____ _____    ______ ____
ROOT
ATOM      1  O   UNL     1      32.276 -22.549 -18.126  0.00  0.00    -0.270 OA
ATOM      2  O   UNL     1      33.379 -24.730 -14.228  0.00  0.00    -0.270 OA
ATOM      3  N   UNL     1      37.418 -21.403 -18.008  0.00  0.00    -0.353 N 
ATOM      4  N   UNL     1      32.467 -23.748 -16.138  0.00  0.00    -0.248 N 
ATOM      5  C   UNL     1      35.316 -22.097 -17.695  0.00  0.00    +0.022 A 
ATOM      6  C   UNL     1      34.346 -22.789 -16.958  0.00  0.00    +0.060 C 
ATOM      7  C   UNL     1      36.614 -22.126 -17.160  0.00  0.00    +0.057 A 
ATOM      8  C   UNL     1      35.372 -21.324 -18.903  0.00  0.00    +0.018 A 
ATOM      9  C   UNL     1      34.675 -23.453 -15.776  0.00  0.00    +0.058 C 
ATOM     10  C   UNL     1      36.697 -20.909 -19.066  0.00  0.00    +0.057 A 
ATOM     11  C   UNL     1      35.951 -23.473 -15.262  0.00  0.00    +0.007 C 
ATOM     12  C   UNL     1      36.951 -22.796 -15.964  0.00  0.00    +0.017 C 
ATOM     13  C   UNL     1      32.916 -22.982 -17.189  0.00  0.00    +0.252 C 
ATOM     14  C   UNL     1      33.461 -24.071 -15.248  0.00  0.00    +0.252 C 
ATOM     15  C   UNL     1      34.436 -20.929 -19.882  0.00  0.00    +0.016 C 
ATOM     16  C   UNL     1      37.125 -20.127 -20.147  0.00  0.00    +0.018 C 
ATOM     17  C   UNL     1      34.848 -20.148 -20.969  0.00  0.00    +0.051 C 
ATOM     18  C   UNL     1      36.175 -19.753 -21.098  0.00  0.00    +0.016 C 
ATOM     19  H   UNL     1      38.382 -21.260 -17.875  0.00  0.00    +0.166 HD
ATOM     20  H   UNL     1      31.532 -24.034 -16.034  0.00  0.00    +0.158 HD
ENDROOT
BRANCH  11  22
ATOM     21 CL   UNL     1      36.754 -26.442 -15.480  0.00  0.00    -0.082 Cl
ATOM     22  C   UNL     1      36.289 -24.164 -14.036  0.00  0.00    +0.011 C 
ATOM     23  C   UNL     1      36.666 -25.507 -14.028  0.00  0.00    +0.058 C 
ATOM     24  C   UNL     1      36.233 -23.448 -12.840  0.00  0.00    +0.001 C 
ATOM     25  C   UNL     1      36.986 -26.135 -12.824  0.00  0.00    +0.011 C 
ATOM     26  C   UNL     1      36.552 -24.077 -11.636  0.00  0.00    +0.000 C 
ATOM     27  C   UNL     1      36.929 -25.420 -11.629  0.00  0.00    +0.001 C 
ENDBRANCH  11  22
BRANCH  17  29
ATOM     28  O   UNL     1      35.195 -18.632 -23.574  0.00  0.00    -0.265 OA
ATOM     29  N   UNL     1      33.915 -19.761 -21.933  0.00  0.00    -0.277 N 
ATOM     30  C   UNL     1      34.147 -19.062 -23.114  0.00  0.00    +0.303 C 
ATOM     31  H   UNL     1      32.981 -20.013 -21.756  0.00  0.00    +0.155 HD
ENDBRANCH  17  29
TORSDOF 2
ENDMDL
MODEL 7
REMARK VINA RESULT:      -9.9     13.607     15.852
REMARK  Name = 24778473
REMARK  2 active torsions:
REMARK  status: ('A' for Active; 'I' for Inactive)
REMARK    1  A    between atoms: C_11  and  C_22
REMARK    2  A    between atoms: C_17  and  N_29
REMARK                            x       y       z     vdW  Elec       q    Type
REMARK                         _______ _______ _______ _____ _____    ______ ____
ROOT
ATOM      1  O   UNL     1      30.924 -10.427 -20.754  0.00  0.00    -0.270 OA
ATOM      2  O   UNL     1      31.972 -14.797 -21.739  0.00  0.00    -0.270 OA
ATOM      3  N   UNL     1      34.352  -9.555 -24.659  0.00  0.00    -0.353 N 
ATOM      4  N   UNL     1      31.213 -12.728 -20.974  0.00  0.00    -0.248 N 
ATOM      5  C   UNL     1      32.980 -10.337 -23.075  0.00  0.00    +0.022 A 
ATOM      6  C   UNL     1      32.395 -11.395 -22.368  0.00  0.00    +0.060 C 
ATOM      7  C   UNL     1      33.886 -10.711 -24.081  0.00  0.00    +0.057 A 
ATOM      8  C   UNL     1      32.922  -8.902 -23.071  0.00  0.00    +0.018 A 
ATOM      9  C   UNL     1      32.708 -12.721 -22.663  0.00  0.00    +0.058 C 
ATOM     10  C   UNL     1      33.788  -8.450 -24.070  0.00  0.00    +0.057 A 
ATOM     11  C   UNL     1      33.598 -13.076 -23.651  0.00  0.00    +0.007 C 
ATOM     12  C   UNL     1      34.206 -12.053 -24.383  0.00  0.00    +0.017 C 
ATOM     13  C   UNL     1      31.426 -11.403 -21.274  0.00  0.00    +0.252 C 
ATOM     14  C   UNL     1      31.945 -13.581 -21.762  0.00  0.00    +0.252 C 
ATOM     15  C   UNL     1      32.222  -7.932 -22.321  0.00  0.00    +0.016 C 
ATOM     16  C   UNL     1      33.987  -7.093 -24.352  0.00  0.00    +0.018 C 
ATOM     17  C   UNL     1      32.410  -6.571 -22.592  0.00  0.00    +0.051 C 
ATOM     18  C   UNL     1      33.281  -6.158 -23.594  0.00  0.00    +0.016 C 
ATOM     19  H   UNL     1      35.003  -9.523 -25.396  0.00  0.00    +0.166 HD
ATOM     20  H   UNL     1      30.599 -13.034 -20.268  0.00  0.00    +0.158 HD
ENDROOT
BRANCH  11  22
ATOM     21 CL   UNL     1      35.148 -14.677 -21.520  0.00  0.00    -0.082 Cl
ATOM     22  C   UNL     1      33.920 -14.454 -23.956  0.00  0.00    +0.011 C 
ATOM     23  C   UNL     1      34.617 -15.262 -23.058  0.00  0.00    +0.058 C 
ATOM     24  C   UNL     1      33.511 -14.968 -25.186  0.00  0.00    +0.001 C 
ATOM     25  C   UNL     1      34.906 -16.586 -23.390  0.00  0.00    +0.011 C 
ATOM     26  C   UNL     1      33.800 -16.292 -25.518  0.00  0.00    +0.000 C 
ATOM     27  C   UNL     1      34.497 -17.100 -24.621  0.00  0.00    +0.001 C 
ENDBRANCH  11  22
BRANCH  17  29
ATOM     28  O   UNL     1      30.451  -4.419 -23.448  0.00  0.00    -0.265 OA
ATOM     29  N   UNL     1      31.715  -5.617 -21.846  0.00  0.00    -0.277 N 
ATOM     30  C   UNL     1      30.825  -4.653 -22.308  0.00  0.00    +0.303 C 
ATOM     31  H   UNL     1      31.873  -5.629 -20.875  0.00  0.00    +0.155 HD
ENDBRANCH  17  29
TORSDOF 2
ENDMDL
MODEL 8
REMARK VINA RESULT:      -9.7     14.081     16.533
REMARK  Name = 24778473
REMARK  2 active torsions:
REMARK  status: ('A' for Active; 'I' for Inactive)
REMARK    1  A    between atoms: C_11  and  C_22
REMARK    2  A    between atoms: C_17  and  N_29
REMARK                            x       y       z     vdW  Elec       q    Type
REMARK                         _______ _______ _______ _____ _____    ______ ____
ROOT
ATOM      1  O   UNL     1      35.421 -11.166 -25.222  0.00  0.00    -0.270 OA
ATOM      2  O   UNL     1      33.812  -6.923 -24.466  0.00  0.00    -0.270 OA
ATOM      3  N   UNL     1      31.692 -12.354 -21.695  0.00  0.00    -0.353 N 
ATOM      4  N   UNL     1      34.869  -8.907 -25.090  0.00  0.00    -0.248 N 
ATOM      5  C   UNL     1      33.141 -11.449 -23.136  0.00  0.00    +0.022 A 
ATOM      6  C   UNL     1      33.686 -10.343 -23.801  0.00  0.00    +0.060 C 
ATOM      7  C   UNL     1      32.093 -11.162 -22.247  0.00  0.00    +0.057 A 
ATOM      8  C   UNL     1      33.355 -12.868 -23.095  0.00  0.00    +0.018 A 
ATOM      9  C   UNL     1      33.201  -9.055 -23.577  0.00  0.00    +0.058 C 
ATOM     10  C   UNL     1      32.434 -13.398 -22.188  0.00  0.00    +0.057 A 
ATOM     11  C   UNL     1      32.174  -8.786 -22.702  0.00  0.00    +0.007 C 
ATOM     12  C   UNL     1      31.600  -9.859 -22.016  0.00  0.00    +0.017 C 
ATOM     13  C   UNL     1      34.766 -10.244 -24.782  0.00  0.00    +0.252 C 
ATOM     14  C   UNL     1      33.966  -8.129 -24.409  0.00  0.00    +0.252 C 
ATOM     15  C   UNL     1      34.237 -13.765 -23.735  0.00  0.00    +0.016 C 
ATOM     16  C   UNL     1      32.353 -14.765 -21.892  0.00  0.00    +0.018 C 
ATOM     17  C   UNL     1      34.168 -15.135 -23.450  0.00  0.00    +0.051 C 
ATOM     18  C   UNL     1      33.238 -15.626 -22.541  0.00  0.00    +0.016 C 
ATOM     19  H   UNL     1      30.968 -12.447 -21.034  0.00  0.00    +0.166 HD
ATOM     20  H   UNL     1      35.521  -8.545 -25.731  0.00  0.00    +0.158 HD
ENDROOT
BRANCH  11  22
ATOM     21 CL   UNL     1      32.835  -7.466 -19.996  0.00  0.00    -0.082 Cl
ATOM     22  C   UNL     1      31.672  -7.448 -22.473  0.00  0.00    +0.011 C 
ATOM     23  C   UNL     1      31.917  -6.764 -21.282  0.00  0.00    +0.058 C 
ATOM     24  C   UNL     1      30.926  -6.842 -23.484  0.00  0.00    +0.001 C 
ATOM     25  C   UNL     1      31.417  -5.475 -21.102  0.00  0.00    +0.011 C 
ATOM     26  C   UNL     1      30.425  -5.553 -23.304  0.00  0.00    +0.000 C 
ATOM     27  C   UNL     1      30.670  -4.870 -22.113  0.00  0.00    +0.001 C 
ENDBRANCH  11  22
BRANCH  17  29
ATOM     28  O   UNL     1      33.748 -17.000 -25.806  0.00  0.00    -0.265 OA
ATOM     29  N   UNL     1      35.044 -16.016 -24.087  0.00  0.00    -0.277 N 
ATOM     30  C   UNL     1      34.782 -16.848 -25.171  0.00  0.00    +0.303 C 
ATOM     31  H   UNL     1      35.958 -16.053 -23.725  0.00  0.00    +0.155 HD
ENDBRANCH  17  29
TORSDOF 2
ENDMDL
MODEL 9
REMARK VINA RESULT:      -9.6     13.185     15.891
REMARK  Name = 24778473
REMARK  2 active torsions:
REMARK  status: ('A' for Active; 'I' for Inactive)
REMARK    1  A    between atoms: C_11  and  C_22
REMARK    2  A    between atoms: C_17  and  N_29
REMARK                            x       y       z     vdW  Elec       q    Type
REMARK                         _______ _______ _______ _____ _____    ______ ____
ROOT
ATOM      1  O   UNL     1      32.146 -12.721 -19.809  0.00  0.00    -0.270 OA
ATOM      2  O   UNL     1      31.422  -8.311 -20.900  0.00  0.00    -0.270 OA
ATOM      3  N   UNL     1      33.771 -12.870 -24.819  0.00  0.00    -0.353 N 
ATOM      4  N   UNL     1      31.656 -10.452 -20.004  0.00  0.00    -0.248 N 
ATOM      5  C   UNL     1      33.006 -12.395 -22.773  0.00  0.00    +0.022 A 
ATOM      6  C   UNL     1      32.489 -11.496 -21.831  0.00  0.00    +0.060 C 
ATOM      7  C   UNL     1      33.277 -11.853 -24.039  0.00  0.00    +0.057 A 
ATOM      8  C   UNL     1      33.357 -13.786 -22.824  0.00  0.00    +0.018 A 
ATOM      9  C   UNL     1      32.269 -10.158 -22.156  0.00  0.00    +0.058 C 
ATOM     10  C   UNL     1      33.830 -14.046 -24.113  0.00  0.00    +0.057 A 
ATOM     11  C   UNL     1      32.538  -9.638 -23.401  0.00  0.00    +0.007 C 
ATOM     12  C   UNL     1      33.055 -10.498 -24.372  0.00  0.00    +0.017 C 
ATOM     13  C   UNL     1      32.092 -11.683 -20.437  0.00  0.00    +0.252 C 
ATOM     14  C   UNL     1      31.730  -9.485 -20.976  0.00  0.00    +0.252 C 
ATOM     15  C   UNL     1      33.324 -14.860 -21.908  0.00  0.00    +0.016 C 
ATOM     16  C   UNL     1      34.266 -15.311 -24.526  0.00  0.00    +0.018 C 
ATOM     17  C   UNL     1      33.757 -16.131 -22.306  0.00  0.00    +0.051 C 
ATOM     18  C   UNL     1      34.221 -16.352 -23.598  0.00  0.00    +0.016 C 
ATOM     19  H   UNL     1      34.046 -12.770 -25.759  0.00  0.00    +0.166 HD
ATOM     20  H   UNL     1      31.325 -10.281 -19.093  0.00  0.00    +0.158 HD
ENDROOT
BRANCH  11  22
ATOM     21 CL   UNL     1      34.968  -7.742 -23.331  0.00  0.00    -0.082 Cl
ATOM     22  C   UNL     1      32.309  -8.248 -23.735  0.00  0.00    +0.011 C 
ATOM     23  C   UNL     1      33.343  -7.312 -23.733  0.00  0.00    +0.058 C 
ATOM     24  C   UNL     1      31.012  -7.856 -24.066  0.00  0.00    +0.001 C 
ATOM     25  C   UNL     1      33.080  -5.982 -24.063  0.00  0.00    +0.011 C 
ATOM     26  C   UNL     1      30.749  -6.526 -24.395  0.00  0.00    +0.000 C 
ATOM     27  C   UNL     1      31.783  -5.590 -24.394  0.00  0.00    +0.001 C 
ENDBRANCH  11  22
BRANCH  17  29
ATOM     28  O   UNL     1      35.913 -18.079 -21.436  0.00  0.00    -0.265 OA
ATOM     29  N   UNL     1      33.721 -17.189 -21.395  0.00  0.00    -0.277 N 
ATOM     30  C   UNL     1      34.756 -18.048 -21.042  0.00  0.00    +0.303 C 
ATOM     31  H   UNL     1      32.858 -17.345 -20.948  0.00  0.00    +0.155 HD
ENDBRANCH  17  29
TORSDOF 2
ENDMDL
