MODEL 1
REMARK VINA RESULT:     -11.4      0.000      0.000
REMARK  Name = 10125830
REMARK  4 active torsions:
REMARK  status: ('A' for Active; 'I' for Inactive)
REMARK    1  A    between atoms: C_6  and  C_19
REMARK    2  A    between atoms: C_11  and  C_14
REMARK    3  A    between atoms: C_22  and  O_25
REMARK    4  A    between atoms: C_24  and  O_27
REMARK                            x       y       z     vdW  Elec       q    Type
REMARK                         _______ _______ _______ _____ _____    ______ ____
ROOT
ATOM      1  O   UNL     1      33.023 -23.372 -17.190  0.00  0.00    -0.270 OA
ATOM      2  N   UNL     1      33.078 -21.984 -19.102  0.00  0.00    -0.280 N 
ATOM      3  C   UNL     1      35.266 -21.284 -19.033  0.00  0.00    +0.018 C 
ATOM      4  C   UNL     1      34.055 -21.202 -19.726  0.00  0.00    +0.051 C 
ATOM      5  C   UNL     1      35.019 -22.176 -17.906  0.00  0.00    +0.056 C 
ATOM      6  C   UNL     1      35.025 -19.731 -21.315  0.00  0.00    +0.001 C 
ATOM      7  C   UNL     1      33.906 -20.437 -20.866  0.00  0.00    +0.015 C 
ATOM      8  C   UNL     1      36.378 -20.588 -19.471  0.00  0.00    +0.001 C 
ATOM      9  C   UNL     1      33.587 -22.624 -17.968  0.00  0.00    +0.250 C 
ATOM     10  C   UNL     1      36.249 -19.807 -20.623  0.00  0.00    +0.000 C 
ATOM     11  C   UNL     1      35.869 -22.571 -16.956  0.00  0.00    +0.019 C 
ATOM     12  H   UNL     1      32.151 -22.074 -19.421  0.00  0.00    +0.155 HD
ENDROOT
BRANCH  11  14
ATOM     13  N   UNL     1      34.938 -22.936 -14.795  0.00  0.00    -0.312 N 
ATOM     14  C   UNL     1      35.612 -23.456 -15.844  0.00  0.00    +0.049 C 
ATOM     15  C   UNL     1      35.914 -24.752 -15.621  0.00  0.00    +0.016 C 
ATOM     16  C   UNL     1      34.793 -23.922 -13.853  0.00  0.00    +0.062 C 
ATOM     17  C   UNL     1      35.391 -25.062 -14.341  0.00  0.00    +0.017 C 
ATOM     18  H   UNL     1      34.610 -22.011 -14.719  0.00  0.00    +0.152 HD
ENDBRANCH  11  14
BRANCH   6  19
ATOM     19  C   UNL     1      34.927 -18.913 -22.504  0.00  0.00    +0.003 C 
ATOM     20  C   UNL     1      35.077 -17.530 -22.411  0.00  0.00    +0.040 C 
ATOM     21  C   UNL     1      34.682 -19.507 -23.741  0.00  0.00    +0.003 C 
ATOM     22  C   UNL     1      34.983 -16.740 -23.557  0.00  0.00    +0.172 C 
ATOM     23  C   UNL     1      34.589 -18.718 -24.887  0.00  0.00    +0.040 C 
ATOM     24  C   UNL     1      34.740 -17.335 -24.796  0.00  0.00    +0.168 C 
BRANCH  22  25
ATOM     25  O   UNL     1      35.132 -15.390 -23.455  0.00  0.00    -0.468 OA
ATOM     26  C   UNL     1      34.424 -14.737 -22.404  0.00  0.00    +0.253 C 
ENDBRANCH  22  25
BRANCH  24  27
ATOM     27  O   UNL     1      34.646 -16.574 -25.922  0.00  0.00    -0.503 OA
ATOM     28  H   UNL     1      35.223 -15.847 -26.045  0.00  0.00    +0.292 HD
ENDBRANCH  24  27
ENDBRANCH   6  19
TORSDOF 4
ENDMDL
MODEL 2
REMARK VINA RESULT:     -11.2      2.599      9.187
REMARK  Name = 10125830
REMARK  4 active torsions:
REMARK  status: ('A' for Active; 'I' for Inactive)
REMARK    1  A    between atoms: C_6  and  C_19
REMARK    2  A    between atoms: C_11  and  C_14
REMARK    3  A    between atoms: C_22  and  O_25
REMARK    4  A    between atoms: C_24  and  O_27
REMARK                            x       y       z     vdW  Elec       q    Type
REMARK                         _______ _______ _______ _____ _____    ______ ____
ROOT
ATOM      1  O   UNL     1      37.093 -18.650 -21.712  0.00  0.00    -0.270 OA
ATOM      2  N   UNL     1      37.150 -20.029 -19.794  0.00  0.00    -0.280 N 
ATOM      3  C   UNL     1      35.012 -20.873 -19.838  0.00  0.00    +0.018 C 
ATOM      4  C   UNL     1      36.232 -20.870 -19.156  0.00  0.00    +0.051 C 
ATOM      5  C   UNL     1      35.189 -19.973 -20.972  0.00  0.00    +0.056 C 
ATOM      6  C   UNL     1      35.378 -22.393 -17.551  0.00  0.00    +0.001 C 
ATOM      7  C   UNL     1      36.444 -21.618 -18.014  0.00  0.00    +0.015 C 
ATOM      8  C   UNL     1      33.953 -21.637 -19.385  0.00  0.00    +0.001 C 
ATOM      9  C   UNL     1      36.589 -19.432 -20.927  0.00  0.00    +0.250 C 
ATOM     10  C   UNL     1      34.145 -22.403 -18.230  0.00  0.00    +0.000 C 
ATOM     11  C   UNL     1      34.308 -19.647 -21.920  0.00  0.00    +0.019 C 
ATOM     12  H   UNL     1      38.072 -19.877 -19.485  0.00  0.00    +0.155 HD
ENDROOT
BRANCH  11  14
ATOM     13  N   UNL     1      34.558 -17.433 -22.760  0.00  0.00    -0.312 N 
ATOM     14  C   UNL     1      34.496 -18.754 -23.039  0.00  0.00    +0.049 C 
ATOM     15  C   UNL     1      34.630 -18.967 -24.364  0.00  0.00    +0.016 C 
ATOM     16  C   UNL     1      34.739 -16.758 -23.940  0.00  0.00    +0.062 C 
ATOM     17  C   UNL     1      34.787 -17.688 -24.954  0.00  0.00    +0.017 C 
ATOM     18  H   UNL     1      34.485 -17.026 -21.866  0.00  0.00    +0.152 HD
ENDBRANCH  11  14
BRANCH   6  19
ATOM     19  C   UNL     1      35.541 -23.196 -16.358  0.00  0.00    +0.003 C 
ATOM     20  C   UNL     1      36.799 -23.322 -15.771  0.00  0.00    +0.040 C 
ATOM     21  C   UNL     1      34.441 -23.844 -15.799  0.00  0.00    +0.003 C 
ATOM     22  C   UNL     1      36.958 -24.096 -14.621  0.00  0.00    +0.172 C 
ATOM     23  C   UNL     1      34.599 -24.618 -14.648  0.00  0.00    +0.040 C 
ATOM     24  C   UNL     1      35.857 -24.743 -14.059  0.00  0.00    +0.168 C 
BRANCH  22  25
ATOM     25  O   UNL     1      38.191 -24.211 -14.055  0.00  0.00    -0.468 OA
ATOM     26  C   UNL     1      39.092 -25.144 -14.649  0.00  0.00    +0.253 C 
ENDBRANCH  22  25
BRANCH  24  27
ATOM     27  O   UNL     1      35.998 -25.502 -12.937  0.00  0.00    -0.503 OA
ATOM     28  H   UNL     1      36.014 -26.436 -13.002  0.00  0.00    +0.292 HD
ENDBRANCH  24  27
ENDBRANCH   6  19
TORSDOF 4
ENDMDL
MODEL 3
REMARK VINA RESULT:     -10.7      6.973     11.473
REMARK  Name = 10125830
REMARK  4 active torsions:
REMARK  status: ('A' for Active; 'I' for Inactive)
REMARK    1  A    between atoms: C_6  and  C_19
REMARK    2  A    between atoms: C_11  and  C_14
REMARK    3  A    between atoms: C_22  and  O_25
REMARK    4  A    between atoms: C_24  and  O_27
REMARK                            x       y       z     vdW  Elec       q    Type
REMARK                         _______ _______ _______ _____ _____    ______ ____
ROOT
ATOM      1  O   UNL     1      32.254 -14.911 -21.940  0.00  0.00    -0.270 OA
ATOM      2  N   UNL     1      31.671 -12.627 -21.778  0.00  0.00    -0.280 N 
ATOM      3  C   UNL     1      33.126 -11.728 -23.314  0.00  0.00    +0.018 C 
ATOM      4  C   UNL     1      32.110 -11.451 -22.395  0.00  0.00    +0.051 C 
ATOM      5  C   UNL     1      33.328 -13.172 -23.259  0.00  0.00    +0.056 C 
ATOM      6  C   UNL     1      32.231  -9.138 -22.907  0.00  0.00    +0.001 C 
ATOM      7  C   UNL     1      31.643 -10.171 -22.172  0.00  0.00    +0.015 C 
ATOM      8  C   UNL     1      33.713 -10.712 -24.045  0.00  0.00    +0.001 C 
ATOM      9  C   UNL     1      32.371 -13.741 -22.253  0.00  0.00    +0.250 C 
ATOM     10  C   UNL     1      33.255  -9.407 -23.835  0.00  0.00    +0.000 C 
ATOM     11  C   UNL     1      34.189 -13.918 -23.955  0.00  0.00    +0.019 C 
ATOM     12  H   UNL     1      30.961 -12.666 -21.097  0.00  0.00    +0.155 HD
ENDROOT
BRANCH  11  14
ATOM     13  N   UNL     1      34.926 -15.840 -22.759  0.00  0.00    -0.312 N 
ATOM     14  C   UNL     1      34.379 -15.347 -23.892  0.00  0.00    +0.049 C 
ATOM     15  C   UNL     1      34.114 -16.343 -24.763  0.00  0.00    +0.016 C 
ATOM     16  C   UNL     1      35.022 -17.201 -22.890  0.00  0.00    +0.062 C 
ATOM     17  C   UNL     1      34.525 -17.541 -24.128  0.00  0.00    +0.017 C 
ATOM     18  H   UNL     1      35.207 -15.313 -21.976  0.00  0.00    +0.152 HD
ENDBRANCH  11  14
BRANCH   6  19
ATOM     19  C   UNL     1      31.782  -7.776 -22.714  0.00  0.00    +0.003 C 
ATOM     20  C   UNL     1      31.390  -7.010 -23.812  0.00  0.00    +0.040 C 
ATOM     21  C   UNL     1      31.742  -7.230 -21.432  0.00  0.00    +0.003 C 
ATOM     22  C   UNL     1      30.957  -5.697 -23.627  0.00  0.00    +0.172 C 
ATOM     23  C   UNL     1      31.308  -5.918 -21.246  0.00  0.00    +0.040 C 
ATOM     24  C   UNL     1      30.916  -5.151 -22.343  0.00  0.00    +0.168 C 
BRANCH  22  25
ATOM     25  O   UNL     1      30.577  -4.958 -24.706  0.00  0.00    -0.468 OA
ATOM     26  C   UNL     1      31.610  -4.313 -25.447  0.00  0.00    +0.253 C 
ENDBRANCH  22  25
BRANCH  24  27
ATOM     27  O   UNL     1      30.495  -3.870 -22.149  0.00  0.00    -0.503 OA
ATOM     28  H   UNL     1      30.559  -3.246 -22.845  0.00  0.00    +0.292 HD
ENDBRANCH  24  27
ENDBRANCH   6  19
TORSDOF 4
ENDMDL
MODEL 4
REMARK VINA RESULT:     -10.7      2.348      9.156
REMARK  Name = 10125830
REMARK  4 active torsions:
REMARK  status: ('A' for Active; 'I' for Inactive)
REMARK    1  A    between atoms: C_6  and  C_19
REMARK    2  A    between atoms: C_11  and  C_14
REMARK    3  A    between atoms: C_22  and  O_25
REMARK    4  A    between atoms: C_24  and  O_27
REMARK                            x       y       z     vdW  Elec       q    Type
REMARK                         _______ _______ _______ _____ _____    ______ ____
ROOT
ATOM      1  O   UNL     1      37.048 -18.679 -21.688  0.00  0.00    -0.270 OA
ATOM      2  N   UNL     1      37.044 -20.045 -19.760  0.00  0.00    -0.280 N 
ATOM      3  C   UNL     1      34.899 -20.867 -19.850  0.00  0.00    +0.018 C 
ATOM      4  C   UNL     1      36.103 -20.872 -19.138  0.00  0.00    +0.051 C 
ATOM      5  C   UNL     1      35.113 -19.976 -20.985  0.00  0.00    +0.056 C 
ATOM      6  C   UNL     1      35.194 -22.375 -17.544  0.00  0.00    +0.001 C 
ATOM      7  C   UNL     1      36.278 -21.614 -17.987  0.00  0.00    +0.015 C 
ATOM      8  C   UNL     1      33.821 -21.617 -19.417  0.00  0.00    +0.001 C 
ATOM      9  C   UNL     1      36.517 -19.450 -20.910  0.00  0.00    +0.250 C 
ATOM     10  C   UNL     1      33.977 -22.376 -18.253  0.00  0.00    +0.000 C 
ATOM     11  C   UNL     1      34.258 -19.648 -21.956  0.00  0.00    +0.019 C 
ATOM     12  H   UNL     1      37.960 -19.900 -19.429  0.00  0.00    +0.155 HD
ENDROOT
BRANCH  11  14
ATOM     13  N   UNL     1      34.571 -17.445 -22.803  0.00  0.00    -0.312 N 
ATOM     14  C   UNL     1      34.482 -18.765 -23.076  0.00  0.00    +0.049 C 
ATOM     15  C   UNL     1      34.630 -18.987 -24.399  0.00  0.00    +0.016 C 
ATOM     16  C   UNL     1      34.785 -16.780 -23.982  0.00  0.00    +0.062 C 
ATOM     17  C   UNL     1      34.824 -17.715 -24.992  0.00  0.00    +0.017 C 
ATOM     18  H   UNL     1      34.495 -17.032 -21.912  0.00  0.00    +0.152 HD
ENDBRANCH  11  14
BRANCH   6  19
ATOM     19  C   UNL     1      35.320 -23.171 -16.343  0.00  0.00    +0.003 C 
ATOM     20  C   UNL     1      34.177 -23.638 -15.694  0.00  0.00    +0.040 C 
ATOM     21  C   UNL     1      36.583 -23.472 -15.836  0.00  0.00    +0.003 C 
ATOM     22  C   UNL     1      34.298 -24.406 -14.536  0.00  0.00    +0.172 C 
ATOM     23  C   UNL     1      36.705 -24.242 -14.679  0.00  0.00    +0.040 C 
ATOM     24  C   UNL     1      35.562 -24.709 -14.029  0.00  0.00    +0.168 C 
BRANCH  22  25
ATOM     25  O   UNL     1      33.176 -24.857 -13.910  0.00  0.00    -0.468 OA
ATOM     26  C   UNL     1      31.998 -24.064 -14.041  0.00  0.00    +0.253 C 
ENDBRANCH  22  25
BRANCH  24  27
ATOM     27  O   UNL     1      35.694 -25.459 -12.899  0.00  0.00    -0.503 OA
ATOM     28  H   UNL     1      35.843 -26.381 -12.964  0.00  0.00    +0.292 HD
ENDBRANCH  24  27
ENDBRANCH   6  19
TORSDOF 4
ENDMDL
MODEL 5
REMARK VINA RESULT:     -10.6      2.722      9.387
REMARK  Name = 10125830
REMARK  4 active torsions:
REMARK  status: ('A' for Active; 'I' for Inactive)
REMARK    1  A    between atoms: C_6  and  C_19
REMARK    2  A    between atoms: C_11  and  C_14
REMARK    3  A    between atoms: C_22  and  O_25
REMARK    4  A    between atoms: C_24  and  O_27
REMARK                            x       y       z     vdW  Elec       q    Type
REMARK                         _______ _______ _______ _____ _____    ______ ____
ROOT
ATOM      1  O   UNL     1      32.803 -20.797 -20.726  0.00  0.00    -0.270 OA
ATOM      2  N   UNL     1      33.331 -22.035 -18.784  0.00  0.00    -0.280 N 
ATOM      3  C   UNL     1      35.565 -21.532 -18.577  0.00  0.00    +0.018 C 
ATOM      4  C   UNL     1      34.491 -22.239 -18.029  0.00  0.00    +0.051 C 
ATOM      5  C   UNL     1      35.031 -20.846 -19.749  0.00  0.00    +0.056 C 
ATOM      6  C   UNL     1      35.881 -23.075 -16.298  0.00  0.00    +0.001 C 
ATOM      7  C   UNL     1      34.619 -23.015 -16.894  0.00  0.00    +0.015 C 
ATOM      8  C   UNL     1      36.816 -21.585 -17.993  0.00  0.00    +0.001 C 
ATOM      9  C   UNL     1      33.574 -21.186 -19.868  0.00  0.00    +0.250 C 
ATOM     10  C   UNL     1      36.969 -22.366 -16.842  0.00  0.00    +0.000 C 
ATOM     11  C   UNL     1      35.668 -20.042 -20.603  0.00  0.00    +0.019 C 
ATOM     12  H   UNL     1      32.456 -22.438 -18.579  0.00  0.00    +0.155 HD
ENDROOT
BRANCH  11  14
ATOM     13  N   UNL     1      34.570 -18.155 -21.553  0.00  0.00    -0.312 N 
ATOM     14  C   UNL     1      35.129 -19.368 -21.761  0.00  0.00    +0.049 C 
ATOM     15  C   UNL     1      35.061 -19.706 -23.065  0.00  0.00    +0.016 C 
ATOM     16  C   UNL     1      34.123 -17.682 -22.759  0.00  0.00    +0.062 C 
ATOM     17  C   UNL     1      34.414 -18.627 -23.717  0.00  0.00    +0.017 C 
ATOM     18  H   UNL     1      34.496 -17.693 -20.687  0.00  0.00    +0.152 HD
ENDBRANCH  11  14
BRANCH   6  19
ATOM     19  C   UNL     1      36.074 -23.873 -15.107  0.00  0.00    +0.003 C 
ATOM     20  C   UNL     1      37.181 -24.715 -15.005  0.00  0.00    +0.040 C 
ATOM     21  C   UNL     1      35.154 -23.799 -14.062  0.00  0.00    +0.003 C 
ATOM     22  C   UNL     1      37.368 -25.485 -13.857  0.00  0.00    +0.172 C 
ATOM     23  C   UNL     1      35.341 -24.568 -12.913  0.00  0.00    +0.040 C 
ATOM     24  C   UNL     1      36.448 -25.411 -12.810  0.00  0.00    +0.168 C 
BRANCH  22  25
ATOM     25  O   UNL     1      38.452 -26.305 -13.768  0.00  0.00    -0.468 OA
ATOM     26  C   UNL     1      39.733 -25.709 -13.964  0.00  0.00    +0.253 C 
ENDBRANCH  22  25
BRANCH  24  27
ATOM     27  O   UNL     1      36.620 -26.157 -11.683  0.00  0.00    -0.503 OA
ATOM     28  H   UNL     1      36.539 -27.089 -11.722  0.00  0.00    +0.292 HD
ENDBRANCH  24  27
ENDBRANCH   6  19
TORSDOF 4
ENDMDL
MODEL 6
REMARK VINA RESULT:     -10.4      5.969     11.620
REMARK  Name = 10125830
REMARK  4 active torsions:
REMARK  status: ('A' for Active; 'I' for Inactive)
REMARK    1  A    between atoms: C_6  and  C_19
REMARK    2  A    between atoms: C_11  and  C_14
REMARK    3  A    between atoms: C_22  and  O_25
REMARK    4  A    between atoms: C_24  and  O_27
REMARK                            x       y       z     vdW  Elec       q    Type
REMARK                         _______ _______ _______ _____ _____    ______ ____
ROOT
ATOM      1  O   UNL     1      33.839  -8.469 -24.006  0.00  0.00    -0.270 OA
ATOM      2  N   UNL     1      34.319 -10.767 -24.274  0.00  0.00    -0.280 N 
ATOM      3  C   UNL     1      32.757 -11.677 -22.854  0.00  0.00    +0.018 C 
ATOM      4  C   UNL     1      33.800 -11.952 -23.743  0.00  0.00    +0.051 C 
ATOM      5  C   UNL     1      32.625 -10.224 -22.835  0.00  0.00    +0.056 C 
ATOM      6  C   UNL     1      33.547 -14.281 -23.371  0.00  0.00    +0.001 C 
ATOM      7  C   UNL     1      34.214 -13.240 -24.021  0.00  0.00    +0.015 C 
ATOM      8  C   UNL     1      32.092 -12.701 -22.207  0.00  0.00    +0.001 C 
ATOM      9  C   UNL     1      33.651  -9.648 -23.767  0.00  0.00    +0.250 C 
ATOM     10  C   UNL     1      32.495 -14.014 -22.473  0.00  0.00    +0.000 C 
ATOM     11  C   UNL     1      31.765  -9.476 -22.141  0.00  0.00    +0.019 C 
ATOM     12  H   UNL     1      35.060 -10.726 -24.922  0.00  0.00    +0.155 HD
ENDROOT
BRANCH  11  14
ATOM     13  N   UNL     1      30.983  -7.475 -23.167  0.00  0.00    -0.312 N 
ATOM     14  C   UNL     1      31.644  -8.037 -22.131  0.00  0.00    +0.049 C 
ATOM     15  C   UNL     1      32.068  -7.091 -21.267  0.00  0.00    +0.016 C 
ATOM     16  C   UNL     1      30.973  -6.118 -22.977  0.00  0.00    +0.062 C 
ATOM     17  C   UNL     1      31.641  -5.851 -21.804  0.00  0.00    +0.017 C 
ATOM     18  H   UNL     1      30.580  -7.956 -23.926  0.00  0.00    +0.152 HD
ENDBRANCH  11  14
BRANCH   6  19
ATOM     19  C   UNL     1      33.939 -15.651 -23.622  0.00  0.00    +0.003 C 
ATOM     20  C   UNL     1      34.294 -16.480 -22.559  0.00  0.00    +0.040 C 
ATOM     21  C   UNL     1      33.961 -16.141 -24.927  0.00  0.00    +0.003 C 
ATOM     22  C   UNL     1      34.671 -17.801 -22.800  0.00  0.00    +0.172 C 
ATOM     23  C   UNL     1      34.338 -17.462 -25.170  0.00  0.00    +0.040 C 
ATOM     24  C   UNL     1      34.693 -18.292 -24.106  0.00  0.00    +0.168 C 
BRANCH  22  25
ATOM     25  O   UNL     1      35.017 -18.602 -21.754  0.00  0.00    -0.468 OA
ATOM     26  C   UNL     1      33.959 -19.282 -21.081  0.00  0.00    +0.253 C 
ENDBRANCH  22  25
BRANCH  24  27
ATOM     27  O   UNL     1      35.059 -19.581 -24.355  0.00  0.00    -0.503 OA
ATOM     28  H   UNL     1      34.969 -19.934 -25.217  0.00  0.00    +0.292 HD
ENDBRANCH  24  27
ENDBRANCH   6  19
TORSDOF 4
ENDMDL
MODEL 7
REMARK VINA RESULT:     -10.3      1.500      1.969
REMARK  Name = 10125830
REMARK  4 active torsions:
REMARK  status: ('A' for Active; 'I' for Inactive)
REMARK    1  A    between atoms: C_6  and  C_19
REMARK    2  A    between atoms: C_11  and  C_14
REMARK    3  A    between atoms: C_22  and  O_25
REMARK    4  A    between atoms: C_24  and  O_27
REMARK                            x       y       z     vdW  Elec       q    Type
REMARK                         _______ _______ _______ _____ _____    ______ ____
ROOT
ATOM      1  O   UNL     1      37.518 -22.266 -16.252  0.00  0.00    -0.270 OA
ATOM      2  N   UNL     1      37.242 -21.031 -18.247  0.00  0.00    -0.280 N 
ATOM      3  C   UNL     1      35.057 -21.546 -18.744  0.00  0.00    +0.018 C 
ATOM      4  C   UNL     1      36.191 -20.834 -19.149  0.00  0.00    +0.051 C 
ATOM      5  C   UNL     1      35.436 -22.228 -17.511  0.00  0.00    +0.056 C 
ATOM      6  C   UNL     1      35.035 -20.007 -21.048  0.00  0.00    +0.001 C 
ATOM      7  C   UNL     1      36.208 -20.059 -20.291  0.00  0.00    +0.015 C 
ATOM      8  C   UNL     1      33.893 -21.500 -19.487  0.00  0.00    +0.001 C 
ATOM      9  C   UNL     1      36.863 -21.879 -17.202  0.00  0.00    +0.250 C 
ATOM     10  C   UNL     1      33.888 -20.721 -20.649  0.00  0.00    +0.000 C 
ATOM     11  C   UNL     1      34.695 -23.028 -16.742  0.00  0.00    +0.019 C 
ATOM     12  H   UNL     1      38.134 -20.623 -18.337  0.00  0.00    +0.155 HD
ENDROOT
BRANCH  11  14
ATOM     13  N   UNL     1      35.877 -24.781 -15.648  0.00  0.00    -0.312 N 
ATOM     14  C   UNL     1      35.081 -23.696 -15.522  0.00  0.00    +0.049 C 
ATOM     15  C   UNL     1      34.805 -23.457 -14.223  0.00  0.00    +0.016 C 
ATOM     16  C   UNL     1      36.132 -25.269 -14.393  0.00  0.00    +0.062 C 
ATOM     17  C   UNL     1      35.477 -24.465 -13.487  0.00  0.00    +0.017 C 
ATOM     18  H   UNL     1      36.214 -25.156 -16.494  0.00  0.00    +0.152 HD
ENDBRANCH  11  14
BRANCH   6  19
ATOM     19  C   UNL     1      34.995 -19.211 -22.255  0.00  0.00    +0.003 C 
ATOM     20  C   UNL     1      35.285 -17.848 -22.200  0.00  0.00    +0.040 C 
ATOM     21  C   UNL     1      34.668 -19.807 -23.472  0.00  0.00    +0.003 C 
ATOM     22  C   UNL     1      35.247 -17.080 -23.364  0.00  0.00    +0.172 C 
ATOM     23  C   UNL     1      34.632 -19.040 -24.637  0.00  0.00    +0.040 C 
ATOM     24  C   UNL     1      34.921 -17.676 -24.582  0.00  0.00    +0.168 C 
BRANCH  22  25
ATOM     25  O   UNL     1      35.531 -15.749 -23.299  0.00  0.00    -0.468 OA
ATOM     26  C   UNL     1      34.474 -14.879 -22.900  0.00  0.00    +0.253 C 
ENDBRANCH  22  25
BRANCH  24  27
ATOM     27  O   UNL     1      34.881 -16.937 -25.726  0.00  0.00    -0.503 OA
ATOM     28  H   UNL     1      35.546 -17.046 -26.377  0.00  0.00    +0.292 HD
ENDBRANCH  24  27
ENDBRANCH   6  19
TORSDOF 4
ENDMDL
MODEL 8
REMARK VINA RESULT:     -10.1      5.685     11.248
REMARK  Name = 10125830
REMARK  4 active torsions:
REMARK  status: ('A' for Active; 'I' for Inactive)
REMARK    1  A    between atoms: C_6  and  C_19
REMARK    2  A    between atoms: C_11  and  C_14
REMARK    3  A    between atoms: C_22  and  O_25
REMARK    4  A    between atoms: C_24  and  O_27
REMARK                            x       y       z     vdW  Elec       q    Type
REMARK                         _______ _______ _______ _____ _____    ______ ____
ROOT
ATOM      1  O   UNL     1      31.090  -9.972 -20.867  0.00  0.00    -0.270 OA
ATOM      2  N   UNL     1      31.804 -12.171 -21.354  0.00  0.00    -0.280 N 
ATOM      3  C   UNL     1      32.963 -11.798 -23.304  0.00  0.00    +0.018 C 
ATOM      4  C   UNL     1      32.556 -12.761 -22.376  0.00  0.00    +0.051 C 
ATOM      5  C   UNL     1      32.425 -10.530 -22.823  0.00  0.00    +0.056 C 
ATOM      6  C   UNL     1      33.649 -14.465 -23.612  0.00  0.00    +0.001 C 
ATOM      7  C   UNL     1      32.883 -14.096 -22.503  0.00  0.00    +0.015 C 
ATOM      8  C   UNL     1      33.720 -12.155 -24.405  0.00  0.00    +0.001 C 
ATOM      9  C   UNL     1      31.674 -10.792 -21.550  0.00  0.00    +0.250 C 
ATOM     10  C   UNL     1      34.064 -13.503 -24.553  0.00  0.00    +0.000 C 
ATOM     11  C   UNL     1      32.547  -9.317 -23.365  0.00  0.00    +0.019 C 
ATOM     12  H   UNL     1      31.418 -12.663 -20.594  0.00  0.00    +0.155 HD
ENDROOT
BRANCH  11  14
ATOM     13  N   UNL     1      32.622  -7.520 -21.805  0.00  0.00    -0.312 N 
ATOM     14  C   UNL     1      32.010  -8.068 -22.878  0.00  0.00    +0.049 C 
ATOM     15  C   UNL     1      30.983  -7.294 -23.287  0.00  0.00    +0.016 C 
ATOM     16  C   UNL     1      31.976  -6.351 -21.499  0.00  0.00    +0.062 C 
ATOM     17  C   UNL     1      30.952  -6.186 -22.404  0.00  0.00    +0.017 C 
ATOM     18  H   UNL     1      33.395  -7.896 -21.325  0.00  0.00    +0.152 HD
ENDBRANCH  11  14
BRANCH   6  19
ATOM     19  C   UNL     1      34.022 -15.851 -23.797  0.00  0.00    +0.003 C 
ATOM     20  C   UNL     1      34.359 -16.634 -22.694  0.00  0.00    +0.040 C 
ATOM     21  C   UNL     1      34.043 -16.401 -25.078  0.00  0.00    +0.003 C 
ATOM     22  C   UNL     1      34.718 -17.970 -22.871  0.00  0.00    +0.172 C 
ATOM     23  C   UNL     1      34.401 -17.738 -25.256  0.00  0.00    +0.040 C 
ATOM     24  C   UNL     1      34.738 -18.522 -24.153  0.00  0.00    +0.168 C 
BRANCH  22  25
ATOM     25  O   UNL     1      35.045 -18.726 -21.787  0.00  0.00    -0.468 OA
ATOM     26  C   UNL     1      33.990 -19.451 -21.158  0.00  0.00    +0.253 C 
ENDBRANCH  22  25
BRANCH  24  27
ATOM     27  O   UNL     1      35.086 -19.826 -24.339  0.00  0.00    -0.503 OA
ATOM     28  H   UNL     1      35.922 -20.039 -24.705  0.00  0.00    +0.292 HD
ENDBRANCH  24  27
ENDBRANCH   6  19
TORSDOF 4
ENDMDL
MODEL 9
REMARK VINA RESULT:     -10.1      5.934     10.262
REMARK  Name = 10125830
REMARK  4 active torsions:
REMARK  status: ('A' for Active; 'I' for Inactive)
REMARK    1  A    between atoms: C_6  and  C_19
REMARK    2  A    between atoms: C_11  and  C_14
REMARK    3  A    between atoms: C_22  and  O_25
REMARK    4  A    between atoms: C_24  and  O_27
REMARK                            x       y       z     vdW  Elec       q    Type
REMARK                         _______ _______ _______ _____ _____    ______ ____
ROOT
ATOM      1  O   UNL     1      32.975 -16.016 -21.674  0.00  0.00    -0.270 OA
ATOM      2  N   UNL     1      32.295 -13.753 -21.673  0.00  0.00    -0.280 N 
ATOM      3  C   UNL     1      33.488 -12.970 -23.476  0.00  0.00    +0.018 C 
ATOM      4  C   UNL     1      32.586 -12.635 -22.462  0.00  0.00    +0.051 C 
ATOM      5  C   UNL     1      33.773 -14.390 -23.299  0.00  0.00    +0.056 C 
ATOM      6  C   UNL     1      32.515 -10.389 -23.222  0.00  0.00    +0.001 C 
ATOM      7  C   UNL     1      32.083 -11.357 -22.312  0.00  0.00    +0.015 C 
ATOM      8  C   UNL     1      33.920 -12.017 -24.380  0.00  0.00    +0.001 C 
ATOM      9  C   UNL     1      32.987 -14.884 -22.120  0.00  0.00    +0.250 C 
ATOM     10  C   UNL     1      33.423 -10.716 -24.246  0.00  0.00    +0.000 C 
ATOM     11  C   UNL     1      34.576 -15.173 -24.023  0.00  0.00    +0.019 C 
ATOM     12  H   UNL     1      31.682 -13.745 -20.903  0.00  0.00    +0.155 HD
ENDROOT
BRANCH  11  14
ATOM     13  N   UNL     1      35.651 -16.912 -22.803  0.00  0.00    -0.312 N 
ATOM     14  C   UNL     1      34.850 -16.578 -23.839  0.00  0.00    +0.049 C 
ATOM     15  C   UNL     1      34.457 -17.681 -24.511  0.00  0.00    +0.016 C 
ATOM     16  C   UNL     1      35.787 -18.276 -22.795  0.00  0.00    +0.062 C 
ATOM     17  C   UNL     1      35.057 -18.779 -23.847  0.00  0.00    +0.017 C 
ATOM     18  H   UNL     1      36.064 -16.285 -22.166  0.00  0.00    +0.152 HD
ENDBRANCH  11  14
BRANCH   6  19
ATOM     19  C   UNL     1      32.022  -9.033 -23.112  0.00  0.00    +0.003 C 
ATOM     20  C   UNL     1      32.220  -8.313 -21.934  0.00  0.00    +0.040 C 
ATOM     21  C   UNL     1      31.350  -8.447 -24.184  0.00  0.00    +0.003 C 
ATOM     22  C   UNL     1      31.746  -7.006 -21.828  0.00  0.00    +0.172 C 
ATOM     23  C   UNL     1      30.877  -7.139 -24.078  0.00  0.00    +0.040 C 
ATOM     24  C   UNL     1      31.074  -6.419 -22.901  0.00  0.00    +0.168 C 
BRANCH  22  25
ATOM     25  O   UNL     1      31.944  -6.312 -20.672  0.00  0.00    -0.468 OA
ATOM     26  C   UNL     1      32.615  -6.993 -19.614  0.00  0.00    +0.253 C 
ENDBRANCH  22  25
BRANCH  24  27
ATOM     27  O   UNL     1      30.607  -5.142 -22.809  0.00  0.00    -0.503 OA
ATOM     28  H   UNL     1      31.092  -4.499 -22.332  0.00  0.00    +0.292 HD
ENDBRANCH  24  27
ENDBRANCH   6  19
TORSDOF 4
ENDMDL
