MODEL 1
REMARK VINA RESULT:     -11.6      0.000      0.000
REMARK  Name = 446345
REMARK  6 active torsions:
REMARK  status: ('A' for Active; 'I' for Inactive)
REMARK    1  A    between atoms: N_2  and  C_20
REMARK    2  A    between atoms: N_3  and  S_8
REMARK    3  A    between atoms: S_8  and  C_11
REMARK    4  A    between atoms: C_12  and  C_14
REMARK    5  A    between atoms: C_20  and  C_22
REMARK    6  A    between atoms: N_21  and  C_28
REMARK                            x       y       z     vdW  Elec       q    Type
REMARK                         _______ _______ _______ _____ _____    ______ ____
ROOT
ATOM      1  O   UNL     1      37.330 -19.442 -20.653  0.00  0.00    -0.273 OA
ATOM      2  N   UNL     1      35.144 -18.871 -21.178  0.00  0.00    -0.277 N 
ATOM      3  N   UNL     1      34.238 -21.038 -19.657  0.00  0.00    -0.144 NA
ATOM      4  C   UNL     1      33.717 -19.093 -20.973  0.00  0.00    +0.113 C 
ATOM      5  C   UNL     1      33.381 -20.554 -20.761  0.00  0.00    +0.118 C 
ATOM      6  C   UNL     1      36.121 -19.693 -20.622  0.00  0.00    +0.244 C 
ATOM      7  C   UNL     1      35.667 -21.002 -20.025  0.00  0.00    +0.181 C 
ENDROOT
BRANCH   3   8
ATOM      8  S   UNL     1      33.712 -22.468 -18.876  0.00  0.00    +0.065 S 
ATOM      9  O   UNL     1      33.999 -23.586 -19.759  0.00  0.00    -0.153 OA
ATOM     10  O   UNL     1      32.355 -22.247 -18.408  0.00  0.00    -0.153 OA
BRANCH   8  11
ATOM     11  C   UNL     1      34.743 -22.599 -17.491  0.00  0.00    +0.141 C 
ATOM     12  C   UNL     1      34.220 -23.155 -16.391  0.00  0.00    +0.021 C 
BRANCH  12  14
ATOM     13 CL   UNL     1      37.164 -23.978 -11.268  0.00  0.00    -0.082 Cl
ATOM     14  C   UNL     1      34.946 -23.358 -15.126  0.00  0.00    +0.001 C 
ATOM     15  C   UNL     1      36.296 -23.049 -15.061  0.00  0.00    +0.001 C 
ATOM     16  C   UNL     1      34.268 -23.855 -14.024  0.00  0.00    +0.001 C 
ATOM     17  C   UNL     1      36.984 -23.242 -13.863  0.00  0.00    +0.011 C 
ATOM     18  C   UNL     1      34.956 -24.047 -12.827  0.00  0.00    +0.011 C 
ATOM     19  C   UNL     1      36.315 -23.740 -12.746  0.00  0.00    +0.058 C 
ENDBRANCH  12  14
ENDBRANCH   8  11
ENDBRANCH   3   8
BRANCH   2  20
ATOM     20  C   UNL     1      35.517 -17.609 -21.801  0.00  0.00    +0.094 C 
BRANCH  20  22
ATOM     21  N   UNL     1      33.222 -13.970 -22.008  0.00  0.00    -0.307 N 
ATOM     22  C   UNL     1      34.344 -16.633 -21.834  0.00  0.00    +0.023 C 
ATOM     23  C   UNL     1      34.319 -15.854 -23.154  0.00  0.00    +0.023 C 
ATOM     24  C   UNL     1      34.418 -15.649 -20.662  0.00  0.00    +0.023 C 
ATOM     25  C   UNL     1      33.172 -14.845 -23.186  0.00  0.00    +0.091 C 
ATOM     26  C   UNL     1      33.273 -14.637 -20.703  0.00  0.00    +0.091 C 
BRANCH  21  28
ATOM     27  N   UNL     1      31.403 -10.175 -22.329  0.00  0.00    -0.242 NA
ATOM     28  C   UNL     1      32.618 -12.710 -22.115  0.00  0.00    +0.051 C 
ATOM     29  C   UNL     1      32.995 -11.811 -23.123  0.00  0.00    +0.035 C 
ATOM     30  C   UNL     1      31.619 -12.309 -21.215  0.00  0.00    +0.035 C 
ATOM     31  C   UNL     1      32.368 -10.577 -23.187  0.00  0.00    +0.100 C 
ATOM     32  C   UNL     1      31.053 -11.053 -21.362  0.00  0.00    +0.100 C 
ENDBRANCH  21  28
ENDBRANCH  20  22
ENDBRANCH   2  20
TORSDOF 6
ENDMDL
MODEL 2
REMARK VINA RESULT:     -10.9      4.410      7.048
REMARK  Name = 446345
REMARK  6 active torsions:
REMARK  status: ('A' for Active; 'I' for Inactive)
REMARK    1  A    between atoms: N_2  and  C_20
REMARK    2  A    between atoms: N_3  and  S_8
REMARK    3  A    between atoms: S_8  and  C_11
REMARK    4  A    between atoms: C_12  and  C_14
REMARK    5  A    between atoms: C_20  and  C_22
REMARK    6  A    between atoms: N_21  and  C_28
REMARK                            x       y       z     vdW  Elec       q    Type
REMARK                         _______ _______ _______ _____ _____    ______ ____
ROOT
ATOM      1  O   UNL     1      32.322 -14.351 -19.815  0.00  0.00    -0.273 OA
ATOM      2  N   UNL     1      32.392 -13.069 -21.745  0.00  0.00    -0.277 N 
ATOM      3  N   UNL     1      33.614 -15.198 -23.088  0.00  0.00    -0.144 NA
ATOM      4  C   UNL     1      32.674 -12.986 -23.174  0.00  0.00    +0.113 C 
ATOM      5  C   UNL     1      33.866 -13.827 -23.580  0.00  0.00    +0.118 C 
ATOM      6  C   UNL     1      32.686 -14.197 -20.984  0.00  0.00    +0.244 C 
ATOM      7  C   UNL     1      33.571 -15.244 -21.613  0.00  0.00    +0.181 C 
ENDROOT
BRANCH   3   8
ATOM      8  S   UNL     1      34.521 -16.440 -23.840  0.00  0.00    +0.065 S 
ATOM      9  O   UNL     1      35.927 -16.181 -23.580  0.00  0.00    -0.153 OA
ATOM     10  O   UNL     1      34.051 -16.569 -25.209  0.00  0.00    -0.153 OA
BRANCH   8  11
ATOM     11  C   UNL     1      34.072 -17.875 -22.981  0.00  0.00    +0.141 C 
ATOM     12  C   UNL     1      34.819 -18.212 -21.923  0.00  0.00    +0.021 C 
BRANCH  12  14
ATOM     13 CL   UNL     1      33.865 -22.983 -18.471  0.00  0.00    -0.082 Cl
ATOM     14  C   UNL     1      34.583 -19.390 -21.070  0.00  0.00    +0.001 C 
ATOM     15  C   UNL     1      35.666 -20.115 -20.598  0.00  0.00    +0.001 C 
ATOM     16  C   UNL     1      33.283 -19.752 -20.756  0.00  0.00    +0.001 C 
ATOM     17  C   UNL     1      35.443 -21.230 -19.791  0.00  0.00    +0.011 C 
ATOM     18  C   UNL     1      33.060 -20.867 -19.949  0.00  0.00    +0.011 C 
ATOM     19  C   UNL     1      34.141 -21.606 -19.466  0.00  0.00    +0.058 C 
ENDBRANCH  12  14
ENDBRANCH   8  11
ENDBRANCH   3   8
BRANCH   2  20
ATOM     20  C   UNL     1      31.570 -12.003 -21.188  0.00  0.00    +0.094 C 
BRANCH  20  22
ATOM     21  N   UNL     1      31.489  -7.853 -22.338  0.00  0.00    -0.307 N 
ATOM     22  C   UNL     1      31.993 -10.635 -21.716  0.00  0.00    +0.023 C 
ATOM     23  C   UNL     1      31.890  -9.571 -20.618  0.00  0.00    +0.023 C 
ATOM     24  C   UNL     1      31.131 -10.221 -22.913  0.00  0.00    +0.023 C 
ATOM     25  C   UNL     1      32.274  -8.188 -21.142  0.00  0.00    +0.091 C 
ATOM     26  C   UNL     1      31.513  -8.833 -23.429  0.00  0.00    +0.091 C 
BRANCH  21  28
ATOM     27  N   UNL     1      30.963  -3.762 -23.232  0.00  0.00    -0.242 NA
ATOM     28  C   UNL     1      31.314  -6.496 -22.635  0.00  0.00    +0.051 C 
ATOM     29  C   UNL     1      31.757  -5.959 -23.853  0.00  0.00    +0.035 C 
ATOM     30  C   UNL     1      30.692  -5.630 -21.722  0.00  0.00    +0.035 C 
ATOM     31  C   UNL     1      31.561  -4.610 -24.100  0.00  0.00    +0.100 C 
ATOM     32  C   UNL     1      30.544  -4.296 -22.062  0.00  0.00    +0.100 C 
ENDBRANCH  21  28
ENDBRANCH  20  22
ENDBRANCH   2  20
TORSDOF 6
ENDMDL
MODEL 3
REMARK VINA RESULT:     -10.7      4.017     11.110
REMARK  Name = 446345
REMARK  6 active torsions:
REMARK  status: ('A' for Active; 'I' for Inactive)
REMARK    1  A    between atoms: N_2  and  C_20
REMARK    2  A    between atoms: N_3  and  S_8
REMARK    3  A    between atoms: S_8  and  C_11
REMARK    4  A    between atoms: C_12  and  C_14
REMARK    5  A    between atoms: C_20  and  C_22
REMARK    6  A    between atoms: N_21  and  C_28
REMARK                            x       y       z     vdW  Elec       q    Type
REMARK                         _______ _______ _______ _____ _____    ______ ____
ROOT
ATOM      1  O   UNL     1      32.185 -20.849 -19.314  0.00  0.00    -0.273 OA
ATOM      2  N   UNL     1      34.224 -21.946 -19.432  0.00  0.00    -0.277 N 
ATOM      3  N   UNL     1      35.271 -19.794 -20.883  0.00  0.00    -0.144 NA
ATOM      4  C   UNL     1      35.634 -21.914 -19.806  0.00  0.00    +0.113 C 
ATOM      5  C   UNL     1      35.880 -21.128 -21.076  0.00  0.00    +0.118 C 
ATOM      6  C   UNL     1      33.339 -20.918 -19.747  0.00  0.00    +0.244 C 
ATOM      7  C   UNL     1      33.805 -19.884 -20.742  0.00  0.00    +0.181 C 
ENDROOT
BRANCH   3   8
ATOM      8  S   UNL     1      35.840 -18.557 -21.920  0.00  0.00    +0.065 S 
ATOM      9  O   UNL     1      35.384 -18.863 -23.265  0.00  0.00    -0.153 OA
ATOM     10  O   UNL     1      37.257 -18.374 -21.661  0.00  0.00    -0.153 OA
BRANCH   8  11
ATOM     11  C   UNL     1      35.008 -17.136 -21.382  0.00  0.00    +0.141 C 
ATOM     12  C   UNL     1      34.298 -16.462 -22.295  0.00  0.00    +0.021 C 
BRANCH  12  14
ATOM     13 CL   UNL     1      31.151 -11.518 -21.181  0.00  0.00    -0.082 Cl
ATOM     14  C   UNL     1      33.521 -15.241 -22.020  0.00  0.00    +0.001 C 
ATOM     15  C   UNL     1      33.207 -14.916 -20.710  0.00  0.00    +0.001 C 
ATOM     16  C   UNL     1      33.118 -14.440 -23.077  0.00  0.00    +0.001 C 
ATOM     17  C   UNL     1      32.472 -13.760 -20.449  0.00  0.00    +0.011 C 
ATOM     18  C   UNL     1      32.382 -13.284 -22.816  0.00  0.00    +0.011 C 
ATOM     19  C   UNL     1      32.059 -12.944 -21.502  0.00  0.00    +0.058 C 
ENDBRANCH  12  14
ENDBRANCH   8  11
ENDBRANCH   3   8
BRANCH   2  20
ATOM     20  C   UNL     1      33.827 -22.996 -18.505  0.00  0.00    +0.094 C 
BRANCH  20  22
ATOM     21  N   UNL     1      35.312 -23.322 -14.475  0.00  0.00    -0.307 N 
ATOM     22  C   UNL     1      34.216 -22.653 -17.070  0.00  0.00    +0.023 C 
ATOM     23  C   UNL     1      35.722 -22.834 -16.854  0.00  0.00    +0.023 C 
ATOM     24  C   UNL     1      33.449 -23.526 -16.072  0.00  0.00    +0.023 C 
ATOM     25  C   UNL     1      36.121 -22.530 -15.412  0.00  0.00    +0.091 C 
ATOM     26  C   UNL     1      33.857 -23.225 -14.629  0.00  0.00    +0.091 C 
BRANCH  21  28
ATOM     27  N   UNL     1      36.949 -24.089 -10.661  0.00  0.00    -0.242 NA
ATOM     28  C   UNL     1      35.856 -23.576 -13.210  0.00  0.00    +0.051 C 
ATOM     29  C   UNL     1      37.183 -23.233 -12.909  0.00  0.00    +0.035 C 
ATOM     30  C   UNL     1      35.090 -24.184 -12.203  0.00  0.00    +0.035 C 
ATOM     31  C   UNL     1      37.673 -23.505 -11.643  0.00  0.00    +0.100 C 
ATOM     32  C   UNL     1      35.673 -24.415 -10.968  0.00  0.00    +0.100 C 
ENDBRANCH  21  28
ENDBRANCH  20  22
ENDBRANCH   2  20
TORSDOF 6
ENDMDL
MODEL 4
REMARK VINA RESULT:     -10.7      3.071      5.258
REMARK  Name = 446345
REMARK  6 active torsions:
REMARK  status: ('A' for Active; 'I' for Inactive)
REMARK    1  A    between atoms: N_2  and  C_20
REMARK    2  A    between atoms: N_3  and  S_8
REMARK    3  A    between atoms: S_8  and  C_11
REMARK    4  A    between atoms: C_12  and  C_14
REMARK    5  A    between atoms: C_20  and  C_22
REMARK    6  A    between atoms: N_21  and  C_28
REMARK                            x       y       z     vdW  Elec       q    Type
REMARK                         _______ _______ _______ _____ _____    ______ ____
ROOT
ATOM      1  O   UNL     1      32.368 -15.065 -21.073  0.00  0.00    -0.273 OA
ATOM      2  N   UNL     1      33.110 -14.911 -23.264  0.00  0.00    -0.277 N 
ATOM      3  N   UNL     1      34.584 -17.263 -22.907  0.00  0.00    -0.144 NA
ATOM      4  C   UNL     1      33.832 -15.515 -24.378  0.00  0.00    +0.113 C 
ATOM      5  C   UNL     1      35.047 -16.297 -23.926  0.00  0.00    +0.118 C 
ATOM      6  C   UNL     1      33.090 -15.469 -21.989  0.00  0.00    +0.244 C 
ATOM      7  C   UNL     1      34.075 -16.576 -21.703  0.00  0.00    +0.181 C 
ENDROOT
BRANCH   3   8
ATOM      8  S   UNL     1      35.617 -18.596 -22.616  0.00  0.00    +0.065 S 
ATOM      9  O   UNL     1      36.905 -18.073 -22.192  0.00  0.00    -0.153 OA
ATOM     10  O   UNL     1      35.540 -19.480 -23.765  0.00  0.00    -0.153 OA
BRANCH   8  11
ATOM     11  C   UNL     1      34.897 -19.407 -21.266  0.00  0.00    +0.141 C 
ATOM     12  C   UNL     1      35.566 -20.443 -20.747  0.00  0.00    +0.021 C 
BRANCH  12  14
ATOM     13 CL   UNL     1      33.737 -23.689 -16.089  0.00  0.00    -0.082 Cl
ATOM     14  C   UNL     1      35.114 -21.244 -19.597  0.00  0.00    +0.001 C 
ATOM     15  C   UNL     1      36.024 -21.591 -18.611  0.00  0.00    +0.001 C 
ATOM     16  C   UNL     1      33.787 -21.638 -19.522  0.00  0.00    +0.001 C 
ATOM     17  C   UNL     1      35.597 -22.349 -17.522  0.00  0.00    +0.011 C 
ATOM     18  C   UNL     1      33.360 -22.397 -18.433  0.00  0.00    +0.011 C 
ATOM     19  C   UNL     1      34.265 -22.752 -17.432  0.00  0.00    +0.058 C 
ENDBRANCH  12  14
ENDBRANCH   8  11
ENDBRANCH   3   8
BRANCH   2  20
ATOM     20  C   UNL     1      32.209 -13.816 -23.598  0.00  0.00    +0.094 C 
BRANCH  20  22
ATOM     21  N   UNL     1      32.376  -9.675 -22.423  0.00  0.00    -0.307 N 
ATOM     22  C   UNL     1      32.632 -12.516 -22.919  0.00  0.00    +0.023 C 
ATOM     23  C   UNL     1      31.489 -11.947 -22.072  0.00  0.00    +0.023 C 
ATOM     24  C   UNL     1      33.068 -11.475 -23.955  0.00  0.00    +0.023 C 
ATOM     25  C   UNL     1      31.884 -10.625 -21.415  0.00  0.00    +0.091 C 
ATOM     26  C   UNL     1      33.455 -10.151 -23.294  0.00  0.00    +0.091 C 
BRANCH  21  28
ATOM     27  N   UNL     1      32.101  -5.563 -21.514  0.00  0.00    -0.242 NA
ATOM     28  C   UNL     1      32.285  -8.311 -22.121  0.00  0.00    +0.051 C 
ATOM     29  C   UNL     1      32.398  -7.853 -20.800  0.00  0.00    +0.035 C 
ATOM     30  C   UNL     1      32.076  -7.359 -23.131  0.00  0.00    +0.035 C 
ATOM     31  C   UNL     1      32.301  -6.493 -20.553  0.00  0.00    +0.100 C 
ATOM     32  C   UNL     1      31.993  -6.022 -22.782  0.00  0.00    +0.100 C 
ENDBRANCH  21  28
ENDBRANCH  20  22
ENDBRANCH   2  20
TORSDOF 6
ENDMDL
MODEL 5
REMARK VINA RESULT:     -10.0      7.567     14.483
REMARK  Name = 446345
REMARK  6 active torsions:
REMARK  status: ('A' for Active; 'I' for Inactive)
REMARK    1  A    between atoms: N_2  and  C_20
REMARK    2  A    between atoms: N_3  and  S_8
REMARK    3  A    between atoms: S_8  and  C_11
REMARK    4  A    between atoms: C_12  and  C_14
REMARK    5  A    between atoms: C_20  and  C_22
REMARK    6  A    between atoms: N_21  and  C_28
REMARK                            x       y       z     vdW  Elec       q    Type
REMARK                         _______ _______ _______ _____ _____    ______ ____
ROOT
ATOM      1  O   UNL     1      31.054 -11.899 -21.751  0.00  0.00    -0.273 OA
ATOM      2  N   UNL     1      32.557 -12.060 -23.509  0.00  0.00    -0.277 N 
ATOM      3  N   UNL     1      33.441  -9.462 -22.960  0.00  0.00    -0.144 NA
ATOM      4  C   UNL     1      33.673 -11.480 -24.249  0.00  0.00    +0.113 C 
ATOM      5  C   UNL     1      33.586  -9.971 -24.341  0.00  0.00    +0.118 C 
ATOM      6  C   UNL     1      31.894 -11.380 -22.491  0.00  0.00    +0.244 C 
ATOM      7  C   UNL     1      32.171  -9.903 -22.352  0.00  0.00    +0.181 C 
ENDROOT
BRANCH   3   8
ATOM      8  S   UNL     1      33.841  -7.815 -22.726  0.00  0.00    +0.065 S 
ATOM      9  O   UNL     1      35.268  -7.668 -22.953  0.00  0.00    -0.153 OA
ATOM     10  O   UNL     1      33.262  -7.390 -21.463  0.00  0.00    -0.153 OA
BRANCH   8  11
ATOM     11  C   UNL     1      33.008  -6.990 -24.001  0.00  0.00    +0.141 C 
ATOM     12  C   UNL     1      33.643  -5.965 -24.583  0.00  0.00    +0.021 C 
BRANCH  12  14
ATOM     13 CL   UNL     1      31.428  -2.689 -29.050  0.00  0.00    -0.082 Cl
ATOM     14  C   UNL     1      33.097  -5.156 -25.686  0.00  0.00    +0.001 C 
ATOM     15  C   UNL     1      32.040  -4.295 -25.437  0.00  0.00    +0.001 C 
ATOM     16  C   UNL     1      33.648  -5.272 -26.952  0.00  0.00    +0.001 C 
ATOM     17  C   UNL     1      31.522  -3.529 -26.481  0.00  0.00    +0.011 C 
ATOM     18  C   UNL     1      33.130  -4.506 -27.996  0.00  0.00    +0.011 C 
ATOM     19  C   UNL     1      32.067  -3.634 -27.760  0.00  0.00    +0.058 C 
ENDBRANCH  12  14
ENDBRANCH   8  11
ENDBRANCH   3   8
BRANCH   2  20
ATOM     20  C   UNL     1      32.312 -13.480 -23.721  0.00  0.00    +0.094 C 
BRANCH  20  22
ATOM     21  N   UNL     1      34.203 -16.869 -21.852  0.00  0.00    -0.307 N 
ATOM     22  C   UNL     1      33.297 -14.342 -22.936  0.00  0.00    +0.023 C 
ATOM     23  C   UNL     1      33.901 -15.431 -23.829  0.00  0.00    +0.023 C 
ATOM     24  C   UNL     1      32.614 -14.992 -21.729  0.00  0.00    +0.023 C 
ATOM     25  C   UNL     1      34.861 -16.326 -23.048  0.00  0.00    +0.091 C 
ATOM     26  C   UNL     1      33.576 -15.893 -20.954  0.00  0.00    +0.091 C 
BRANCH  21  28
ATOM     27  N   UNL     1      35.720 -20.474 -20.265  0.00  0.00    -0.242 NA
ATOM     28  C   UNL     1      34.707 -18.065 -21.325  0.00  0.00    +0.051 C 
ATOM     29  C   UNL     1      36.087 -18.265 -21.178  0.00  0.00    +0.035 C 
ATOM     30  C   UNL     1      33.845 -19.100 -20.930  0.00  0.00    +0.035 C 
ATOM     31  C   UNL     1      36.535 -19.466 -20.651  0.00  0.00    +0.100 C 
ATOM     32  C   UNL     1      34.393 -20.264 -20.416  0.00  0.00    +0.100 C 
ENDBRANCH  21  28
ENDBRANCH  20  22
ENDBRANCH   2  20
TORSDOF 6
ENDMDL
MODEL 6
REMARK VINA RESULT:      -9.9      3.473      4.132
REMARK  Name = 446345
REMARK  6 active torsions:
REMARK  status: ('A' for Active; 'I' for Inactive)
REMARK    1  A    between atoms: N_2  and  C_20
REMARK    2  A    between atoms: N_3  and  S_8
REMARK    3  A    between atoms: S_8  and  C_11
REMARK    4  A    between atoms: C_12  and  C_14
REMARK    5  A    between atoms: C_20  and  C_22
REMARK    6  A    between atoms: N_21  and  C_28
REMARK                            x       y       z     vdW  Elec       q    Type
REMARK                         _______ _______ _______ _____ _____    ______ ____
ROOT
ATOM      1  O   UNL     1      37.570 -20.342 -20.222  0.00  0.00    -0.273 OA
ATOM      2  N   UNL     1      35.425 -19.718 -20.841  0.00  0.00    -0.277 N 
ATOM      3  N   UNL     1      34.384 -21.562 -19.011  0.00  0.00    -0.144 NA
ATOM      4  C   UNL     1      33.986 -19.812 -20.613  0.00  0.00    +0.113 C 
ATOM      5  C   UNL     1      33.557 -21.199 -20.182  0.00  0.00    +0.118 C 
ATOM      6  C   UNL     1      36.348 -20.506 -20.160  0.00  0.00    +0.244 C 
ATOM      7  C   UNL     1      35.811 -21.675 -19.372  0.00  0.00    +0.181 C 
ENDROOT
BRANCH   3   8
ATOM      8  S   UNL     1      33.770 -22.817 -18.023  0.00  0.00    +0.065 S 
ATOM      9  O   UNL     1      34.478 -22.770 -16.756  0.00  0.00    -0.153 OA
ATOM     10  O   UNL     1      33.769 -24.041 -18.806  0.00  0.00    -0.153 OA
BRANCH   8  11
ATOM     11  C   UNL     1      32.123 -22.364 -17.735  0.00  0.00    +0.141 C 
ATOM     12  C   UNL     1      31.447 -23.069 -16.820  0.00  0.00    +0.021 C 
BRANCH  12  14
ATOM     13 CL   UNL     1      25.774 -22.067 -15.271  0.00  0.00    -0.082 Cl
ATOM     14  C   UNL     1      30.046 -22.822 -16.437  0.00  0.00    +0.001 C 
ATOM     15  C   UNL     1      29.038 -23.063 -17.357  0.00  0.00    +0.001 C 
ATOM     16  C   UNL     1      29.762 -22.352 -15.164  0.00  0.00    +0.001 C 
ATOM     17  C   UNL     1      27.712 -22.829 -16.995  0.00  0.00    +0.011 C 
ATOM     18  C   UNL     1      28.436 -22.118 -14.802  0.00  0.00    +0.011 C 
ATOM     19  C   UNL     1      27.410 -22.357 -15.718  0.00  0.00    +0.058 C 
ENDBRANCH  12  14
ENDBRANCH   8  11
ENDBRANCH   3   8
BRANCH   2  20
ATOM     20  C   UNL     1      35.876 -18.593 -21.649  0.00  0.00    +0.094 C 
BRANCH  20  22
ATOM     21  N   UNL     1      33.717 -14.905 -22.187  0.00  0.00    -0.307 N 
ATOM     22  C   UNL     1      34.750 -17.594 -21.897  0.00  0.00    +0.023 C 
ATOM     23  C   UNL     1      35.031 -16.754 -23.148  0.00  0.00    +0.023 C 
ATOM     24  C   UNL     1      34.563 -16.668 -20.691  0.00  0.00    +0.023 C 
ATOM     25  C   UNL     1      33.930 -15.723 -23.389  0.00  0.00    +0.091 C 
ATOM     26  C   UNL     1      33.465 -15.633 -20.940  0.00  0.00    +0.091 C 
BRANCH  21  28
ATOM     27  N   UNL     1      32.050 -11.064 -22.722  0.00  0.00    -0.242 NA
ATOM     28  C   UNL     1      33.164 -13.630 -22.365  0.00  0.00    +0.051 C 
ATOM     29  C   UNL     1      33.574 -12.805 -23.423  0.00  0.00    +0.035 C 
ATOM     30  C   UNL     1      32.183 -13.139 -21.489  0.00  0.00    +0.035 C 
ATOM     31  C   UNL     1      32.996 -11.553 -23.556  0.00  0.00    +0.100 C 
ATOM     32  C   UNL     1      31.668 -11.873 -21.707  0.00  0.00    +0.100 C 
ENDBRANCH  21  28
ENDBRANCH  20  22
ENDBRANCH   2  20
TORSDOF 6
ENDMDL
MODEL 7
REMARK VINA RESULT:      -9.8      2.019      2.520
REMARK  Name = 446345
REMARK  6 active torsions:
REMARK  status: ('A' for Active; 'I' for Inactive)
REMARK    1  A    between atoms: N_2  and  C_20
REMARK    2  A    between atoms: N_3  and  S_8
REMARK    3  A    between atoms: S_8  and  C_11
REMARK    4  A    between atoms: C_12  and  C_14
REMARK    5  A    between atoms: C_20  and  C_22
REMARK    6  A    between atoms: N_21  and  C_28
REMARK                            x       y       z     vdW  Elec       q    Type
REMARK                         _______ _______ _______ _____ _____    ______ ____
ROOT
ATOM      1  O   UNL     1      33.236 -19.030 -21.469  0.00  0.00    -0.273 OA
ATOM      2  N   UNL     1      35.369 -19.704 -20.859  0.00  0.00    -0.277 N 
ATOM      3  N   UNL     1      34.263 -21.866 -19.468  0.00  0.00    -0.144 NA
ATOM      4  C   UNL     1      36.226 -20.705 -20.234  0.00  0.00    +0.113 C 
ATOM      5  C   UNL     1      35.579 -21.352 -19.028  0.00  0.00    +0.118 C 
ATOM      6  C   UNL     1      33.979 -19.775 -20.823  0.00  0.00    +0.244 C 
ATOM      7  C   UNL     1      33.362 -20.769 -19.871  0.00  0.00    +0.181 C 
ENDROOT
BRANCH   3   8
ATOM      8  S   UNL     1      33.563 -23.072 -18.476  0.00  0.00    +0.065 S 
ATOM      9  O   UNL     1      33.724 -24.348 -19.150  0.00  0.00    -0.153 OA
ATOM     10  O   UNL     1      32.238 -22.619 -18.091  0.00  0.00    -0.153 OA
BRANCH   8  11
ATOM     11  C   UNL     1      34.557 -23.086 -17.057  0.00  0.00    +0.141 C 
ATOM     12  C   UNL     1      33.988 -23.495 -15.917  0.00  0.00    +0.021 C 
BRANCH  12  14
ATOM     13 CL   UNL     1      36.784 -23.848 -10.659  0.00  0.00    -0.082 Cl
ATOM     14  C   UNL     1      34.678 -23.581 -14.618  0.00  0.00    +0.001 C 
ATOM     15  C   UNL     1      35.985 -23.131 -14.512  0.00  0.00    +0.001 C 
ATOM     16  C   UNL     1      34.009 -24.112 -13.527  0.00  0.00    +0.001 C 
ATOM     17  C   UNL     1      36.639 -23.214 -13.283  0.00  0.00    +0.011 C 
ATOM     18  C   UNL     1      34.663 -24.195 -12.298  0.00  0.00    +0.011 C 
ATOM     19  C   UNL     1      35.978 -23.745 -12.176  0.00  0.00    +0.058 C 
ENDBRANCH  12  14
ENDBRANCH   8  11
ENDBRANCH   3   8
BRANCH   2  20
ATOM     20  C   UNL     1      36.031 -18.743 -21.731  0.00  0.00    +0.094 C 
BRANCH  20  22
ATOM     21  N   UNL     1      34.322 -15.556 -24.071  0.00  0.00    -0.307 N 
ATOM     22  C   UNL     1      35.023 -17.845 -22.443  0.00  0.00    +0.023 C 
ATOM     23  C   UNL     1      35.285 -17.820 -23.953  0.00  0.00    +0.023 C 
ATOM     24  C   UNL     1      35.077 -16.417 -21.891  0.00  0.00    +0.023 C 
ATOM     25  C   UNL     1      34.307 -16.895 -24.675  0.00  0.00    +0.091 C 
ATOM     26  C   UNL     1      34.103 -15.493 -22.622  0.00  0.00    +0.091 C 
BRANCH  21  28
ATOM     27  N   UNL     1      33.119 -12.317 -26.495  0.00  0.00    -0.242 NA
ATOM     28  C   UNL     1      33.922 -14.482 -24.876  0.00  0.00    +0.051 C 
ATOM     29  C   UNL     1      33.446 -14.691 -26.178  0.00  0.00    +0.035 C 
ATOM     30  C   UNL     1      33.988 -13.161 -24.403  0.00  0.00    +0.035 C 
ATOM     31  C   UNL     1      33.063 -13.595 -26.934  0.00  0.00    +0.100 C 
ATOM     32  C   UNL     1      33.581 -12.133 -25.238  0.00  0.00    +0.100 C 
ENDBRANCH  21  28
ENDBRANCH  20  22
ENDBRANCH   2  20
TORSDOF 6
ENDMDL
MODEL 8
REMARK VINA RESULT:      -9.8      4.817     11.056
REMARK  Name = 446345
REMARK  6 active torsions:
REMARK  status: ('A' for Active; 'I' for Inactive)
REMARK    1  A    between atoms: N_2  and  C_20
REMARK    2  A    between atoms: N_3  and  S_8
REMARK    3  A    between atoms: S_8  and  C_11
REMARK    4  A    between atoms: C_12  and  C_14
REMARK    5  A    between atoms: C_20  and  C_22
REMARK    6  A    between atoms: N_21  and  C_28
REMARK                            x       y       z     vdW  Elec       q    Type
REMARK                         _______ _______ _______ _____ _____    ______ ____
ROOT
ATOM      1  O   UNL     1      35.215 -16.543 -20.745  0.00  0.00    -0.273 OA
ATOM      2  N   UNL     1      35.634 -18.227 -22.283  0.00  0.00    -0.277 N 
ATOM      3  N   UNL     1      34.535 -16.627 -24.299  0.00  0.00    -0.144 NA
ATOM      4  C   UNL     1      35.649 -18.665 -23.675  0.00  0.00    +0.113 C 
ATOM      5  C   UNL     1      34.498 -18.095 -24.476  0.00  0.00    +0.118 C 
ATOM      6  C   UNL     1      35.104 -17.002 -21.886  0.00  0.00    +0.244 C 
ATOM      7  C   UNL     1      34.279 -16.244 -22.897  0.00  0.00    +0.181 C 
ENDROOT
BRANCH   3   8
ATOM      8  S   UNL     1      33.698 -15.712 -25.479  0.00  0.00    +0.065 S 
ATOM      9  O   UNL     1      32.633 -16.545 -26.012  0.00  0.00    -0.153 OA
ATOM     10  O   UNL     1      34.682 -15.134 -26.377  0.00  0.00    -0.153 OA
BRANCH   8  11
ATOM     11  C   UNL     1      32.970 -14.422 -24.580  0.00  0.00    +0.141 C 
ATOM     12  C   UNL     1      33.654 -13.275 -24.496  0.00  0.00    +0.021 C 
BRANCH  12  14
ATOM     13 CL   UNL     1      31.774  -8.401 -21.614  0.00  0.00    -0.082 Cl
ATOM     14  C   UNL     1      33.191 -12.071 -23.784  0.00  0.00    +0.001 C 
ATOM     15  C   UNL     1      32.270 -12.203 -22.756  0.00  0.00    +0.001 C 
ATOM     16  C   UNL     1      33.682 -10.830 -24.156  0.00  0.00    +0.001 C 
ATOM     17  C   UNL     1      31.831 -11.063 -22.082  0.00  0.00    +0.011 C 
ATOM     18  C   UNL     1      33.243  -9.691 -23.482  0.00  0.00    +0.011 C 
ATOM     19  C   UNL     1      32.317  -9.808 -22.445  0.00  0.00    +0.058 C 
ENDBRANCH  12  14
ENDBRANCH   8  11
ENDBRANCH   3   8
BRANCH   2  20
ATOM     20  C   UNL     1      36.412 -19.026 -21.348  0.00  0.00    +0.094 C 
BRANCH  20  22
ATOM     21  N   UNL     1      34.182 -21.656 -18.765  0.00  0.00    -0.307 N 
ATOM     22  C   UNL     1      35.614 -20.221 -20.832  0.00  0.00    +0.023 C 
ATOM     23  C   UNL     1      34.219 -19.786 -20.369  0.00  0.00    +0.023 C 
ATOM     24  C   UNL     1      36.345 -20.910 -19.676  0.00  0.00    +0.023 C 
ATOM     25  C   UNL     1      33.421 -20.965 -19.815  0.00  0.00    +0.091 C 
ATOM     26  C   UNL     1      35.540 -22.084 -19.120  0.00  0.00    +0.091 C 
BRANCH  21  28
ATOM     27  N   UNL     1      31.993 -23.854 -15.904  0.00  0.00    -0.242 NA
ATOM     28  C   UNL     1      33.455 -22.385 -17.816  0.00  0.00    +0.051 C 
ATOM     29  C   UNL     1      32.053 -22.357 -17.801  0.00  0.00    +0.035 C 
ATOM     30  C   UNL     1      34.108 -23.166 -16.850  0.00  0.00    +0.035 C 
ATOM     31  C   UNL     1      31.380 -23.096 -16.842  0.00  0.00    +0.100 C 
ATOM     32  C   UNL     1      33.345 -23.869 -15.933  0.00  0.00    +0.100 C 
ENDBRANCH  21  28
ENDBRANCH  20  22
ENDBRANCH   2  20
TORSDOF 6
ENDMDL
MODEL 9
REMARK VINA RESULT:      -9.7      3.724      5.566
REMARK  Name = 446345
REMARK  6 active torsions:
REMARK  status: ('A' for Active; 'I' for Inactive)
REMARK    1  A    between atoms: N_2  and  C_20
REMARK    2  A    between atoms: N_3  and  S_8
REMARK    3  A    between atoms: S_8  and  C_11
REMARK    4  A    between atoms: C_12  and  C_14
REMARK    5  A    between atoms: C_20  and  C_22
REMARK    6  A    between atoms: N_21  and  C_28
REMARK                            x       y       z     vdW  Elec       q    Type
REMARK                         _______ _______ _______ _____ _____    ______ ____
ROOT
ATOM      1  O   UNL     1      33.820 -22.820 -19.794  0.00  0.00    -0.273 OA
ATOM      2  N   UNL     1      35.735 -21.950 -18.817  0.00  0.00    -0.277 N 
ATOM      3  N   UNL     1      35.025 -23.167 -16.398  0.00  0.00    -0.144 NA
ATOM      4  C   UNL     1      36.624 -21.889 -17.662  0.00  0.00    +0.113 C 
ATOM      5  C   UNL     1      35.875 -21.957 -16.348  0.00  0.00    +0.118 C 
ATOM      6  C   UNL     1      34.516 -22.624 -18.793  0.00  0.00    +0.244 C 
ATOM      7  C   UNL     1      33.992 -23.059 -17.447  0.00  0.00    +0.181 C 
ENDROOT
BRANCH   3   8
ATOM      8  S   UNL     1      34.486 -23.763 -14.888  0.00  0.00    +0.065 S 
ATOM      9  O   UNL     1      35.281 -23.128 -13.851  0.00  0.00    -0.153 OA
ATOM     10  O   UNL     1      34.434 -25.212 -14.973  0.00  0.00    -0.153 OA
BRANCH   8  11
ATOM     11  C   UNL     1      32.862 -23.175 -14.754  0.00  0.00    +0.141 C 
ATOM     12  C   UNL     1      31.976 -23.616 -15.656  0.00  0.00    +0.021 C 
BRANCH  12  14
ATOM     13 CL   UNL     1      26.218 -22.063 -15.807  0.00  0.00    -0.082 Cl
ATOM     14  C   UNL     1      30.555 -23.233 -15.693  0.00  0.00    +0.001 C 
ATOM     15  C   UNL     1      29.766 -23.649 -16.754  0.00  0.00    +0.001 C 
ATOM     16  C   UNL     1      30.031 -22.463 -14.666  0.00  0.00    +0.001 C 
ATOM     17  C   UNL     1      28.420 -23.286 -16.789  0.00  0.00    +0.011 C 
ATOM     18  C   UNL     1      28.685 -22.100 -14.701  0.00  0.00    +0.011 C 
ATOM     19  C   UNL     1      27.879 -22.512 -15.764  0.00  0.00    +0.058 C 
ENDBRANCH  12  14
ENDBRANCH   8  11
ENDBRANCH   3   8
BRANCH   2  20
ATOM     20  C   UNL     1      36.283 -21.473 -20.078  0.00  0.00    +0.094 C 
BRANCH  20  22
ATOM     21  N   UNL     1      34.943 -17.981 -22.215  0.00  0.00    -0.307 N 
ATOM     22  C   UNL     1      35.814 -20.055 -20.393  0.00  0.00    +0.023 C 
ATOM     23  C   UNL     1      34.415 -20.069 -21.019  0.00  0.00    +0.023 C 
ATOM     24  C   UNL     1      36.791 -19.353 -21.341  0.00  0.00    +0.023 C 
ATOM     25  C   UNL     1      33.947 -18.659 -21.374  0.00  0.00    +0.091 C 
ATOM     26  C   UNL     1      36.315 -17.945 -21.700  0.00  0.00    +0.091 C 
BRANCH  21  28
ATOM     27  N   UNL     1      33.578 -14.862 -24.709  0.00  0.00    -0.242 NA
ATOM     28  C   UNL     1      34.490 -16.946 -23.043  0.00  0.00    +0.051 C 
ATOM     29  C   UNL     1      34.023 -15.739 -22.501  0.00  0.00    +0.035 C 
ATOM     30  C   UNL     1      34.488 -17.085 -24.439  0.00  0.00    +0.035 C 
ATOM     31  C   UNL     1      33.586 -14.745 -23.362  0.00  0.00    +0.100 C 
ATOM     32  C   UNL     1      34.030 -16.032 -25.214  0.00  0.00    +0.100 C 
ENDBRANCH  21  28
ENDBRANCH  20  22
ENDBRANCH   2  20
TORSDOF 6
ENDMDL
