MODEL 1
REMARK VINA RESULT:      -9.5      0.000      0.000
REMARK  Name = 197785
REMARK  5 active torsions:
REMARK  status: ('A' for Active; 'I' for Inactive)
REMARK    1  A    between atoms: C_1  and  C_2
REMARK    2  A    between atoms: C_1  and  C_8
REMARK    3  A    between atoms: C_1  and  C_14
REMARK    4  A    between atoms: C_14  and  C_15
REMARK    5  A    between atoms: C_15  and  N_16
REMARK                            x       y       z     vdW  Elec       q    Type
REMARK                         _______ _______ _______ _____ _____    ______ ____
ROOT
ATOM      1  C   UNL     1      34.875 -18.002 -21.452  0.00  0.00    +0.042 C 
ENDROOT
BRANCH   1   2
ATOM      2  C   UNL     1      34.689 -19.349 -20.759  0.00  0.00    -0.019 C 
ATOM      3  C   UNL     1      35.807 -20.064 -20.389  0.00  0.00    -0.004 C 
ATOM      4  C   UNL     1      33.408 -19.803 -20.526  0.00  0.00    -0.004 C 
ATOM      5  C   UNL     1      35.637 -21.296 -19.755  0.00  0.00    -0.000 C 
ATOM      6  C   UNL     1      33.239 -21.035 -19.892  0.00  0.00    -0.000 C 
ATOM      7  C   UNL     1      34.352 -21.780 -19.507  0.00  0.00    -0.000 C 
ENDBRANCH   1   2
BRANCH   1   8
ATOM      8  C   UNL     1      34.773 -18.142 -22.965  0.00  0.00    -0.019 C 
ATOM      9  C   UNL     1      34.684 -17.000 -23.734  0.00  0.00    -0.004 C 
ATOM     10  C   UNL     1      34.774 -19.405 -23.520  0.00  0.00    -0.004 C 
ATOM     11  C   UNL     1      34.592 -17.127 -25.120  0.00  0.00    -0.000 C 
ATOM     12  C   UNL     1      34.682 -19.532 -24.906  0.00  0.00    -0.000 C 
ATOM     13  C   UNL     1      34.590 -18.393 -25.706  0.00  0.00    -0.000 C 
ENDBRANCH   1   8
BRANCH   1  14
ATOM     14  C   UNL     1      33.969 -16.887 -20.867  0.00  0.00    -0.014 C 
BRANCH  14  15
ATOM     15  C   UNL     1      34.761 -15.638 -20.464  0.00  0.00    -0.077 C 
BRANCH  15  16
ATOM     16  N   UNL     1      34.143 -14.441 -21.036  0.00  0.00    +0.387 N 
ATOM     17  C   UNL     1      32.712 -14.393 -20.704  0.00  0.00    -0.077 C 
ATOM     18  C   UNL     1      34.351 -14.401 -22.491  0.00  0.00    -0.077 C 
ATOM     19  C   UNL     1      32.060 -13.123 -21.253  0.00  0.00    -0.023 C 
ATOM     20  C   UNL     1      33.753 -13.132 -23.099  0.00  0.00    -0.023 C 
ATOM     21  C   UNL     1      32.273 -12.997 -22.757  0.00  0.00    -0.004 C 
ATOM     22  H   UNL     1      34.587 -13.618 -20.632  0.00  0.00    -0.080 HD
ENDBRANCH  15  16
ENDBRANCH  14  15
ENDBRANCH   1  14
TORSDOF 5
ENDMDL
MODEL 2
REMARK VINA RESULT:      -9.5      6.848      9.893
REMARK  Name = 197785
REMARK  5 active torsions:
REMARK  status: ('A' for Active; 'I' for Inactive)
REMARK    1  A    between atoms: C_1  and  C_2
REMARK    2  A    between atoms: C_1  and  C_8
REMARK    3  A    between atoms: C_1  and  C_14
REMARK    4  A    between atoms: C_14  and  C_15
REMARK    5  A    between atoms: C_15  and  N_16
REMARK                            x       y       z     vdW  Elec       q    Type
REMARK                         _______ _______ _______ _____ _____    ______ ____
ROOT
ATOM      1  C   UNL     1      34.870 -23.457 -14.983  0.00  0.00    +0.042 C 
ENDROOT
BRANCH   1   2
ATOM      2  C   UNL     1      36.028 -24.310 -14.471  0.00  0.00    -0.019 C 
ATOM      3  C   UNL     1      36.818 -23.815 -13.457  0.00  0.00    -0.004 C 
ATOM      4  C   UNL     1      36.242 -25.547 -15.042  0.00  0.00    -0.004 C 
ATOM      5  C   UNL     1      37.876 -24.596 -12.989  0.00  0.00    -0.000 C 
ATOM      6  C   UNL     1      37.300 -26.327 -14.573  0.00  0.00    -0.000 C 
ATOM      7  C   UNL     1      38.117 -25.851 -13.548  0.00  0.00    -0.000 C 
ENDBRANCH   1   2
BRANCH   1   8
ATOM      8  C   UNL     1      35.182 -22.869 -16.353  0.00  0.00    -0.019 C 
ATOM      9  C   UNL     1      36.417 -22.292 -16.564  0.00  0.00    -0.004 C 
ATOM     10  C   UNL     1      34.220 -22.933 -17.340  0.00  0.00    -0.004 C 
ATOM     11  C   UNL     1      36.702 -21.754 -17.819  0.00  0.00    -0.000 C 
ATOM     12  C   UNL     1      34.506 -22.395 -18.594  0.00  0.00    -0.000 C 
ATOM     13  C   UNL     1      35.747 -21.806 -18.834  0.00  0.00    -0.000 C 
ENDBRANCH   1   8
BRANCH   1  14
ATOM     14  C   UNL     1      33.501 -24.184 -14.914  0.00  0.00    -0.014 C 
BRANCH  14  15
ATOM     15  C   UNL     1      32.678 -23.769 -13.690  0.00  0.00    -0.077 C 
BRANCH  15  16
ATOM     16  N   UNL     1      31.252 -23.766 -14.018  0.00  0.00    +0.387 N 
ATOM     17  C   UNL     1      30.799 -25.122 -14.359  0.00  0.00    -0.077 C 
ATOM     18  C   UNL     1      30.979 -22.825 -15.115  0.00  0.00    -0.077 C 
ATOM     19  C   UNL     1      29.300 -25.146 -14.657  0.00  0.00    -0.023 C 
ATOM     20  C   UNL     1      29.486 -22.773 -15.438  0.00  0.00    -0.023 C 
ATOM     21  C   UNL     1      28.940 -24.159 -15.763  0.00  0.00    -0.004 C 
ATOM     22  H   UNL     1      30.728 -23.456 -13.201  0.00  0.00    -0.080 HD
ENDBRANCH  15  16
ENDBRANCH  14  15
ENDBRANCH   1  14
TORSDOF 5
ENDMDL
MODEL 3
REMARK VINA RESULT:      -9.4      4.665      9.150
REMARK  Name = 197785
REMARK  5 active torsions:
REMARK  status: ('A' for Active; 'I' for Inactive)
REMARK    1  A    between atoms: C_1  and  C_2
REMARK    2  A    between atoms: C_1  and  C_8
REMARK    3  A    between atoms: C_1  and  C_14
REMARK    4  A    between atoms: C_14  and  C_15
REMARK    5  A    between atoms: C_15  and  N_16
REMARK                            x       y       z     vdW  Elec       q    Type
REMARK                         _______ _______ _______ _____ _____    ______ ____
ROOT
ATOM      1  C   UNL     1      32.540  -9.839 -23.413  0.00  0.00    +0.042 C 
ENDROOT
BRANCH   1   2
ATOM      2  C   UNL     1      32.101 -10.058 -21.968  0.00  0.00    -0.019 C 
ATOM      3  C   UNL     1      32.311  -9.051 -21.052  0.00  0.00    -0.004 C 
ATOM      4  C   UNL     1      31.509 -11.257 -21.630  0.00  0.00    -0.004 C 
ATOM      5  C   UNL     1      31.909  -9.252 -19.730  0.00  0.00    -0.000 C 
ATOM      6  C   UNL     1      31.108 -11.457 -20.308  0.00  0.00    -0.000 C 
ATOM      7  C   UNL     1      31.308 -10.455 -19.359  0.00  0.00    -0.000 C 
ENDBRANCH   1   2
BRANCH   1   8
ATOM      8  C   UNL     1      32.447  -8.370 -23.802  0.00  0.00    -0.019 C 
ATOM      9  C   UNL     1      31.201  -7.791 -23.922  0.00  0.00    -0.004 C 
ATOM     10  C   UNL     1      33.612  -7.664 -24.020  0.00  0.00    -0.004 C 
ATOM     11  C   UNL     1      31.116  -6.445 -24.277  0.00  0.00    -0.000 C 
ATOM     12  C   UNL     1      33.526  -6.318 -24.375  0.00  0.00    -0.000 C 
ATOM     13  C   UNL     1      32.278  -5.708 -24.504  0.00  0.00    -0.000 C 
ENDBRANCH   1   8
BRANCH   1  14
ATOM     14  C   UNL     1      33.914 -10.484 -23.736  0.00  0.00    -0.014 C 
BRANCH  14  15
ATOM     15  C   UNL     1      33.926 -11.194 -25.093  0.00  0.00    -0.077 C 
BRANCH  15  16
ATOM     16  N   UNL     1      33.372 -12.543 -24.962  0.00  0.00    +0.387 N 
ATOM     17  C   UNL     1      34.015 -13.256 -23.850  0.00  0.00    -0.077 C 
ATOM     18  C   UNL     1      33.519 -13.284 -26.223  0.00  0.00    -0.077 C 
ATOM     19  C   UNL     1      33.414 -14.650 -23.667  0.00  0.00    -0.023 C 
ATOM     20  C   UNL     1      32.902 -14.678 -26.119  0.00  0.00    -0.023 C 
ATOM     21  C   UNL     1      33.497 -15.463 -24.955  0.00  0.00    -0.004 C 
ATOM     22  H   UNL     1      32.377 -12.469 -24.755  0.00  0.00    -0.080 HD
ENDBRANCH  15  16
ENDBRANCH  14  15
ENDBRANCH   1  14
TORSDOF 5
ENDMDL
MODEL 4
REMARK VINA RESULT:      -9.3      5.231     10.241
REMARK  Name = 197785
REMARK  5 active torsions:
REMARK  status: ('A' for Active; 'I' for Inactive)
REMARK    1  A    between atoms: C_1  and  C_2
REMARK    2  A    between atoms: C_1  and  C_8
REMARK    3  A    between atoms: C_1  and  C_14
REMARK    4  A    between atoms: C_14  and  C_15
REMARK    5  A    between atoms: C_15  and  N_16
REMARK                            x       y       z     vdW  Elec       q    Type
REMARK                         _______ _______ _______ _____ _____    ______ ____
ROOT
ATOM      1  C   UNL     1      32.945  -9.234 -23.069  0.00  0.00    +0.042 C 
ENDROOT
BRANCH   1   2
ATOM      2  C   UNL     1      32.394  -7.909 -23.591  0.00  0.00    -0.019 C 
ATOM      3  C   UNL     1      31.029  -7.740 -23.659  0.00  0.00    -0.004 C 
ATOM      4  C   UNL     1      33.283  -6.928 -23.976  0.00  0.00    -0.004 C 
ATOM      5  C   UNL     1      30.525  -6.529 -24.136  0.00  0.00    -0.000 C 
ATOM      6  C   UNL     1      32.779  -5.717 -24.453  0.00  0.00    -0.000 C 
ATOM      7  C   UNL     1      31.401  -5.518 -24.533  0.00  0.00    -0.000 C 
ENDBRANCH   1   2
BRANCH   1   8
ATOM      8  C   UNL     1      32.260  -9.644 -21.773  0.00  0.00    -0.019 C 
ATOM      9  C   UNL     1      31.513 -10.804 -21.753  0.00  0.00    -0.004 C 
ATOM     10  C   UNL     1      32.408  -8.844 -20.659  0.00  0.00    -0.004 C 
ATOM     11  C   UNL     1      30.887 -11.180 -20.565  0.00  0.00    -0.000 C 
ATOM     12  C   UNL     1      31.781  -9.221 -19.471  0.00  0.00    -0.000 C 
ATOM     13  C   UNL     1      31.020 -10.388 -19.424  0.00  0.00    -0.000 C 
ENDBRANCH   1   8
BRANCH   1  14
ATOM     14  C   UNL     1      32.962 -10.351 -24.145  0.00  0.00    -0.014 C 
BRANCH  14  15
ATOM     15  C   UNL     1      34.345 -10.992 -24.305  0.00  0.00    -0.077 C 
BRANCH  15  16
ATOM     16  N   UNL     1      34.225 -12.298 -24.954  0.00  0.00    +0.387 N 
ATOM     17  C   UNL     1      33.590 -12.161 -26.272  0.00  0.00    -0.077 C 
ATOM     18  C   UNL     1      33.475 -13.230 -24.098  0.00  0.00    -0.077 C 
ATOM     19  C   UNL     1      33.500 -13.510 -26.985  0.00  0.00    -0.023 C 
ATOM     20  C   UNL     1      33.382 -14.615 -24.740  0.00  0.00    -0.023 C 
ATOM     21  C   UNL     1      32.766 -14.540 -26.133  0.00  0.00    -0.004 C 
ATOM     22  H   UNL     1      35.159 -12.682 -25.093  0.00  0.00    -0.080 HD
ENDBRANCH  15  16
ENDBRANCH  14  15
ENDBRANCH   1  14
TORSDOF 5
ENDMDL
MODEL 5
REMARK VINA RESULT:      -9.3      4.118      9.192
REMARK  Name = 197785
REMARK  5 active torsions:
REMARK  status: ('A' for Active; 'I' for Inactive)
REMARK    1  A    between atoms: C_1  and  C_2
REMARK    2  A    between atoms: C_1  and  C_8
REMARK    3  A    between atoms: C_1  and  C_14
REMARK    4  A    between atoms: C_14  and  C_15
REMARK    5  A    between atoms: C_15  and  N_16
REMARK                            x       y       z     vdW  Elec       q    Type
REMARK                         _______ _______ _______ _____ _____    ______ ____
ROOT
ATOM      1  C   UNL     1      32.345  -9.824 -23.405  0.00  0.00    +0.042 C 
ENDROOT
BRANCH   1   2
ATOM      2  C   UNL     1      31.953  -9.970 -21.937  0.00  0.00    -0.019 C 
ATOM      3  C   UNL     1      31.217 -11.070 -21.554  0.00  0.00    -0.004 C 
ATOM      4  C   UNL     1      32.349  -8.997 -21.045  0.00  0.00    -0.004 C 
ATOM      5  C   UNL     1      30.859 -11.205 -20.212  0.00  0.00    -0.000 C 
ATOM      6  C   UNL     1      31.990  -9.132 -19.703  0.00  0.00    -0.000 C 
ATOM      7  C   UNL     1      31.246 -10.234 -19.287  0.00  0.00    -0.000 C 
ENDBRANCH   1   2
BRANCH   1   8
ATOM      8  C   UNL     1      32.388  -8.359 -23.821  0.00  0.00    -0.019 C 
ATOM      9  C   UNL     1      31.201  -7.672 -23.960  0.00  0.00    -0.004 C 
ATOM     10  C   UNL     1      33.613  -7.767 -24.044  0.00  0.00    -0.004 C 
ATOM     11  C   UNL     1      31.241  -6.330 -24.340  0.00  0.00    -0.000 C 
ATOM     12  C   UNL     1      33.653  -6.425 -24.425  0.00  0.00    -0.000 C 
ATOM     13  C   UNL     1      32.467  -5.707 -24.573  0.00  0.00    -0.000 C 
ENDBRANCH   1   8
BRANCH   1  14
ATOM     14  C   UNL     1      33.627 -10.615 -23.774  0.00  0.00    -0.014 C 
BRANCH  14  15
ATOM     15  C   UNL     1      33.413 -11.561 -24.961  0.00  0.00    -0.077 C 
BRANCH  15  16
ATOM     16  N   UNL     1      33.910 -12.899 -24.636  0.00  0.00    +0.387 N 
ATOM     17  C   UNL     1      33.169 -13.919 -25.390  0.00  0.00    -0.077 C 
ATOM     18  C   UNL     1      33.824 -13.141 -23.188  0.00  0.00    -0.077 C 
ATOM     19  C   UNL     1      33.708 -15.320 -25.100  0.00  0.00    -0.023 C 
ATOM     20  C   UNL     1      34.385 -14.517 -22.825  0.00  0.00    -0.023 C 
ATOM     21  C   UNL     1      33.685 -15.624 -23.606  0.00  0.00    -0.004 C 
ATOM     22  H   UNL     1      34.891 -12.958 -24.907  0.00  0.00    -0.080 HD
ENDBRANCH  15  16
ENDBRANCH  14  15
ENDBRANCH   1  14
TORSDOF 5
ENDMDL
MODEL 6
REMARK VINA RESULT:      -9.3      2.024      6.623
REMARK  Name = 197785
REMARK  5 active torsions:
REMARK  status: ('A' for Active; 'I' for Inactive)
REMARK    1  A    between atoms: C_1  and  C_2
REMARK    2  A    between atoms: C_1  and  C_8
REMARK    3  A    between atoms: C_1  and  C_14
REMARK    4  A    between atoms: C_14  and  C_15
REMARK    5  A    between atoms: C_15  and  N_16
REMARK                            x       y       z     vdW  Elec       q    Type
REMARK                         _______ _______ _______ _____ _____    ______ ____
ROOT
ATOM      1  C   UNL     1      32.960 -14.097 -23.039  0.00  0.00    +0.042 C 
ENDROOT
BRANCH   1   2
ATOM      2  C   UNL     1      32.331 -13.081 -22.089  0.00  0.00    -0.019 C 
ATOM      3  C   UNL     1      31.616 -12.030 -22.622  0.00  0.00    -0.004 C 
ATOM      4  C   UNL     1      32.499 -13.251 -20.732  0.00  0.00    -0.004 C 
ATOM      5  C   UNL     1      31.041 -11.102 -21.753  0.00  0.00    -0.000 C 
ATOM      6  C   UNL     1      31.924 -12.322 -19.864  0.00  0.00    -0.000 C 
ATOM      7  C   UNL     1      31.196 -11.248 -20.374  0.00  0.00    -0.000 C 
ENDBRANCH   1   2
BRANCH   1   8
ATOM      8  C   UNL     1      33.218 -13.485 -24.410  0.00  0.00    -0.019 C 
ATOM      9  C   UNL     1      33.853 -12.263 -24.483  0.00  0.00    -0.004 C 
ATOM     10  C   UNL     1      32.810 -14.172 -25.533  0.00  0.00    -0.004 C 
ATOM     11  C   UNL     1      34.091 -11.703 -25.739  0.00  0.00    -0.000 C 
ATOM     12  C   UNL     1      33.047 -13.612 -26.788  0.00  0.00    -0.000 C 
ATOM     13  C   UNL     1      33.687 -12.377 -26.891  0.00  0.00    -0.000 C 
ENDBRANCH   1   8
BRANCH   1  14
ATOM     14  C   UNL     1      34.196 -14.812 -22.433  0.00  0.00    -0.014 C 
BRANCH  14  15
ATOM     15  C   UNL     1      35.035 -15.535 -23.493  0.00  0.00    -0.077 C 
BRANCH  15  16
ATOM     16  N   UNL     1      35.356 -16.891 -23.043  0.00  0.00    +0.387 N 
ATOM     17  C   UNL     1      34.708 -17.886 -23.909  0.00  0.00    -0.077 C 
ATOM     18  C   UNL     1      34.962 -17.073 -21.639  0.00  0.00    -0.077 C 
ATOM     19  C   UNL     1      35.073 -19.308 -23.484  0.00  0.00    -0.023 C 
ATOM     20  C   UNL     1      35.335 -18.469 -21.138  0.00  0.00    -0.023 C 
ATOM     21  C   UNL     1      34.726 -19.555 -22.019  0.00  0.00    -0.004 C 
ATOM     22  H   UNL     1      36.364 -17.026 -23.108  0.00  0.00    -0.080 HD
ENDBRANCH  15  16
ENDBRANCH  14  15
ENDBRANCH   1  14
TORSDOF 5
ENDMDL
MODEL 7
REMARK VINA RESULT:      -9.3      6.594     10.439
REMARK  Name = 197785
REMARK  5 active torsions:
REMARK  status: ('A' for Active; 'I' for Inactive)
REMARK    1  A    between atoms: C_1  and  C_2
REMARK    2  A    between atoms: C_1  and  C_8
REMARK    3  A    between atoms: C_1  and  C_14
REMARK    4  A    between atoms: C_14  and  C_15
REMARK    5  A    between atoms: C_15  and  N_16
REMARK                            x       y       z     vdW  Elec       q    Type
REMARK                         _______ _______ _______ _____ _____    ______ ____
ROOT
ATOM      1  C   UNL     1      34.438 -23.826 -15.564  0.00  0.00    +0.042 C 
ENDROOT
BRANCH   1   2
ATOM      2  C   UNL     1      34.810 -23.042 -16.819  0.00  0.00    -0.019 C 
ATOM      3  C   UNL     1      33.886 -22.939 -17.835  0.00  0.00    -0.004 C 
ATOM      4  C   UNL     1      36.060 -22.464 -16.893  0.00  0.00    -0.004 C 
ATOM      5  C   UNL     1      34.227 -22.222 -18.983  0.00  0.00    -0.000 C 
ATOM      6  C   UNL     1      36.400 -21.747 -18.041  0.00  0.00    -0.000 C 
ATOM      7  C   UNL     1      35.484 -21.627 -19.085  0.00  0.00    -0.000 C 
ENDBRANCH   1   2
BRANCH   1   8
ATOM      8  C   UNL     1      35.673 -24.180 -14.747  0.00  0.00    -0.019 C 
ATOM      9  C   UNL     1      36.333 -25.361 -15.018  0.00  0.00    -0.004 C 
ATOM     10  C   UNL     1      36.093 -23.310 -13.763  0.00  0.00    -0.004 C 
ATOM     11  C   UNL     1      37.466 -25.685 -14.271  0.00  0.00    -0.000 C 
ATOM     12  C   UNL     1      37.225 -23.635 -13.016  0.00  0.00    -0.000 C 
ATOM     13  C   UNL     1      37.911 -24.822 -13.269  0.00  0.00    -0.000 C 
ENDBRANCH   1   8
BRANCH   1  14
ATOM     14  C   UNL     1      33.315 -23.148 -14.734  0.00  0.00    -0.014 C 
BRANCH  14  15
ATOM     15  C   UNL     1      32.509 -24.153 -13.905  0.00  0.00    -0.077 C 
BRANCH  15  16
ATOM     16  N   UNL     1      31.077 -23.980 -14.155  0.00  0.00    +0.387 N 
ATOM     17  C   UNL     1      30.481 -25.241 -14.619  0.00  0.00    -0.077 C 
ATOM     18  C   UNL     1      30.852 -22.898 -15.124  0.00  0.00    -0.077 C 
ATOM     19  C   UNL     1      28.976 -25.092 -14.839  0.00  0.00    -0.023 C 
ATOM     20  C   UNL     1      29.359 -22.672 -15.361  0.00  0.00    -0.023 C 
ATOM     21  C   UNL     1      28.667 -23.956 -15.808  0.00  0.00    -0.004 C 
ATOM     22  H   UNL     1      30.622 -23.720 -13.281  0.00  0.00    -0.080 HD
ENDBRANCH  15  16
ENDBRANCH  14  15
ENDBRANCH   1  14
TORSDOF 5
ENDMDL
MODEL 8
REMARK VINA RESULT:      -9.2      5.796      9.808
REMARK  Name = 197785
REMARK  5 active torsions:
REMARK  status: ('A' for Active; 'I' for Inactive)
REMARK    1  A    between atoms: C_1  and  C_2
REMARK    2  A    between atoms: C_1  and  C_8
REMARK    3  A    between atoms: C_1  and  C_14
REMARK    4  A    between atoms: C_14  and  C_15
REMARK    5  A    between atoms: C_15  and  N_16
REMARK                            x       y       z     vdW  Elec       q    Type
REMARK                         _______ _______ _______ _____ _____    ______ ____
ROOT
ATOM      1  C   UNL     1      34.167 -23.468 -16.804  0.00  0.00    +0.042 C 
ENDROOT
BRANCH   1   2
ATOM      2  C   UNL     1      32.824 -23.242 -16.117  0.00  0.00    -0.019 C 
ATOM      3  C   UNL     1      32.800 -23.054 -14.753  0.00  0.00    -0.004 C 
ATOM      4  C   UNL     1      31.679 -23.232 -16.887  0.00  0.00    -0.004 C 
ATOM      5  C   UNL     1      31.571 -22.847 -14.125  0.00  0.00    -0.000 C 
ATOM      6  C   UNL     1      30.451 -23.025 -16.258  0.00  0.00    -0.000 C 
ATOM      7  C   UNL     1      30.397 -22.832 -14.878  0.00  0.00    -0.000 C 
ENDBRANCH   1   2
BRANCH   1   8
ATOM      8  C   UNL     1      34.354 -22.517 -17.979  0.00  0.00    -0.019 C 
ATOM      9  C   UNL     1      35.625 -22.073 -18.279  0.00  0.00    -0.004 C 
ATOM     10  C   UNL     1      33.248 -22.131 -18.706  0.00  0.00    -0.004 C 
ATOM     11  C   UNL     1      35.797 -21.202 -19.355  0.00  0.00    -0.000 C 
ATOM     12  C   UNL     1      33.420 -21.261 -19.782  0.00  0.00    -0.000 C 
ATOM     13  C   UNL     1      34.694 -20.796 -20.106  0.00  0.00    -0.000 C 
ENDBRANCH   1   8
BRANCH   1  14
ATOM     14  C   UNL     1      35.363 -23.479 -15.815  0.00  0.00    -0.014 C 
BRANCH  14  15
ATOM     15  C   UNL     1      35.684 -24.885 -15.297  0.00  0.00    -0.077 C 
BRANCH  15  16
ATOM     16  N   UNL     1      36.200 -24.814 -13.930  0.00  0.00    +0.387 N 
ATOM     17  C   UNL     1      36.476 -23.419 -13.557  0.00  0.00    -0.077 C 
ATOM     18  C   UNL     1      37.403 -25.648 -13.790  0.00  0.00    -0.077 C 
ATOM     19  C   UNL     1      36.970 -23.322 -12.113  0.00  0.00    -0.023 C 
ATOM     20  C   UNL     1      37.927 -25.624 -12.354  0.00  0.00    -0.023 C 
ATOM     21  C   UNL     1      38.197 -24.198 -11.887  0.00  0.00    -0.004 C 
ATOM     22  H   UNL     1      35.491 -25.175 -13.293  0.00  0.00    -0.080 HD
ENDBRANCH  15  16
ENDBRANCH  14  15
ENDBRANCH   1  14
TORSDOF 5
ENDMDL
MODEL 9
REMARK VINA RESULT:      -9.2      1.961      7.342
REMARK  Name = 197785
REMARK  5 active torsions:
REMARK  status: ('A' for Active; 'I' for Inactive)
REMARK    1  A    between atoms: C_1  and  C_2
REMARK    2  A    between atoms: C_1  and  C_8
REMARK    3  A    between atoms: C_1  and  C_14
REMARK    4  A    between atoms: C_14  and  C_15
REMARK    5  A    between atoms: C_15  and  N_16
REMARK                            x       y       z     vdW  Elec       q    Type
REMARK                         _______ _______ _______ _____ _____    ______ ____
ROOT
ATOM      1  C   UNL     1      33.480 -13.629 -22.646  0.00  0.00    +0.042 C 
ENDROOT
BRANCH   1   2
ATOM      2  C   UNL     1      33.417 -13.420 -24.157  0.00  0.00    -0.019 C 
ATOM      3  C   UNL     1      32.895 -14.422 -24.944  0.00  0.00    -0.004 C 
ATOM      4  C   UNL     1      33.885 -12.234 -24.681  0.00  0.00    -0.004 C 
ATOM      5  C   UNL     1      32.837 -14.231 -26.325  0.00  0.00    -0.000 C 
ATOM      6  C   UNL     1      33.828 -12.043 -26.062  0.00  0.00    -0.000 C 
ATOM      7  C   UNL     1      33.304 -13.041 -26.883  0.00  0.00    -0.000 C 
ENDBRANCH   1   2
BRANCH   1   8
ATOM      8  C   UNL     1      32.524 -12.694 -21.919  0.00  0.00    -0.019 C 
ATOM      9  C   UNL     1      32.426 -12.779 -20.545  0.00  0.00    -0.004 C 
ATOM     10  C   UNL     1      31.786 -11.791 -22.655  0.00  0.00    -0.004 C 
ATOM     11  C   UNL     1      31.551 -11.921 -19.879  0.00  0.00    -0.000 C 
ATOM     12  C   UNL     1      30.910 -10.934 -21.988  0.00  0.00    -0.000 C 
ATOM     13  C   UNL     1      30.793 -11.000 -20.600  0.00  0.00    -0.000 C 
ENDBRANCH   1   8
BRANCH   1  14
ATOM     14  C   UNL     1      33.332 -15.117 -22.232  0.00  0.00    -0.014 C 
BRANCH  14  15
ATOM     15  C   UNL     1      34.474 -15.591 -21.326  0.00  0.00    -0.077 C 
BRANCH  15  16
ATOM     16  N   UNL     1      34.959 -16.899 -21.768  0.00  0.00    +0.387 N 
ATOM     17  C   UNL     1      34.993 -16.966 -23.236  0.00  0.00    -0.077 C 
ATOM     18  C   UNL     1      34.126 -17.973 -21.207  0.00  0.00    -0.077 C 
ATOM     19  C   UNL     1      35.544 -18.309 -23.715  0.00  0.00    -0.023 C 
ATOM     20  C   UNL     1      34.648 -19.349 -21.619  0.00  0.00    -0.023 C 
ATOM     21  C   UNL     1      34.747 -19.473 -23.136  0.00  0.00    -0.004 C 
ATOM     22  H   UNL     1      35.911 -17.028 -21.426  0.00  0.00    -0.080 HD
ENDBRANCH  15  16
ENDBRANCH  14  15
ENDBRANCH   1  14
TORSDOF 5
ENDMDL
