MODEL 1
REMARK VINA RESULT:     -11.8      0.000      0.000
REMARK  Name = 10113978
REMARK  4 active torsions:
REMARK  status: ('A' for Active; 'I' for Inactive)
REMARK    1  A    between atoms: N_1  and  C_16
REMARK    2  A    between atoms: N_2  and  C_24
REMARK    3  A    between atoms: C_22  and  S_29
REMARK    4  A    between atoms: S_29  and  N_32
REMARK                            x       y       z     vdW  Elec       q    Type
REMARK                         _______ _______ _______ _____ _____    ______ ____
ROOT
ATOM      1  N   UNL     1      34.496 -15.823 -22.338  0.00  0.00    -0.260 N 
ATOM      2  N   UNL     1      33.617 -12.710 -25.785  0.00  0.00    -0.247 N 
ATOM      3  N   UNL     1      34.057 -14.238 -24.060  0.00  0.00    -0.322 NA
ATOM      4  N   UNL     1      33.592 -14.999 -26.299  0.00  0.00    -0.170 NA
ATOM      5  C   UNL     1      34.188 -15.528 -23.689  0.00  0.00    +0.201 C 
ATOM      6  C   UNL     1      34.929 -14.717 -21.476  0.00  0.00    +0.120 C 
ATOM      7  C   UNL     1      33.763 -14.048 -25.360  0.00  0.00    +0.150 C 
ATOM      8  C   UNL     1      34.038 -16.594 -24.552  0.00  0.00    +0.070 C 
ATOM      9  C   UNL     1      33.737 -16.266 -25.859  0.00  0.00    +0.116 C 
ATOM     10  H   UNL     1      33.321 -12.619 -26.720  0.00  0.00    +0.165 HD
ENDROOT
BRANCH   1  16
ATOM     11  N   UNL     1      33.801 -21.004 -19.880  0.00  0.00    -0.253 N 
ATOM     12  N   UNL     1      32.992 -19.979 -20.210  0.00  0.00    -0.170 NA
ATOM     13  C   UNL     1      35.160 -19.572 -20.750  0.00  0.00    +0.033 A 
ATOM     14  C   UNL     1      33.810 -19.062 -20.759  0.00  0.00    +0.103 A 
ATOM     15  C   UNL     1      35.118 -20.813 -20.182  0.00  0.00    +0.057 A 
ATOM     16  C   UNL     1      34.669 -17.119 -21.779  0.00  0.00    +0.055 C 
ATOM     17  C   UNL     1      33.528 -17.790 -21.288  0.00  0.00    +0.036 C 
ATOM     18  C   UNL     1      36.301 -18.937 -21.225  0.00  0.00    +0.004 C 
ATOM     19  C   UNL     1      35.990 -17.667 -21.749  0.00  0.00    +0.015 C 
ATOM     20  C   UNL     1      36.158 -21.819 -19.899  0.00  0.00    +0.052 C 
ATOM     21  C   UNL     1      33.223 -22.173 -19.257  0.00  0.00    +0.153 C 
ENDBRANCH   1  16
BRANCH   2  24
ATOM     22  C   UNL     1      33.074  -9.807 -23.548  0.00  0.00    +0.119 C 
ATOM     23  C   UNL     1      34.209  -9.043 -23.824  0.00  0.00    -0.003 C 
ATOM     24  C   UNL     1      33.810 -11.514 -25.145  0.00  0.00    +0.059 C 
ATOM     25  C   UNL     1      32.879 -11.025 -24.198  0.00  0.00    +0.035 C 
ATOM     26  C   UNL     1      35.147  -9.498 -24.752  0.00  0.00    -0.002 C 
ATOM     27  C   UNL     1      34.950 -10.715 -25.403  0.00  0.00    +0.015 C 
ATOM     28  C   UNL     1      34.450  -7.735 -23.145  0.00  0.00    +0.032 C 
BRANCH  22  29
ATOM     29  S   UNL     1      31.879  -9.267 -22.390  0.00  0.00    +0.057 S 
ATOM     30  O   UNL     1      32.558  -8.980 -21.135  0.00  0.00    -0.153 OA
ATOM     31  O   UNL     1      31.056  -8.246 -23.021  0.00  0.00    -0.153 OA
BRANCH  29  32
ATOM     32  N   UNL     1      30.948 -10.686 -22.204  0.00  0.00    -0.203 NA
ATOM     33  H   UNL     1      31.509 -11.402 -21.741  0.00  0.00    +0.144 HD
ATOM     34  H   UNL     1      30.655 -11.024 -23.121  0.00  0.00    +0.144 HD
ENDBRANCH  29  32
ENDBRANCH  22  29
ENDBRANCH   2  24
TORSDOF 4
ENDMDL
MODEL 2
REMARK VINA RESULT:     -10.9      3.026      5.210
REMARK  Name = 10113978
REMARK  4 active torsions:
REMARK  status: ('A' for Active; 'I' for Inactive)
REMARK    1  A    between atoms: N_1  and  C_16
REMARK    2  A    between atoms: N_2  and  C_24
REMARK    3  A    between atoms: C_22  and  S_29
REMARK    4  A    between atoms: S_29  and  N_32
REMARK                            x       y       z     vdW  Elec       q    Type
REMARK                         _______ _______ _______ _____ _____    ______ ____
ROOT
ATOM      1  N   UNL     1      33.501 -12.272 -23.700  0.00  0.00    -0.260 N 
ATOM      2  N   UNL     1      31.628  -8.331 -21.884  0.00  0.00    -0.247 N 
ATOM      3  N   UNL     1      32.565 -10.274 -22.802  0.00  0.00    -0.322 NA
ATOM      4  N   UNL     1      31.264 -10.367 -20.776  0.00  0.00    -0.170 NA
ATOM      5  C   UNL     1      32.739 -11.609 -22.707  0.00  0.00    +0.201 C 
ATOM      6  C   UNL     1      33.830 -11.528 -24.923  0.00  0.00    +0.120 C 
ATOM      7  C   UNL     1      31.829  -9.726 -21.818  0.00  0.00    +0.150 C 
ATOM      8  C   UNL     1      32.213 -12.380 -21.692  0.00  0.00    +0.070 C 
ATOM      9  C   UNL     1      31.477 -11.699 -20.744  0.00  0.00    +0.116 C 
ATOM     10  H   UNL     1      31.157  -7.958 -21.103  0.00  0.00    +0.165 HD
ENDROOT
BRANCH   1  16
ATOM     11  N   UNL     1      35.110 -17.711 -22.607  0.00  0.00    -0.253 N 
ATOM     12  N   UNL     1      35.129 -16.547 -21.930  0.00  0.00    -0.170 NA
ATOM     13  C   UNL     1      34.250 -16.316 -24.011  0.00  0.00    +0.033 A 
ATOM     14  C   UNL     1      34.597 -15.649 -22.779  0.00  0.00    +0.103 A 
ATOM     15  C   UNL     1      34.591 -17.631 -23.866  0.00  0.00    +0.057 A 
ATOM     16  C   UNL     1      33.781 -13.664 -23.754  0.00  0.00    +0.055 C 
ATOM     17  C   UNL     1      34.363 -14.272 -22.621  0.00  0.00    +0.036 C 
ATOM     18  C   UNL     1      33.677 -15.748 -25.142  0.00  0.00    +0.004 C 
ATOM     19  C   UNL     1      33.454 -14.369 -24.955  0.00  0.00    +0.015 C 
ATOM     20  C   UNL     1      34.485 -18.796 -24.764  0.00  0.00    +0.052 C 
ATOM     21  C   UNL     1      35.622 -18.899 -21.962  0.00  0.00    +0.153 C 
ENDBRANCH   1  16
BRANCH   2  24
ATOM     22  C   UNL     1      31.762  -5.133 -23.751  0.00  0.00    +0.119 C 
ATOM     23  C   UNL     1      32.652  -5.461 -24.774  0.00  0.00    -0.003 C 
ATOM     24  C   UNL     1      31.962  -7.395 -22.827  0.00  0.00    +0.059 C 
ATOM     25  C   UNL     1      31.423  -6.086 -22.791  0.00  0.00    +0.035 C 
ATOM     26  C   UNL     1      33.201  -6.742 -24.838  0.00  0.00    -0.002 C 
ATOM     27  C   UNL     1      32.860  -7.695 -23.878  0.00  0.00    +0.015 C 
ATOM     28  C   UNL     1      33.037  -4.464 -25.818  0.00  0.00    +0.032 C 
BRANCH  22  29
ATOM     29  S   UNL     1      31.055  -3.536 -23.642  0.00  0.00    +0.057 S 
ATOM     30  O   UNL     1      32.134  -2.572 -23.480  0.00  0.00    -0.153 OA
ATOM     31  O   UNL     1      30.100  -3.381 -24.727  0.00  0.00    -0.153 OA
BRANCH  29  32
ATOM     32  N   UNL     1      30.201  -3.664 -22.169  0.00  0.00    -0.203 NA
ATOM     33  H   UNL     1      29.825  -4.607 -22.074  0.00  0.00    +0.144 HD
ATOM     34  H   UNL     1      29.434  -2.990 -22.161  0.00  0.00    +0.144 HD
ENDBRANCH  29  32
ENDBRANCH  22  29
ENDBRANCH   2  24
TORSDOF 4
ENDMDL
MODEL 3
REMARK VINA RESULT:     -10.2      7.010     12.314
REMARK  Name = 10113978
REMARK  4 active torsions:
REMARK  status: ('A' for Active; 'I' for Inactive)
REMARK    1  A    between atoms: N_1  and  C_16
REMARK    2  A    between atoms: N_2  and  C_24
REMARK    3  A    between atoms: C_22  and  S_29
REMARK    4  A    between atoms: S_29  and  N_32
REMARK                            x       y       z     vdW  Elec       q    Type
REMARK                         _______ _______ _______ _____ _____    ______ ____
ROOT
ATOM      1  N   UNL     1      35.520 -20.208 -20.221  0.00  0.00    -0.260 N 
ATOM      2  N   UNL     1      34.404 -23.363 -16.883  0.00  0.00    -0.247 N 
ATOM      3  N   UNL     1      34.979 -21.799 -18.534  0.00  0.00    -0.322 NA
ATOM      4  N   UNL     1      32.679 -22.415 -18.161  0.00  0.00    -0.170 NA
ATOM      5  C   UNL     1      34.559 -20.968 -19.510  0.00  0.00    +0.201 C 
ATOM      6  C   UNL     1      36.885 -20.153 -19.684  0.00  0.00    +0.120 C 
ATOM      7  C   UNL     1      34.001 -22.482 -17.909  0.00  0.00    +0.150 C 
ATOM      8  C   UNL     1      33.236 -20.807 -19.864  0.00  0.00    +0.070 C 
ATOM      9  C   UNL     1      32.330 -21.564 -19.148  0.00  0.00    +0.116 C 
ATOM     10  H   UNL     1      33.669 -23.904 -16.511  0.00  0.00    +0.165 HD
ENDROOT
BRANCH   1  16
ATOM     11  N   UNL     1      34.426 -15.537 -23.439  0.00  0.00    -0.253 N 
ATOM     12  N   UNL     1      34.622 -15.779 -22.129  0.00  0.00    -0.170 NA
ATOM     13  C   UNL     1      34.753 -17.670 -23.381  0.00  0.00    +0.033 A 
ATOM     14  C   UNL     1      34.830 -17.106 -22.054  0.00  0.00    +0.103 A 
ATOM     15  C   UNL     1      34.494 -16.640 -24.240  0.00  0.00    +0.057 A 
ATOM     16  C   UNL     1      35.253 -19.290 -21.273  0.00  0.00    +0.055 C 
ATOM     17  C   UNL     1      35.089 -17.927 -20.942  0.00  0.00    +0.036 C 
ATOM     18  C   UNL     1      34.910 -19.003 -23.738  0.00  0.00    +0.004 C 
ATOM     19  C   UNL     1      35.168 -19.801 -22.606  0.00  0.00    +0.015 C 
ATOM     20  C   UNL     1      34.308 -16.581 -25.702  0.00  0.00    +0.052 C 
ATOM     21  C   UNL     1      34.172 -14.180 -23.865  0.00  0.00    +0.153 C 
ENDBRANCH   1  16
BRANCH   2  24
ATOM     22  C   UNL     1      37.118 -25.072 -15.028  0.00  0.00    +0.119 C 
ATOM     23  C   UNL     1      38.135 -24.120 -15.111  0.00  0.00    -0.003 C 
ATOM     24  C   UNL     1      35.621 -23.610 -16.305  0.00  0.00    +0.059 C 
ATOM     25  C   UNL     1      35.880 -24.820 -15.618  0.00  0.00    +0.035 C 
ATOM     26  C   UNL     1      37.913 -22.917 -15.782  0.00  0.00    -0.002 C 
ATOM     27  C   UNL     1      36.674 -22.666 -16.370  0.00  0.00    +0.015 C 
ATOM     28  C   UNL     1      39.474 -24.358 -14.492  0.00  0.00    +0.032 C 
BRANCH  22  29
ATOM     29  S   UNL     1      37.364 -26.591 -14.195  0.00  0.00    +0.057 S 
ATOM     30  O   UNL     1      38.659 -27.122 -14.591  0.00  0.00    -0.153 OA
ATOM     31  O   UNL     1      37.059 -26.396 -12.786  0.00  0.00    -0.153 OA
BRANCH  29  32
ATOM     32  N   UNL     1      36.135 -27.544 -14.898  0.00  0.00    -0.203 NA
ATOM     33  H   UNL     1      35.957 -27.223 -15.850  0.00  0.00    +0.144 HD
ATOM     34  H   UNL     1      35.281 -27.461 -14.346  0.00  0.00    +0.144 HD
ENDBRANCH  29  32
ENDBRANCH  22  29
ENDBRANCH   2  24
TORSDOF 4
ENDMDL
MODEL 4
REMARK VINA RESULT:      -9.9      5.526     10.724
REMARK  Name = 10113978
REMARK  4 active torsions:
REMARK  status: ('A' for Active; 'I' for Inactive)
REMARK    1  A    between atoms: N_1  and  C_16
REMARK    2  A    between atoms: N_2  and  C_24
REMARK    3  A    between atoms: C_22  and  S_29
REMARK    4  A    between atoms: S_29  and  N_32
REMARK                            x       y       z     vdW  Elec       q    Type
REMARK                         _______ _______ _______ _____ _____    ______ ____
ROOT
ATOM      1  N   UNL     1      34.260 -17.461 -21.488  0.00  0.00    -0.260 N 
ATOM      2  N   UNL     1      36.561 -21.122 -19.579  0.00  0.00    -0.247 N 
ATOM      3  N   UNL     1      35.401 -19.312 -20.515  0.00  0.00    -0.322 NA
ATOM      4  N   UNL     1      37.694 -19.753 -21.110  0.00  0.00    -0.170 NA
ATOM      5  C   UNL     1      35.427 -18.253 -21.350  0.00  0.00    +0.201 C 
ATOM      6  C   UNL     1      33.006 -17.987 -20.936  0.00  0.00    +0.120 C 
ATOM      7  C   UNL     1      36.551 -20.008 -20.444  0.00  0.00    +0.150 C 
ATOM      8  C   UNL     1      36.533 -17.886 -22.089  0.00  0.00    +0.070 C 
ATOM      9  C   UNL     1      37.650 -18.681 -21.928  0.00  0.00    +0.116 C 
ATOM     10  H   UNL     1      37.443 -21.552 -19.492  0.00  0.00    +0.165 HD
ENDROOT
BRANCH   1  16
ATOM     11  N   UNL     1      33.453 -13.783 -25.869  0.00  0.00    -0.253 N 
ATOM     12  N   UNL     1      33.462 -15.122 -25.725  0.00  0.00    -0.170 NA
ATOM     13  C   UNL     1      33.864 -14.045 -23.766  0.00  0.00    +0.033 A 
ATOM     14  C   UNL     1      33.716 -15.324 -24.420  0.00  0.00    +0.103 A 
ATOM     15  C   UNL     1      33.690 -13.084 -24.721  0.00  0.00    +0.057 A 
ATOM     16  C   UNL     1      34.115 -16.317 -22.320  0.00  0.00    +0.055 C 
ATOM     17  C   UNL     1      33.842 -16.519 -23.690  0.00  0.00    +0.036 C 
ATOM     18  C   UNL     1      34.132 -13.814 -22.423  0.00  0.00    +0.004 C 
ATOM     19  C   UNL     1      34.252 -15.027 -21.717  0.00  0.00    +0.015 C 
ATOM     20  C   UNL     1      33.721 -11.610 -24.672  0.00  0.00    +0.052 C 
ATOM     21  C   UNL     1      33.203 -13.225 -27.178  0.00  0.00    +0.153 C 
ENDBRANCH   1  16
BRANCH   2  24
ATOM     22  C   UNL     1      34.860 -22.936 -16.832  0.00  0.00    +0.119 C 
ATOM     23  C   UNL     1      33.547 -22.959 -17.302  0.00  0.00    -0.003 C 
ATOM     24  C   UNL     1      35.578 -21.722 -18.836  0.00  0.00    +0.059 C 
ATOM     25  C   UNL     1      35.860 -22.325 -17.587  0.00  0.00    +0.035 C 
ATOM     26  C   UNL     1      33.235 -22.373 -18.529  0.00  0.00    -0.002 C 
ATOM     27  C   UNL     1      34.236 -21.763 -19.285  0.00  0.00    +0.015 C 
ATOM     28  C   UNL     1      32.451 -23.604 -16.518  0.00  0.00    +0.032 C 
BRANCH  22  29
ATOM     29  S   UNL     1      35.286 -23.661 -15.297  0.00  0.00    +0.057 S 
ATOM     30  O   UNL     1      34.341 -23.191 -14.294  0.00  0.00    -0.153 OA
ATOM     31  O   UNL     1      35.477 -25.089 -15.501  0.00  0.00    -0.153 OA
BRANCH  29  32
ATOM     32  N   UNL     1      36.805 -22.936 -15.010  0.00  0.00    -0.203 NA
ATOM     33  H   UNL     1      37.529 -23.655 -15.005  0.00  0.00    +0.144 HD
ATOM     34  H   UNL     1      36.790 -22.461 -14.107  0.00  0.00    +0.144 HD
ENDBRANCH  29  32
ENDBRANCH  22  29
ENDBRANCH   2  24
TORSDOF 4
ENDMDL
MODEL 5
REMARK VINA RESULT:      -9.7      1.615      2.088
REMARK  Name = 10113978
REMARK  4 active torsions:
REMARK  status: ('A' for Active; 'I' for Inactive)
REMARK    1  A    between atoms: N_1  and  C_16
REMARK    2  A    between atoms: N_2  and  C_24
REMARK    3  A    between atoms: C_22  and  S_29
REMARK    4  A    between atoms: S_29  and  N_32
REMARK                            x       y       z     vdW  Elec       q    Type
REMARK                         _______ _______ _______ _____ _____    ______ ____
ROOT
ATOM      1  N   UNL     1      34.048 -16.158 -21.660  0.00  0.00    -0.260 N 
ATOM      2  N   UNL     1      33.115 -12.726 -24.773  0.00  0.00    -0.247 N 
ATOM      3  N   UNL     1      33.574 -14.415 -23.211  0.00  0.00    -0.322 NA
ATOM      4  N   UNL     1      33.707 -14.849 -25.579  0.00  0.00    -0.170 NA
ATOM      5  C   UNL     1      33.928 -15.698 -22.994  0.00  0.00    +0.201 C 
ATOM      6  C   UNL     1      34.053 -15.156 -20.587  0.00  0.00    +0.120 C 
ATOM      7  C   UNL     1      33.484 -14.062 -24.508  0.00  0.00    +0.150 C 
ATOM      8  C   UNL     1      34.184 -16.605 -24.002  0.00  0.00    +0.070 C 
ATOM      9  C   UNL     1      34.057 -16.119 -25.288  0.00  0.00    +0.116 C 
ATOM     10  H   UNL     1      32.978 -12.533 -25.729  0.00  0.00    +0.165 HD
ENDROOT
BRANCH   1  16
ATOM     11  N   UNL     1      34.122 -21.634 -19.822  0.00  0.00    -0.253 N 
ATOM     12  N   UNL     1      33.172 -20.704 -20.039  0.00  0.00    -0.170 NA
ATOM     13  C   UNL     1      35.255 -19.931 -20.511  0.00  0.00    +0.033 A 
ATOM     14  C   UNL     1      33.846 -19.623 -20.471  0.00  0.00    +0.103 A 
ATOM     15  C   UNL     1      35.396 -21.223 -20.090  0.00  0.00    +0.057 A 
ATOM     16  C   UNL     1      34.409 -17.472 -21.253  0.00  0.00    +0.055 C 
ATOM     17  C   UNL     1      33.380 -18.352 -20.852  0.00  0.00    +0.036 C 
ATOM     18  C   UNL     1      36.289 -19.089 -20.900  0.00  0.00    +0.004 C 
ATOM     19  C   UNL     1      35.795 -17.825 -21.275  0.00  0.00    +0.015 C 
ATOM     20  C   UNL     1      36.572 -22.096 -19.916  0.00  0.00    +0.052 C 
ATOM     21  C   UNL     1      33.723 -22.938 -19.344  0.00  0.00    +0.153 C 
ENDBRANCH   1  16
BRANCH   2  24
ATOM     22  C   UNL     1      33.304  -9.294 -23.391  0.00  0.00    +0.119 C 
ATOM     23  C   UNL     1      32.488  -9.416 -22.266  0.00  0.00    -0.003 C 
ATOM     24  C   UNL     1      32.910 -11.646 -23.955  0.00  0.00    +0.059 C 
ATOM     25  C   UNL     1      33.510 -10.393 -24.224  0.00  0.00    +0.035 C 
ATOM     26  C   UNL     1      31.882 -10.638 -21.973  0.00  0.00    -0.002 C 
ATOM     27  C   UNL     1      32.090 -11.737 -22.805  0.00  0.00    +0.015 C 
ATOM     28  C   UNL     1      32.245  -8.258 -21.353  0.00  0.00    +0.032 C 
BRANCH  22  29
ATOM     29  S   UNL     1      34.079  -7.776 -23.788  0.00  0.00    +0.057 S 
ATOM     30  O   UNL     1      33.042  -6.800 -24.087  0.00  0.00    -0.153 OA
ATOM     31  O   UNL     1      35.075  -7.489 -22.767  0.00  0.00    -0.153 OA
BRANCH  29  32
ATOM     32  N   UNL     1      34.880  -8.194 -25.236  0.00  0.00    -0.203 NA
ATOM     33  H   UNL     1      34.194  -8.492 -25.931  0.00  0.00    +0.144 HD
ATOM     34  H   UNL     1      35.534  -8.956 -25.057  0.00  0.00    +0.144 HD
ENDBRANCH  29  32
ENDBRANCH  22  29
ENDBRANCH   2  24
TORSDOF 4
ENDMDL
MODEL 6
REMARK VINA RESULT:      -9.6      4.490     10.841
REMARK  Name = 10113978
REMARK  4 active torsions:
REMARK  status: ('A' for Active; 'I' for Inactive)
REMARK    1  A    between atoms: N_1  and  C_16
REMARK    2  A    between atoms: N_2  and  C_24
REMARK    3  A    between atoms: C_22  and  S_29
REMARK    4  A    between atoms: S_29  and  N_32
REMARK                            x       y       z     vdW  Elec       q    Type
REMARK                         _______ _______ _______ _____ _____    ______ ____
ROOT
ATOM      1  N   UNL     1      32.290  -9.437 -23.109  0.00  0.00    -0.260 N 
ATOM      2  N   UNL     1      32.342 -13.715 -21.100  0.00  0.00    -0.247 N 
ATOM      3  N   UNL     1      32.325 -11.601 -22.116  0.00  0.00    -0.322 NA
ATOM      4  N   UNL     1      31.558 -11.892 -19.849  0.00  0.00    -0.170 NA
ATOM      5  C   UNL     1      32.044 -10.286 -22.003  0.00  0.00    +0.201 C 
ATOM      6  C   UNL     1      33.088  -9.970 -24.219  0.00  0.00    +0.120 C 
ATOM      7  C   UNL     1      32.062 -12.335 -21.018  0.00  0.00    +0.150 C 
ATOM      8  C   UNL     1      31.526  -9.708 -20.862  0.00  0.00    +0.070 C 
ATOM      9  C   UNL     1      31.300 -10.568 -19.806  0.00  0.00    +0.116 C 
ATOM     10  H   UNL     1      32.057 -14.228 -20.308  0.00  0.00    +0.165 HD
ENDROOT
BRANCH   1  16
ATOM     11  N   UNL     1      30.915  -4.039 -24.641  0.00  0.00    -0.253 N 
ATOM     12  N   UNL     1      30.897  -5.245 -25.241  0.00  0.00    -0.170 NA
ATOM     13  C   UNL     1      31.654  -5.362 -23.103  0.00  0.00    +0.033 A 
ATOM     14  C   UNL     1      31.354  -6.098 -24.307  0.00  0.00    +0.103 A 
ATOM     15  C   UNL     1      31.363  -4.050 -23.352  0.00  0.00    +0.057 A 
ATOM     16  C   UNL     1      32.053  -8.037 -23.162  0.00  0.00    +0.055 C 
ATOM     17  C   UNL     1      31.552  -7.489 -24.363  0.00  0.00    +0.036 C 
ATOM     18  C   UNL     1      32.147  -5.869 -21.908  0.00  0.00    +0.004 C 
ATOM     19  C   UNL     1      32.336  -7.263 -21.992  0.00  0.00    +0.015 C 
ATOM     20  C   UNL     1      31.456  -2.832 -22.526  0.00  0.00    +0.052 C 
ATOM     21  C   UNL     1      30.475  -2.883 -25.388  0.00  0.00    +0.153 C 
ENDBRANCH   1  16
BRANCH   2  24
ATOM     22  C   UNL     1      34.237 -16.447 -22.737  0.00  0.00    +0.119 C 
ATOM     23  C   UNL     1      34.161 -16.057 -24.074  0.00  0.00    -0.003 C 
ATOM     24  C   UNL     1      32.936 -14.479 -22.070  0.00  0.00    +0.059 C 
ATOM     25  C   UNL     1      33.631 -15.669 -21.749  0.00  0.00    +0.035 C 
ATOM     26  C   UNL     1      33.482 -14.889 -24.424  0.00  0.00    -0.002 C 
ATOM     27  C   UNL     1      32.878 -14.112 -23.436  0.00  0.00    +0.015 C 
ATOM     28  C   UNL     1      34.797 -16.867 -25.157  0.00  0.00    +0.032 C 
BRANCH  22  29
ATOM     29  S   UNL     1      35.080 -17.905 -22.264  0.00  0.00    +0.057 S 
ATOM     30  O   UNL     1      34.172 -19.030 -22.432  0.00  0.00    -0.153 OA
ATOM     31  O   UNL     1      36.380 -17.916 -22.918  0.00  0.00    -0.153 OA
BRANCH  29  32
ATOM     32  N   UNL     1      35.305 -17.619 -20.596  0.00  0.00    -0.203 NA
ATOM     33  H   UNL     1      34.476 -17.162 -20.214  0.00  0.00    +0.144 HD
ATOM     34  H   UNL     1      36.118 -17.017 -20.460  0.00  0.00    +0.144 HD
ENDBRANCH  29  32
ENDBRANCH  22  29
ENDBRANCH   2  24
TORSDOF 4
ENDMDL
MODEL 7
REMARK VINA RESULT:      -9.4      1.559      1.846
REMARK  Name = 10113978
REMARK  4 active torsions:
REMARK  status: ('A' for Active; 'I' for Inactive)
REMARK    1  A    between atoms: N_1  and  C_16
REMARK    2  A    between atoms: N_2  and  C_24
REMARK    3  A    between atoms: C_22  and  S_29
REMARK    4  A    between atoms: S_29  and  N_32
REMARK                            x       y       z     vdW  Elec       q    Type
REMARK                         _______ _______ _______ _____ _____    ______ ____
ROOT
ATOM      1  N   UNL     1      34.024 -16.065 -21.643  0.00  0.00    -0.260 N 
ATOM      2  N   UNL     1      33.104 -12.570 -24.691  0.00  0.00    -0.247 N 
ATOM      3  N   UNL     1      33.557 -14.290 -23.161  0.00  0.00    -0.322 NA
ATOM      4  N   UNL     1      33.684 -14.681 -25.536  0.00  0.00    -0.170 NA
ATOM      5  C   UNL     1      33.905 -15.580 -22.969  0.00  0.00    +0.201 C 
ATOM      6  C   UNL     1      34.036 -15.083 -20.552  0.00  0.00    +0.120 C 
ATOM      7  C   UNL     1      33.466 -13.913 -24.451  0.00  0.00    +0.150 C 
ATOM      8  C   UNL     1      34.155 -16.468 -23.994  0.00  0.00    +0.070 C 
ATOM      9  C   UNL     1      34.028 -15.958 -25.270  0.00  0.00    +0.116 C 
ATOM     10  H   UNL     1      32.967 -12.359 -25.643  0.00  0.00    +0.165 HD
ENDROOT
BRANCH   1  16
ATOM     11  N   UNL     1      34.078 -21.563 -19.873  0.00  0.00    -0.253 N 
ATOM     12  N   UNL     1      33.134 -20.619 -20.054  0.00  0.00    -0.170 NA
ATOM     13  C   UNL     1      35.213 -19.866 -20.571  0.00  0.00    +0.033 A 
ATOM     14  C   UNL     1      33.809 -19.541 -20.491  0.00  0.00    +0.103 A 
ATOM     15  C   UNL     1      35.349 -21.164 -20.169  0.00  0.00    +0.057 A 
ATOM     16  C   UNL     1      34.379 -17.387 -21.262  0.00  0.00    +0.055 C 
ATOM     17  C   UNL     1      33.350 -18.260 -20.844  0.00  0.00    +0.036 C 
ATOM     18  C   UNL     1      36.248 -19.032 -20.976  0.00  0.00    +0.004 C 
ATOM     19  C   UNL     1      35.760 -17.757 -21.324  0.00  0.00    +0.015 C 
ATOM     20  C   UNL     1      36.518 -22.054 -20.036  0.00  0.00    +0.052 C 
ATOM     21  C   UNL     1      33.674 -22.868 -19.400  0.00  0.00    +0.153 C 
ENDBRANCH   1  16
BRANCH   2  24
ATOM     22  C   UNL     1      32.206 -10.598 -21.686  0.00  0.00    +0.119 C 
ATOM     23  C   UNL     1      32.498  -9.305 -22.120  0.00  0.00    -0.003 C 
ATOM     24  C   UNL     1      32.906 -11.505 -23.852  0.00  0.00    +0.059 C 
ATOM     25  C   UNL     1      32.409 -11.682 -22.539  0.00  0.00    +0.035 C 
ATOM     26  C   UNL     1      32.990  -9.096 -23.410  0.00  0.00    -0.002 C 
ATOM     27  C   UNL     1      33.191 -10.181 -24.262  0.00  0.00    +0.015 C 
ATOM     28  C   UNL     1      32.294  -8.121 -21.232  0.00  0.00    +0.032 C 
BRANCH  22  29
ATOM     29  S   UNL     1      31.588 -10.895 -20.076  0.00  0.00    +0.057 S 
ATOM     30  O   UNL     1      30.202 -10.455 -20.033  0.00  0.00    -0.153 OA
ATOM     31  O   UNL     1      31.931 -12.257 -19.696  0.00  0.00    -0.153 OA
BRANCH  29  32
ATOM     32  N   UNL     1      32.541  -9.812 -19.162  0.00  0.00    -0.203 NA
ATOM     33  H   UNL     1      32.097  -8.893 -19.151  0.00  0.00    +0.144 HD
ATOM     34  H   UNL     1      33.468  -9.736 -19.581  0.00  0.00    +0.144 HD
ENDBRANCH  29  32
ENDBRANCH  22  29
ENDBRANCH   2  24
TORSDOF 4
ENDMDL
MODEL 8
REMARK VINA RESULT:      -9.4      5.574     10.769
REMARK  Name = 10113978
REMARK  4 active torsions:
REMARK  status: ('A' for Active; 'I' for Inactive)
REMARK    1  A    between atoms: N_1  and  C_16
REMARK    2  A    between atoms: N_2  and  C_24
REMARK    3  A    between atoms: C_22  and  S_29
REMARK    4  A    between atoms: S_29  and  N_32
REMARK                            x       y       z     vdW  Elec       q    Type
REMARK                         _______ _______ _______ _____ _____    ______ ____
ROOT
ATOM      1  N   UNL     1      34.197 -17.587 -21.530  0.00  0.00    -0.260 N 
ATOM      2  N   UNL     1      36.570 -21.138 -19.506  0.00  0.00    -0.247 N 
ATOM      3  N   UNL     1      35.374 -19.382 -20.500  0.00  0.00    -0.322 NA
ATOM      4  N   UNL     1      37.689 -19.767 -21.046  0.00  0.00    -0.170 NA
ATOM      5  C   UNL     1      35.384 -18.340 -21.356  0.00  0.00    +0.201 C 
ATOM      6  C   UNL     1      32.949 -18.137 -20.988  0.00  0.00    +0.120 C 
ATOM      7  C   UNL     1      36.542 -20.042 -20.395  0.00  0.00    +0.150 C 
ATOM      8  C   UNL     1      36.491 -17.955 -22.084  0.00  0.00    +0.070 C 
ATOM      9  C   UNL     1      37.628 -18.713 -21.887  0.00  0.00    +0.116 C 
ATOM     10  H   UNL     1      37.462 -21.540 -19.396  0.00  0.00    +0.165 HD
ENDROOT
BRANCH   1  16
ATOM     11  N   UNL     1      33.448 -12.324 -23.792  0.00  0.00    -0.253 N 
ATOM     12  N   UNL     1      33.531 -12.835 -22.548  0.00  0.00    -0.170 NA
ATOM     13  C   UNL     1      33.734 -14.433 -24.149  0.00  0.00    +0.033 A 
ATOM     14  C   UNL     1      33.710 -14.155 -22.733  0.00  0.00    +0.103 A 
ATOM     15  C   UNL     1      33.563 -13.242 -24.795  0.00  0.00    +0.057 A 
ATOM     16  C   UNL     1      34.033 -16.464 -22.388  0.00  0.00    +0.055 C 
ATOM     17  C   UNL     1      33.864 -15.193 -21.797  0.00  0.00    +0.036 C 
ATOM     18  C   UNL     1      33.898 -15.670 -24.760  0.00  0.00    +0.004 C 
ATOM     19  C   UNL     1      34.049 -16.690 -23.800  0.00  0.00    +0.015 C 
ATOM     20  C   UNL     1      33.499 -12.879 -26.223  0.00  0.00    +0.052 C 
ATOM     21  C   UNL     1      33.251 -10.901 -23.948  0.00  0.00    +0.153 C 
ENDBRANCH   1  16
BRANCH   2  24
ATOM     22  C   UNL     1      34.885 -22.988 -16.774  0.00  0.00    +0.119 C 
ATOM     23  C   UNL     1      33.571 -23.017 -17.244  0.00  0.00    -0.003 C 
ATOM     24  C   UNL     1      35.592 -21.751 -18.768  0.00  0.00    +0.059 C 
ATOM     25  C   UNL     1      35.880 -22.363 -17.525  0.00  0.00    +0.035 C 
ATOM     26  C   UNL     1      33.254 -22.423 -18.466  0.00  0.00    -0.002 C 
ATOM     27  C   UNL     1      34.250 -21.799 -19.217  0.00  0.00    +0.015 C 
ATOM     28  C   UNL     1      32.481 -23.677 -16.464  0.00  0.00    +0.032 C 
BRANCH  22  29
ATOM     29  S   UNL     1      35.317 -23.723 -15.246  0.00  0.00    +0.057 S 
ATOM     30  O   UNL     1      34.374 -23.263 -14.237  0.00  0.00    -0.153 OA
ATOM     31  O   UNL     1      35.512 -25.149 -15.461  0.00  0.00    -0.153 OA
BRANCH  29  32
ATOM     32  N   UNL     1      36.834 -22.997 -14.958  0.00  0.00    -0.203 NA
ATOM     33  H   UNL     1      36.778 -22.408 -14.126  0.00  0.00    +0.144 HD
ATOM     34  H   UNL     1      37.097 -22.425 -15.762  0.00  0.00    +0.144 HD
ENDBRANCH  29  32
ENDBRANCH  22  29
ENDBRANCH   2  24
TORSDOF 4
ENDMDL
MODEL 9
REMARK VINA RESULT:      -9.1      7.051     12.419
REMARK  Name = 10113978
REMARK  4 active torsions:
REMARK  status: ('A' for Active; 'I' for Inactive)
REMARK    1  A    between atoms: N_1  and  C_16
REMARK    2  A    between atoms: N_2  and  C_24
REMARK    3  A    between atoms: C_22  and  S_29
REMARK    4  A    between atoms: S_29  and  N_32
REMARK                            x       y       z     vdW  Elec       q    Type
REMARK                         _______ _______ _______ _____ _____    ______ ____
ROOT
ATOM      1  N   UNL     1      35.561 -20.626 -19.739  0.00  0.00    -0.260 N 
ATOM      2  N   UNL     1      34.263 -23.619 -16.318  0.00  0.00    -0.247 N 
ATOM      3  N   UNL     1      34.928 -22.135 -18.009  0.00  0.00    -0.322 NA
ATOM      4  N   UNL     1      32.618 -22.777 -17.764  0.00  0.00    -0.170 NA
ATOM      5  C   UNL     1      34.565 -21.366 -19.056  0.00  0.00    +0.201 C 
ATOM      6  C   UNL     1      36.884 -20.514 -19.112  0.00  0.00    +0.120 C 
ATOM      7  C   UNL     1      33.920 -22.803 -17.418  0.00  0.00    +0.150 C 
ATOM      8  C   UNL     1      33.267 -21.252 -19.510  0.00  0.00    +0.070 C 
ATOM      9  C   UNL     1      32.326 -21.988 -18.819  0.00  0.00    +0.116 C 
ATOM     10  H   UNL     1      33.513 -24.154 -15.969  0.00  0.00    +0.165 HD
ENDROOT
BRANCH   1  16
ATOM     11  N   UNL     1      34.722 -16.146 -23.288  0.00  0.00    -0.253 N 
ATOM     12  N   UNL     1      34.877 -16.306 -21.959  0.00  0.00    -0.170 NA
ATOM     13  C   UNL     1      34.967 -18.280 -23.079  0.00  0.00    +0.033 A 
ATOM     14  C   UNL     1      35.033 -17.632 -21.791  0.00  0.00    +0.103 A 
ATOM     15  C   UNL     1      34.767 -17.302 -24.011  0.00  0.00    +0.057 A 
ATOM     16  C   UNL     1      35.355 -19.771 -20.856  0.00  0.00    +0.055 C 
ATOM     17  C   UNL     1      35.234 -18.385 -20.621  0.00  0.00    +0.036 C 
ATOM     18  C   UNL     1      35.082 -19.639 -23.343  0.00  0.00    +0.004 C 
ATOM     19  C   UNL     1      35.282 -20.368 -22.155  0.00  0.00    +0.015 C 
ATOM     20  C   UNL     1      34.619 -17.334 -25.479  0.00  0.00    +0.052 C 
ATOM     21  C   UNL     1      34.529 -14.812 -23.809  0.00  0.00    +0.153 C 
ENDBRANCH   1  16
BRANCH   2  24
ATOM     22  C   UNL     1      36.658 -24.510 -13.635  0.00  0.00    +0.119 C 
ATOM     23  C   UNL     1      37.871 -24.203 -14.250  0.00  0.00    -0.003 C 
ATOM     24  C   UNL     1      35.440 -23.809 -15.644  0.00  0.00    +0.059 C 
ATOM     25  C   UNL     1      35.460 -24.317 -14.323  0.00  0.00    +0.035 C 
ATOM     26  C   UNL     1      37.887 -23.700 -15.552  0.00  0.00    -0.002 C 
ATOM     27  C   UNL     1      36.689 -23.507 -16.238  0.00  0.00    +0.015 C 
ATOM     28  C   UNL     1      39.173 -24.398 -13.543  0.00  0.00    +0.032 C 
BRANCH  22  29
ATOM     29  S   UNL     1      36.602 -25.141 -12.004  0.00  0.00    +0.057 S 
ATOM     30  O   UNL     1      36.976 -26.547 -12.048  0.00  0.00    -0.153 OA
ATOM     31  O   UNL     1      37.322 -24.226 -11.132  0.00  0.00    -0.153 OA
BRANCH  29  32
ATOM     32  N   UNL     1      34.933 -25.022 -11.670  0.00  0.00    -0.203 NA
ATOM     33  H   UNL     1      34.431 -25.750 -12.179  0.00  0.00    +0.144 HD
ATOM     34  H   UNL     1      34.591 -24.106 -11.962  0.00  0.00    +0.144 HD
ENDBRANCH  29  32
ENDBRANCH  22  29
ENDBRANCH   2  24
TORSDOF 4
ENDMDL
