MODEL 1
REMARK VINA RESULT:      -4.7      0.000      0.000
REMARK  Name = 91552
REMARK  6 active torsions:
REMARK  status: ('A' for Active; 'I' for Inactive)
REMARK    1  A    between atoms: CA_1  and  N_2
REMARK    2  A    between atoms: CA_1  and  C_7
REMARK    3  A    between atoms: CA_1  and  C_10
REMARK    4  A    between atoms: C_7  and  O_8
REMARK    5  A    between atoms: C_10  and  C_11
REMARK    6  A    between atoms: C_11  and  S_12
REMARK                            x       y       z     vdW  Elec       q    Type
REMARK                         _______ _______ _______ _____ _____    ______ ____
ROOT
ATOM      1  CA  UNL     1      38.984 -25.209 -14.407  0.00  0.00    +0.037 C 
ENDROOT
BRANCH   1   2
ATOM      2  N   UNL     1      37.934 -25.758 -15.270  0.00  0.00    +0.389 N 
ATOM      3  H1  UNL     1      37.831 -25.170 -16.097  0.00  0.00    -0.088 HD
ATOM      4  H2  UNL     1      37.051 -25.783 -14.758  0.00  0.00    -0.088 HD
ATOM      5  H3  UNL     1      38.189 -26.704 -15.556  0.00  0.00    -0.088 HD
ENDBRANCH   1   2
BRANCH   1   7
ATOM      6  OXT UNL     1      41.011 -26.487 -13.959  0.00  0.00    -0.253 OA
ATOM      7  C   UNL     1      40.265 -25.945 -14.764  0.00  0.00    +0.293 C 
BRANCH   7   8
ATOM      8  O   UNL     1      40.491 -25.967 -16.102  0.00  0.00    -0.482 OA
ATOM      9  H   UNL     1      41.046 -25.322 -16.495  0.00  0.00    +0.295 HD
ENDBRANCH   7   8
ENDBRANCH   1   7
BRANCH   1  10
ATOM     10  C   UNL     1      38.604 -25.440 -12.938  0.00  0.00    +0.000 C 
BRANCH  10  11
ATOM     11  C   UNL     1      37.199 -26.001 -12.700  0.00  0.00    +0.052 C 
BRANCH  11  12
ATOM     12  S   UNL     1      36.023 -24.751 -12.100  0.00  0.00    -0.168 S 
ATOM     13  H   UNL     1      34.784 -25.305 -12.004  0.00  0.00    +0.102 HD
ENDBRANCH  11  12
ENDBRANCH  10  11
ENDBRANCH   1  10
TORSDOF 6
ENDMDL
MODEL 2
REMARK VINA RESULT:      -4.5      2.330      2.513
REMARK  Name = 91552
REMARK  6 active torsions:
REMARK  status: ('A' for Active; 'I' for Inactive)
REMARK    1  A    between atoms: CA_1  and  N_2
REMARK    2  A    between atoms: CA_1  and  C_7
REMARK    3  A    between atoms: CA_1  and  C_10
REMARK    4  A    between atoms: C_7  and  O_8
REMARK    5  A    between atoms: C_10  and  C_11
REMARK    6  A    between atoms: C_11  and  S_12
REMARK                            x       y       z     vdW  Elec       q    Type
REMARK                         _______ _______ _______ _____ _____    ______ ____
ROOT
ATOM      1  CA  UNL     1      38.635 -25.483 -14.614  0.00  0.00    +0.037 C 
ENDROOT
BRANCH   1   2
ATOM      2  N   UNL     1      38.561 -26.248 -13.365  0.00  0.00    +0.389 N 
ATOM      3  H1  UNL     1      38.535 -25.605 -12.574  0.00  0.00    -0.088 HD
ATOM      4  H2  UNL     1      39.381 -26.851 -13.288  0.00  0.00    -0.088 HD
ATOM      5  H3  UNL     1      37.717 -26.821 -13.367  0.00  0.00    -0.088 HD
ENDBRANCH   1   2
BRANCH   1   7
ATOM      6  OXT UNL     1      40.917 -24.709 -14.249  0.00  0.00    -0.253 OA
ATOM      7  C   UNL     1      40.111 -25.323 -14.936  0.00  0.00    +0.293 C 
BRANCH   7   8
ATOM      8  O   UNL     1      40.463 -25.969 -16.076  0.00  0.00    -0.482 OA
ATOM      9  H   UNL     1      41.307 -26.371 -16.147  0.00  0.00    +0.295 HD
ENDBRANCH   7   8
ENDBRANCH   1   7
BRANCH   1  10
ATOM     10  C   UNL     1      37.962 -24.117 -14.410  0.00  0.00    +0.000 C 
BRANCH  10  11
ATOM     11  C   UNL     1      36.880 -23.755 -15.431  0.00  0.00    +0.052 C 
BRANCH  11  12
ATOM     12  S   UNL     1      37.191 -22.173 -16.271  0.00  0.00    -0.168 S 
ATOM     13  H   UNL     1      36.896 -21.148 -15.428  0.00  0.00    +0.102 HD
ENDBRANCH  11  12
ENDBRANCH  10  11
ENDBRANCH   1  10
TORSDOF 6
ENDMDL
MODEL 3
REMARK VINA RESULT:      -4.4      4.224      4.859
REMARK  Name = 91552
REMARK  6 active torsions:
REMARK  status: ('A' for Active; 'I' for Inactive)
REMARK    1  A    between atoms: CA_1  and  N_2
REMARK    2  A    between atoms: CA_1  and  C_7
REMARK    3  A    between atoms: CA_1  and  C_10
REMARK    4  A    between atoms: C_7  and  O_8
REMARK    5  A    between atoms: C_10  and  C_11
REMARK    6  A    between atoms: C_11  and  S_12
REMARK                            x       y       z     vdW  Elec       q    Type
REMARK                         _______ _______ _______ _____ _____    ______ ____
ROOT
ATOM      1  CA  UNL     1      36.671 -23.376 -11.935  0.00  0.00    +0.037 C 
ENDROOT
BRANCH   1   2
ATOM      2  N   UNL     1      38.078 -23.588 -11.581  0.00  0.00    +0.389 N 
ATOM      3  H1  UNL     1      38.637 -22.811 -11.933  0.00  0.00    -0.088 HD
ATOM      4  H2  UNL     1      38.405 -24.460 -11.998  0.00  0.00    -0.088 HD
ATOM      5  H3  UNL     1      38.169 -23.641 -10.566  0.00  0.00    -0.088 HD
ENDBRANCH   1   2
BRANCH   1   7
ATOM      6  OXT UNL     1      35.980 -24.274  -9.776  0.00  0.00    -0.253 OA
ATOM      7  C   UNL     1      35.853 -24.244 -10.994  0.00  0.00    +0.293 C 
BRANCH   7   8
ATOM      8  O   UNL     1      34.924 -24.984 -11.651  0.00  0.00    -0.482 OA
ATOM      9  H   UNL     1      34.024 -24.950 -11.388  0.00  0.00    +0.295 HD
ENDBRANCH   7   8
ENDBRANCH   1   7
BRANCH   1  10
ATOM     10  C   UNL     1      36.450 -23.786 -13.398  0.00  0.00    +0.000 C 
BRANCH  10  11
ATOM     11  C   UNL     1      37.598 -24.566 -14.045  0.00  0.00    +0.052 C 
BRANCH  11  12
ATOM     12  S   UNL     1      37.339 -26.366 -14.026  0.00  0.00    -0.168 S 
ATOM     13  H   UNL     1      36.610 -26.729 -15.116  0.00  0.00    +0.102 HD
ENDBRANCH  11  12
ENDBRANCH  10  11
ENDBRANCH   1  10
TORSDOF 6
ENDMDL
MODEL 4
REMARK VINA RESULT:      -4.3     11.794     12.235
REMARK  Name = 91552
REMARK  6 active torsions:
REMARK  status: ('A' for Active; 'I' for Inactive)
REMARK    1  A    between atoms: CA_1  and  N_2
REMARK    2  A    between atoms: CA_1  and  C_7
REMARK    3  A    between atoms: CA_1  and  C_10
REMARK    4  A    between atoms: C_7  and  O_8
REMARK    5  A    between atoms: C_10  and  C_11
REMARK    6  A    between atoms: C_11  and  S_12
REMARK                            x       y       z     vdW  Elec       q    Type
REMARK                         _______ _______ _______ _____ _____    ______ ____
ROOT
ATOM      1  CA  UNL     1      40.994 -14.410 -15.770  0.00  0.00    +0.037 C 
ENDROOT
BRANCH   1   2
ATOM      2  N   UNL     1      40.576 -13.895 -14.462  0.00  0.00    +0.389 N 
ATOM      3  H1  UNL     1      40.306 -14.674 -13.860  0.00  0.00    -0.088 HD
ATOM      4  H2  UNL     1      39.781 -13.266 -14.582  0.00  0.00    -0.088 HD
ATOM      5  H3  UNL     1      41.350 -13.387 -14.033  0.00  0.00    -0.088 HD
ENDBRANCH   1   2
BRANCH   1   7
ATOM      6  OXT UNL     1      42.223 -16.510 -15.629  0.00  0.00    -0.253 OA
ATOM      7  C   UNL     1      41.155 -15.912 -15.611  0.00  0.00    +0.293 C 
BRANCH   7   8
ATOM      8  O   UNL     1      39.968 -16.540 -15.411  0.00  0.00    -0.482 OA
ATOM      9  H   UNL     1      39.259 -16.405 -16.010  0.00  0.00    +0.295 HD
ENDBRANCH   7   8
ENDBRANCH   1   7
BRANCH   1  10
ATOM     10  C   UNL     1      42.321 -13.751 -16.172  0.00  0.00    +0.000 C 
BRANCH  10  11
ATOM     11  C   UNL     1      42.351 -13.127 -17.571  0.00  0.00    +0.052 C 
BRANCH  11  12
ATOM     12  S   UNL     1      42.722 -11.347 -17.552  0.00  0.00    -0.168 S 
ATOM     13  H   UNL     1      42.632 -10.853 -18.816  0.00  0.00    +0.102 HD
ENDBRANCH  11  12
ENDBRANCH  10  11
ENDBRANCH   1  10
TORSDOF 6
ENDMDL
MODEL 5
REMARK VINA RESULT:      -4.3      9.981     10.652
REMARK  Name = 91552
REMARK  6 active torsions:
REMARK  status: ('A' for Active; 'I' for Inactive)
REMARK    1  A    between atoms: CA_1  and  N_2
REMARK    2  A    between atoms: CA_1  and  C_7
REMARK    3  A    between atoms: CA_1  and  C_10
REMARK    4  A    between atoms: C_7  and  O_8
REMARK    5  A    between atoms: C_10  and  C_11
REMARK    6  A    between atoms: C_11  and  S_12
REMARK                            x       y       z     vdW  Elec       q    Type
REMARK                         _______ _______ _______ _____ _____    ______ ____
ROOT
ATOM      1  CA  UNL     1      29.190 -23.626 -16.648  0.00  0.00    +0.037 C 
ENDROOT
BRANCH   1   2
ATOM      2  N   UNL     1      30.377 -22.767 -16.708  0.00  0.00    +0.389 N 
ATOM      3  H1  UNL     1      30.580 -22.403 -15.776  0.00  0.00    -0.088 HD
ATOM      4  H2  UNL     1      30.203 -21.990 -17.346  0.00  0.00    -0.088 HD
ATOM      5  H3  UNL     1      31.173 -23.310 -17.041  0.00  0.00    -0.088 HD
ENDBRANCH   1   2
BRANCH   1   7
ATOM      6  OXT UNL     1      27.763 -21.667 -16.389  0.00  0.00    -0.253 OA
ATOM      7  C   UNL     1      27.996 -22.733 -16.943  0.00  0.00    +0.293 C 
BRANCH   7   8
ATOM      8  O   UNL     1      27.208 -23.235 -17.928  0.00  0.00    -0.482 OA
ATOM      9  H   UNL     1      27.585 -23.487 -18.748  0.00  0.00    +0.295 HD
ENDBRANCH   7   8
ENDBRANCH   1   7
BRANCH   1  10
ATOM     10  C   UNL     1      29.084 -24.246 -15.248  0.00  0.00    +0.000 C 
BRANCH  10  11
ATOM     11  C   UNL     1      30.047 -25.402 -14.963  0.00  0.00    +0.052 C 
BRANCH  11  12
ATOM     12  S   UNL     1      31.352 -24.968 -13.773  0.00  0.00    -0.168 S 
ATOM     13  H   UNL     1      32.254 -24.145 -14.371  0.00  0.00    +0.102 HD
ENDBRANCH  11  12
ENDBRANCH  10  11
ENDBRANCH   1  10
TORSDOF 6
ENDMDL
MODEL 6
REMARK VINA RESULT:      -4.2      9.644     10.381
REMARK  Name = 91552
REMARK  6 active torsions:
REMARK  status: ('A' for Active; 'I' for Inactive)
REMARK    1  A    between atoms: CA_1  and  N_2
REMARK    2  A    between atoms: CA_1  and  C_7
REMARK    3  A    between atoms: CA_1  and  C_10
REMARK    4  A    between atoms: C_7  and  O_8
REMARK    5  A    between atoms: C_10  and  C_11
REMARK    6  A    between atoms: C_11  and  S_12
REMARK                            x       y       z     vdW  Elec       q    Type
REMARK                         _______ _______ _______ _____ _____    ______ ____
ROOT
ATOM      1  CA  UNL     1      28.839 -23.441 -15.420  0.00  0.00    +0.037 C 
ENDROOT
BRANCH   1   2
ATOM      2  N   UNL     1      28.988 -24.893 -15.272  0.00  0.00    +0.389 N 
ATOM      3  H1  UNL     1      29.143 -25.119 -14.289  0.00  0.00    -0.088 HD
ATOM      4  H2  UNL     1      29.785 -25.211 -15.824  0.00  0.00    -0.088 HD
ATOM      5  H3  UNL     1      28.140 -25.357 -15.598  0.00  0.00    -0.088 HD
ENDBRANCH   1   2
BRANCH   1   7
ATOM      6  OXT UNL     1      27.754 -24.078 -17.508  0.00  0.00    -0.253 OA
ATOM      7  C   UNL     1      28.239 -23.208 -16.796  0.00  0.00    +0.293 C 
BRANCH   7   8
ATOM      8  O   UNL     1      28.268 -21.899 -17.156  0.00  0.00    -0.482 OA
ATOM      9  H   UNL     1      29.037 -21.539 -17.555  0.00  0.00    +0.295 HD
ENDBRANCH   7   8
ENDBRANCH   1   7
BRANCH   1  10
ATOM     10  C   UNL     1      30.217 -22.776 -15.298  0.00  0.00    +0.000 C 
BRANCH  10  11
ATOM     11  C   UNL     1      31.336 -23.419 -16.124  0.00  0.00    +0.052 C 
BRANCH  11  12
ATOM     12  S   UNL     1      32.928 -23.476 -15.247  0.00  0.00    -0.168 S 
ATOM     13  H   UNL     1      33.890 -23.942 -16.088  0.00  0.00    +0.102 HD
ENDBRANCH  11  12
ENDBRANCH  10  11
ENDBRANCH   1  10
TORSDOF 6
ENDMDL
MODEL 7
REMARK VINA RESULT:      -4.1      4.074      4.704
REMARK  Name = 91552
REMARK  6 active torsions:
REMARK  status: ('A' for Active; 'I' for Inactive)
REMARK    1  A    between atoms: CA_1  and  N_2
REMARK    2  A    between atoms: CA_1  and  C_7
REMARK    3  A    between atoms: CA_1  and  C_10
REMARK    4  A    between atoms: C_7  and  O_8
REMARK    5  A    between atoms: C_10  and  C_11
REMARK    6  A    between atoms: C_11  and  S_12
REMARK                            x       y       z     vdW  Elec       q    Type
REMARK                         _______ _______ _______ _____ _____    ______ ____
ROOT
ATOM      1  CA  UNL     1      36.248 -24.344 -12.370  0.00  0.00    +0.037 C 
ENDROOT
BRANCH   1   2
ATOM      2  N   UNL     1      35.221 -23.489 -12.975  0.00  0.00    +0.389 N 
ATOM      3  H1  UNL     1      35.670 -22.767 -13.540  0.00  0.00    -0.088 HD
ATOM      4  H2  UNL     1      34.667 -23.050 -12.239  0.00  0.00    -0.088 HD
ATOM      5  H3  UNL     1      34.614 -24.055 -13.568  0.00  0.00    -0.088 HD
ENDBRANCH   1   2
BRANCH   1   7
ATOM      6  OXT UNL     1      36.172 -24.150  -9.942  0.00  0.00    -0.253 OA
ATOM      7  C   UNL     1      36.577 -23.733 -11.019  0.00  0.00    +0.293 C 
BRANCH   7   8
ATOM      8  O   UNL     1      37.410 -22.666 -11.125  0.00  0.00    -0.482 OA
ATOM      9  H   UNL     1      37.575 -22.123 -10.378  0.00  0.00    +0.295 HD
ENDBRANCH   7   8
ENDBRANCH   1   7
BRANCH   1  10
ATOM     10  C   UNL     1      37.484 -24.371 -13.281  0.00  0.00    +0.000 C 
BRANCH  10  11
ATOM     11  C   UNL     1      38.473 -25.511 -13.019  0.00  0.00    +0.052 C 
BRANCH  11  12
ATOM     12  S   UNL     1      39.839 -25.561 -14.217  0.00  0.00    -0.168 S 
ATOM     13  H   UNL     1      40.745 -26.500 -13.831  0.00  0.00    +0.102 HD
ENDBRANCH  11  12
ENDBRANCH  10  11
ENDBRANCH   1  10
TORSDOF 6
ENDMDL
MODEL 8
REMARK VINA RESULT:      -4.1      2.746      2.943
REMARK  Name = 91552
REMARK  6 active torsions:
REMARK  status: ('A' for Active; 'I' for Inactive)
REMARK    1  A    between atoms: CA_1  and  N_2
REMARK    2  A    between atoms: CA_1  and  C_7
REMARK    3  A    between atoms: CA_1  and  C_10
REMARK    4  A    between atoms: C_7  and  O_8
REMARK    5  A    between atoms: C_10  and  C_11
REMARK    6  A    between atoms: C_11  and  S_12
REMARK                            x       y       z     vdW  Elec       q    Type
REMARK                         _______ _______ _______ _____ _____    ______ ____
ROOT
ATOM      1  CA  UNL     1      36.939 -25.067 -14.666  0.00  0.00    +0.037 C 
ENDROOT
BRANCH   1   2
ATOM      2  N   UNL     1      37.855 -24.214 -15.429  0.00  0.00    +0.389 N 
ATOM      3  H1  UNL     1      37.323 -23.658 -16.099  0.00  0.00    -0.088 HD
ATOM      4  H2  UNL     1      38.526 -24.798 -15.930  0.00  0.00    -0.088 HD
ATOM      5  H3  UNL     1      38.353 -23.593 -14.791  0.00  0.00    -0.088 HD
ENDBRANCH   1   2
BRANCH   1   7
ATOM      6  OXT UNL     1      38.185 -27.161 -14.622  0.00  0.00    -0.253 OA
ATOM      7  C   UNL     1      37.253 -26.500 -15.061  0.00  0.00    +0.293 C 
BRANCH   7   8
ATOM      8  O   UNL     1      36.358 -26.997 -15.952  0.00  0.00    -0.482 OA
ATOM      9  H   UNL     1      36.486 -26.864 -16.871  0.00  0.00    +0.295 HD
ENDBRANCH   7   8
ENDBRANCH   1   7
BRANCH   1  10
ATOM     10  C   UNL     1      35.491 -24.700 -15.023  0.00  0.00    +0.000 C 
BRANCH  10  11
ATOM     11  C   UNL     1      34.610 -24.269 -13.847  0.00  0.00    +0.052 C 
BRANCH  11  12
ATOM     12  S   UNL     1      35.447 -24.408 -12.239  0.00  0.00    -0.168 S 
ATOM     13  H   UNL     1      34.609 -24.993 -11.341  0.00  0.00    +0.102 HD
ENDBRANCH  11  12
ENDBRANCH  10  11
ENDBRANCH   1  10
TORSDOF 6
ENDMDL
MODEL 9
REMARK VINA RESULT:      -4.1      8.647      9.292
REMARK  Name = 91552
REMARK  6 active torsions:
REMARK  status: ('A' for Active; 'I' for Inactive)
REMARK    1  A    between atoms: CA_1  and  N_2
REMARK    2  A    between atoms: CA_1  and  C_7
REMARK    3  A    between atoms: CA_1  and  C_10
REMARK    4  A    between atoms: C_7  and  O_8
REMARK    5  A    between atoms: C_10  and  C_11
REMARK    6  A    between atoms: C_11  and  S_12
REMARK                            x       y       z     vdW  Elec       q    Type
REMARK                         _______ _______ _______ _____ _____    ______ ____
ROOT
ATOM      1  CA  UNL     1      30.198 -25.275 -14.938  0.00  0.00    +0.037 C 
ENDROOT
BRANCH   1   2
ATOM      2  N   UNL     1      28.863 -25.484 -14.369  0.00  0.00    +0.389 N 
ATOM      3  H1  UNL     1      28.943 -26.024 -13.507  0.00  0.00    -0.088 HD
ATOM      4  H2  UNL     1      28.285 -25.994 -15.038  0.00  0.00    -0.088 HD
ATOM      5  H3  UNL     1      28.435 -24.581 -14.166  0.00  0.00    -0.088 HD
ENDBRANCH   1   2
BRANCH   1   7
ATOM      6  OXT UNL     1      32.355 -25.010 -13.833  0.00  0.00    -0.253 OA
ATOM      7  C   UNL     1      31.133 -25.025 -13.767  0.00  0.00    +0.293 C 
BRANCH   7   8
ATOM      8  O   UNL     1      30.459 -24.784 -12.613  0.00  0.00    -0.482 OA
ATOM      9  H   UNL     1      30.801 -25.092 -11.796  0.00  0.00    +0.295 HD
ENDBRANCH   7   8
ENDBRANCH   1   7
BRANCH   1  10
ATOM     10  C   UNL     1      30.161 -24.065 -15.884  0.00  0.00    +0.000 C 
BRANCH  10  11
ATOM     11  C   UNL     1      29.239 -22.920 -15.454  0.00  0.00    +0.052 C 
BRANCH  11  12
ATOM     12  S   UNL     1      27.890 -22.608 -16.632  0.00  0.00    -0.168 S 
ATOM     13  H   UNL     1      27.286 -23.785 -16.949  0.00  0.00    +0.102 HD
ENDBRANCH  11  12
ENDBRANCH  10  11
ENDBRANCH   1  10
TORSDOF 6
ENDMDL
