MODEL 1
REMARK VINA RESULT:      -9.9      0.000      0.000
REMARK  Name = 72304
REMARK  1 active torsions:
REMARK  status: ('A' for Active; 'I' for Inactive)
REMARK    1  A    between atoms: C_3  and  C_12
REMARK                            x       y       z     vdW  Elec       q    Type
REMARK                         _______ _______ _______ _____ _____    ______ ____
ROOT
ATOM      1  O   UNL     1      34.333 -17.549 -24.209  0.00  0.00    -0.450 OA
ATOM      2  O   UNL     1      35.042 -16.535 -20.321  0.00  0.00    -0.286 OA
ATOM      3  C   UNL     1      34.914 -18.257 -21.961  0.00  0.00    +0.077 C 
ATOM      4  C   UNL     1      34.429 -15.842 -22.486  0.00  0.00    +0.074 C 
ATOM      5  C   UNL     1      34.812 -16.851 -21.481  0.00  0.00    +0.202 C 
ATOM      6  C   UNL     1      34.211 -16.244 -23.803  0.00  0.00    +0.148 C 
ATOM      7  C   UNL     1      34.669 -18.483 -23.260  0.00  0.00    +0.183 C 
ATOM      8  C   UNL     1      34.290 -14.498 -22.129  0.00  0.00    +0.006 C 
ATOM      9  C   UNL     1      33.851 -15.306 -24.770  0.00  0.00    +0.038 C 
ATOM     10  C   UNL     1      33.930 -13.561 -23.099  0.00  0.00    +0.000 C 
ATOM     11  C   UNL     1      33.711 -13.964 -24.416  0.00  0.00    +0.003 C 
ENDROOT
BRANCH   3  12
ATOM     12  C   UNL     1      35.250 -19.367 -21.053  0.00  0.00    +0.006 C 
ATOM     13  C   UNL     1      34.241 -20.191 -20.550  0.00  0.00    +0.000 C 
ATOM     14  C   UNL     1      36.579 -19.600 -20.692  0.00  0.00    +0.000 C 
ATOM     15  C   UNL     1      34.559 -21.242 -19.689  0.00  0.00    +0.000 C 
ATOM     16  C   UNL     1      36.897 -20.651 -19.833  0.00  0.00    +0.000 C 
ATOM     17  C   UNL     1      35.888 -21.472 -19.332  0.00  0.00    +0.000 C 
ENDBRANCH   3  12
TORSDOF 1
ENDMDL
MODEL 2
REMARK VINA RESULT:      -9.7      1.714      6.306
REMARK  Name = 72304
REMARK  1 active torsions:
REMARK  status: ('A' for Active; 'I' for Inactive)
REMARK    1  A    between atoms: C_3  and  C_12
REMARK                            x       y       z     vdW  Elec       q    Type
REMARK                         _______ _______ _______ _____ _____    ______ ____
ROOT
ATOM      1  O   UNL     1      36.838 -19.918 -20.153  0.00  0.00    -0.450 OA
ATOM      2  O   UNL     1      33.001 -19.850 -21.537  0.00  0.00    -0.286 OA
ATOM      3  C   UNL     1      35.207 -18.966 -21.679  0.00  0.00    +0.077 C 
ATOM      4  C   UNL     1      34.561 -20.746 -20.018  0.00  0.00    +0.074 C 
ATOM      5  C   UNL     1      34.150 -19.850 -21.115  0.00  0.00    +0.202 C 
ATOM      6  C   UNL     1      35.889 -20.735 -19.594  0.00  0.00    +0.148 C 
ATOM      7  C   UNL     1      36.439 -19.072 -21.158  0.00  0.00    +0.183 C 
ATOM      8  C   UNL     1      33.636 -21.601 -19.412  0.00  0.00    +0.006 C 
ATOM      9  C   UNL     1      36.300 -21.578 -18.561  0.00  0.00    +0.038 C 
ATOM     10  C   UNL     1      34.050 -22.443 -18.379  0.00  0.00    +0.000 C 
ATOM     11  C   UNL     1      35.378 -22.431 -17.954  0.00  0.00    +0.003 C 
ENDROOT
BRANCH   3  12
ATOM     12  C   UNL     1      34.922 -17.996 -22.750  0.00  0.00    +0.006 C 
ATOM     13  C   UNL     1      34.826 -18.425 -24.075  0.00  0.00    +0.000 C 
ATOM     14  C   UNL     1      34.747 -16.645 -22.444  0.00  0.00    +0.000 C 
ATOM     15  C   UNL     1      34.556 -17.506 -25.090  0.00  0.00    +0.000 C 
ATOM     16  C   UNL     1      34.477 -15.727 -23.457  0.00  0.00    +0.000 C 
ATOM     17  C   UNL     1      34.381 -16.157 -24.780  0.00  0.00    +0.000 C 
ENDBRANCH   3  12
TORSDOF 1
ENDMDL
MODEL 3
REMARK VINA RESULT:      -9.6      1.973      6.332
REMARK  Name = 72304
REMARK  1 active torsions:
REMARK  status: ('A' for Active; 'I' for Inactive)
REMARK    1  A    between atoms: C_3  and  C_12
REMARK                            x       y       z     vdW  Elec       q    Type
REMARK                         _______ _______ _______ _____ _____    ______ ____
ROOT
ATOM      1  O   UNL     1      32.727 -20.854 -20.292  0.00  0.00    -0.450 OA
ATOM      2  O   UNL     1      36.561 -19.561 -20.817  0.00  0.00    -0.286 OA
ATOM      3  C   UNL     1      34.289 -19.464 -21.526  0.00  0.00    +0.077 C 
ATOM      4  C   UNL     1      35.064 -20.950 -19.646  0.00  0.00    +0.074 C 
ATOM      5  C   UNL     1      35.411 -19.958 -20.680  0.00  0.00    +0.202 C 
ATOM      6  C   UNL     1      33.735 -21.347 -19.504  0.00  0.00    +0.148 C 
ATOM      7  C   UNL     1      33.065 -19.947 -21.266  0.00  0.00    +0.183 C 
ATOM      8  C   UNL     1      36.051 -21.486 -18.813  0.00  0.00    +0.006 C 
ATOM      9  C   UNL     1      33.385 -22.282 -18.530  0.00  0.00    +0.038 C 
ATOM     10  C   UNL     1      35.697 -22.422 -17.840  0.00  0.00    +0.000 C 
ATOM     11  C   UNL     1      34.368 -22.819 -17.699  0.00  0.00    +0.003 C 
ENDROOT
BRANCH   3  12
ATOM     12  C   UNL     1      34.504 -18.501 -22.619  0.00  0.00    +0.006 C 
ATOM     13  C   UNL     1      34.524 -18.939 -23.945  0.00  0.00    +0.000 C 
ATOM     14  C   UNL     1      34.689 -17.147 -22.334  0.00  0.00    +0.000 C 
ATOM     15  C   UNL     1      34.728 -18.027 -24.981  0.00  0.00    +0.000 C 
ATOM     16  C   UNL     1      34.891 -16.235 -23.369  0.00  0.00    +0.000 C 
ATOM     17  C   UNL     1      34.911 -16.675 -24.692  0.00  0.00    +0.000 C 
ENDBRANCH   3  12
TORSDOF 1
ENDMDL
MODEL 4
REMARK VINA RESULT:      -9.5      0.894      2.388
REMARK  Name = 72304
REMARK  1 active torsions:
REMARK  status: ('A' for Active; 'I' for Inactive)
REMARK    1  A    between atoms: C_3  and  C_12
REMARK                            x       y       z     vdW  Elec       q    Type
REMARK                         _______ _______ _______ _____ _____    ______ ____
ROOT
ATOM      1  O   UNL     1      34.006 -15.682 -21.721  0.00  0.00    -0.450 OA
ATOM      2  O   UNL     1      34.793 -19.036 -23.907  0.00  0.00    -0.286 OA
ATOM      3  C   UNL     1      34.687 -18.012 -21.759  0.00  0.00    +0.077 C 
ATOM      4  C   UNL     1      34.181 -16.763 -23.887  0.00  0.00    +0.074 C 
ATOM      5  C   UNL     1      34.578 -18.029 -23.244  0.00  0.00    +0.202 C 
ATOM      6  C   UNL     1      33.913 -15.651 -23.089  0.00  0.00    +0.148 C 
ATOM      7  C   UNL     1      34.399 -16.861 -21.135  0.00  0.00    +0.183 C 
ATOM      8  C   UNL     1      34.068 -16.674 -25.277  0.00  0.00    +0.006 C 
ATOM      9  C   UNL     1      33.532 -14.445 -23.675  0.00  0.00    +0.038 C 
ATOM     10  C   UNL     1      33.687 -15.465 -25.861  0.00  0.00    +0.000 C 
ATOM     11  C   UNL     1      33.420 -14.353 -25.063  0.00  0.00    +0.003 C 
ENDROOT
BRANCH   3  12
ATOM     12  C   UNL     1      35.111 -19.198 -20.996  0.00  0.00    +0.006 C 
ATOM     13  C   UNL     1      36.466 -19.415 -20.734  0.00  0.00    +0.000 C 
ATOM     14  C   UNL     1      34.161 -20.110 -20.532  0.00  0.00    +0.000 C 
ATOM     15  C   UNL     1      36.868 -20.538 -20.011  0.00  0.00    +0.000 C 
ATOM     16  C   UNL     1      34.562 -21.233 -19.809  0.00  0.00    +0.000 C 
ATOM     17  C   UNL     1      35.916 -21.447 -19.549  0.00  0.00    +0.000 C 
ENDBRANCH   3  12
TORSDOF 1
ENDMDL
MODEL 5
REMARK VINA RESULT:      -9.2      2.438      6.676
REMARK  Name = 72304
REMARK  1 active torsions:
REMARK  status: ('A' for Active; 'I' for Inactive)
REMARK    1  A    between atoms: C_3  and  C_12
REMARK                            x       y       z     vdW  Elec       q    Type
REMARK                         _______ _______ _______ _____ _____    ______ ____
ROOT
ATOM      1  O   UNL     1      33.560 -15.876 -25.585  0.00  0.00    -0.450 OA
ATOM      2  O   UNL     1      34.569 -14.534 -21.867  0.00  0.00    -0.286 OA
ATOM      3  C   UNL     1      33.609 -14.045 -23.991  0.00  0.00    +0.077 C 
ATOM      4  C   UNL     1      34.572 -16.302 -23.421  0.00  0.00    +0.074 C 
ATOM      5  C   UNL     1      34.280 -14.922 -22.991  0.00  0.00    +0.202 C 
ATOM      6  C   UNL     1      34.194 -16.709 -24.700  0.00  0.00    +0.148 C 
ATOM      7  C   UNL     1      33.313 -14.586 -25.182  0.00  0.00    +0.183 C 
ATOM      8  C   UNL     1      35.216 -17.195 -22.560  0.00  0.00    +0.006 C 
ATOM      9  C   UNL     1      34.457 -18.011 -25.126  0.00  0.00    +0.038 C 
ATOM     10  C   UNL     1      35.478 -18.497 -22.989  0.00  0.00    +0.000 C 
ATOM     11  C   UNL     1      35.100 -18.904 -24.268  0.00  0.00    +0.003 C 
ENDROOT
BRANCH   3  12
ATOM     12  C   UNL     1      33.296 -12.635 -23.704  0.00  0.00    +0.006 C 
ATOM     13  C   UNL     1      32.307 -12.312 -22.772  0.00  0.00    +0.000 C 
ATOM     14  C   UNL     1      33.987 -11.616 -24.362  0.00  0.00    +0.000 C 
ATOM     15  C   UNL     1      32.010 -10.976 -22.501  0.00  0.00    +0.000 C 
ATOM     16  C   UNL     1      33.692 -10.281 -24.091  0.00  0.00    +0.000 C 
ATOM     17  C   UNL     1      32.703  -9.961 -23.160  0.00  0.00    +0.000 C 
ENDBRANCH   3  12
TORSDOF 1
ENDMDL
MODEL 6
REMARK VINA RESULT:      -9.1      7.844     11.426
REMARK  Name = 72304
REMARK  1 active torsions:
REMARK  status: ('A' for Active; 'I' for Inactive)
REMARK    1  A    between atoms: C_3  and  C_12
REMARK                            x       y       z     vdW  Elec       q    Type
REMARK                         _______ _______ _______ _____ _____    ______ ____
ROOT
ATOM      1  O   UNL     1      32.607  -7.720 -20.392  0.00  0.00    -0.450 OA
ATOM      2  O   UNL     1      32.226  -9.546 -24.021  0.00  0.00    -0.286 OA
ATOM      3  C   UNL     1      32.777  -7.571 -22.810  0.00  0.00    +0.077 C 
ATOM      4  C   UNL     1      32.009  -9.688 -21.681  0.00  0.00    +0.074 C 
ATOM      5  C   UNL     1      32.325  -8.984 -22.938  0.00  0.00    +0.202 C 
ATOM      6  C   UNL     1      32.169  -9.017 -20.469  0.00  0.00    +0.148 C 
ATOM      7  C   UNL     1      32.876  -7.067 -21.571  0.00  0.00    +0.183 C 
ATOM      8  C   UNL     1      31.561 -11.011 -21.698  0.00  0.00    +0.006 C 
ATOM      9  C   UNL     1      31.880  -9.665 -19.268  0.00  0.00    +0.038 C 
ATOM     10  C   UNL     1      31.272 -11.657 -20.495  0.00  0.00    +0.000 C 
ATOM     11  C   UNL     1      31.431 -10.986 -19.283  0.00  0.00    +0.003 C 
ENDROOT
BRANCH   3  12
ATOM     12  C   UNL     1      33.086  -6.743 -23.988  0.00  0.00    +0.006 C 
ATOM     13  C   UNL     1      32.130  -5.860 -24.494  0.00  0.00    +0.000 C 
ATOM     14  C   UNL     1      34.336  -6.837 -24.602  0.00  0.00    +0.000 C 
ATOM     15  C   UNL     1      32.423  -5.075 -25.610  0.00  0.00    +0.000 C 
ATOM     16  C   UNL     1      34.630  -6.053 -25.717  0.00  0.00    +0.000 C 
ATOM     17  C   UNL     1      33.673  -5.172 -26.221  0.00  0.00    +0.000 C 
ENDBRANCH   3  12
TORSDOF 1
ENDMDL
MODEL 7
REMARK VINA RESULT:      -9.1      1.359      1.620
REMARK  Name = 72304
REMARK  1 active torsions:
REMARK  status: ('A' for Active; 'I' for Inactive)
REMARK    1  A    between atoms: C_3  and  C_12
REMARK                            x       y       z     vdW  Elec       q    Type
REMARK                         _______ _______ _______ _____ _____    ______ ____
ROOT
ATOM      1  O   UNL     1      35.140 -15.576 -23.626  0.00  0.00    -0.450 OA
ATOM      2  O   UNL     1      32.741 -16.436 -20.440  0.00  0.00    -0.286 OA
ATOM      3  C   UNL     1      34.496 -17.142 -21.886  0.00  0.00    +0.077 C 
ATOM      4  C   UNL     1      33.322 -14.930 -22.154  0.00  0.00    +0.074 C 
ATOM      5  C   UNL     1      33.452 -16.195 -21.407  0.00  0.00    +0.202 C 
ATOM      6  C   UNL     1      34.176 -14.684 -23.227  0.00  0.00    +0.148 C 
ATOM      7  C   UNL     1      35.237 -16.760 -22.937  0.00  0.00    +0.183 C 
ATOM      8  C   UNL     1      32.358 -13.984 -21.791  0.00  0.00    +0.006 C 
ATOM      9  C   UNL     1      34.073 -13.493 -23.945  0.00  0.00    +0.038 C 
ATOM     10  C   UNL     1      32.257 -12.793 -22.511  0.00  0.00    +0.000 C 
ATOM     11  C   UNL     1      33.112 -12.548 -23.586  0.00  0.00    +0.003 C 
ENDROOT
BRANCH   3  12
ATOM     12  C   UNL     1      34.704 -18.456 -21.254  0.00  0.00    +0.006 C 
ATOM     13  C   UNL     1      33.610 -19.267 -20.945  0.00  0.00    +0.000 C 
ATOM     14  C   UNL     1      35.997 -18.896 -20.962  0.00  0.00    +0.000 C 
ATOM     15  C   UNL     1      33.807 -20.511 -20.347  0.00  0.00    +0.000 C 
ATOM     16  C   UNL     1      36.195 -20.140 -20.365  0.00  0.00    +0.000 C 
ATOM     17  C   UNL     1      35.100 -20.948 -20.057  0.00  0.00    +0.000 C 
ENDBRANCH   3  12
TORSDOF 1
ENDMDL
MODEL 8
REMARK VINA RESULT:      -8.9      4.574      7.089
REMARK  Name = 72304
REMARK  1 active torsions:
REMARK  status: ('A' for Active; 'I' for Inactive)
REMARK    1  A    between atoms: C_3  and  C_12
REMARK                            x       y       z     vdW  Elec       q    Type
REMARK                         _______ _______ _______ _____ _____    ______ ____
ROOT
ATOM      1  O   UNL     1      32.033 -10.743 -22.235  0.00  0.00    -0.450 OA
ATOM      2  O   UNL     1      34.877 -11.119 -25.136  0.00  0.00    -0.286 OA
ATOM      3  C   UNL     1      33.263 -12.188 -23.750  0.00  0.00    +0.077 C 
ATOM      4  C   UNL     1      33.727  -9.715 -23.637  0.00  0.00    +0.074 C 
ATOM      5  C   UNL     1      34.036 -11.019 -24.252  0.00  0.00    +0.202 C 
ATOM      6  C   UNL     1      32.737  -9.644 -22.658  0.00  0.00    +0.148 C 
ATOM      7  C   UNL     1      32.346 -11.956 -22.800  0.00  0.00    +0.183 C 
ATOM      8  C   UNL     1      34.411  -8.561 -24.029  0.00  0.00    +0.006 C 
ATOM      9  C   UNL     1      32.426  -8.421 -22.065  0.00  0.00    +0.038 C 
ATOM     10  C   UNL     1      34.098  -7.339 -23.434  0.00  0.00    +0.000 C 
ATOM     11  C   UNL     1      33.108  -7.268 -22.454  0.00  0.00    +0.003 C 
ENDROOT
BRANCH   3  12
ATOM     12  C   UNL     1      33.500 -13.552 -24.252  0.00  0.00    +0.006 C 
ATOM     13  C   UNL     1      33.007 -13.935 -25.500  0.00  0.00    +0.000 C 
ATOM     14  C   UNL     1      34.220 -14.467 -23.480  0.00  0.00    +0.000 C 
ATOM     15  C   UNL     1      33.231 -15.228 -25.976  0.00  0.00    +0.000 C 
ATOM     16  C   UNL     1      34.445 -15.759 -23.955  0.00  0.00    +0.000 C 
ATOM     17  C   UNL     1      33.951 -16.139 -25.202  0.00  0.00    +0.000 C 
ENDBRANCH   3  12
TORSDOF 1
ENDMDL
MODEL 9
REMARK VINA RESULT:      -8.8      2.494      6.835
REMARK  Name = 72304
REMARK  1 active torsions:
REMARK  status: ('A' for Active; 'I' for Inactive)
REMARK    1  A    between atoms: C_3  and  C_12
REMARK                            x       y       z     vdW  Elec       q    Type
REMARK                         _______ _______ _______ _____ _____    ______ ____
ROOT
ATOM      1  O   UNL     1      34.783 -15.776 -21.727  0.00  0.00    -0.450 OA
ATOM      2  O   UNL     1      33.117 -14.485 -25.220  0.00  0.00    -0.286 OA
ATOM      3  C   UNL     1      33.657 -14.007 -22.950  0.00  0.00    +0.077 C 
ATOM      4  C   UNL     1      34.163 -16.226 -24.029  0.00  0.00    +0.074 C 
ATOM      5  C   UNL     1      33.597 -14.871 -24.162  0.00  0.00    +0.202 C 
ATOM      6  C   UNL     1      34.730 -16.609 -22.815  0.00  0.00    +0.148 C 
ATOM      7  C   UNL     1      34.233 -14.524 -21.855  0.00  0.00    +0.183 C 
ATOM      8  C   UNL     1      34.137 -17.117 -25.106  0.00  0.00    +0.006 C 
ATOM      9  C   UNL     1      35.274 -17.885 -22.669  0.00  0.00    +0.038 C 
ATOM     10  C   UNL     1      34.682 -18.393 -24.957  0.00  0.00    +0.000 C 
ATOM     11  C   UNL     1      35.249 -18.777 -23.742  0.00  0.00    +0.003 C 
ENDROOT
BRANCH   3  12
ATOM     12  C   UNL     1      33.094 -12.646 -22.935  0.00  0.00    +0.006 C 
ATOM     13  C   UNL     1      31.993 -12.353 -22.129  0.00  0.00    +0.000 C 
ATOM     14  C   UNL     1      33.659 -11.645 -23.727  0.00  0.00    +0.000 C 
ATOM     15  C   UNL     1      31.459 -11.064 -22.114  0.00  0.00    +0.000 C 
ATOM     16  C   UNL     1      33.127 -10.356 -23.713  0.00  0.00    +0.000 C 
ATOM     17  C   UNL     1      32.027 -10.066 -22.907  0.00  0.00    +0.000 C 
ENDBRANCH   3  12
TORSDOF 1
ENDMDL
