MODEL 1
REMARK VINA RESULT:      -8.4      0.000      0.000
REMARK  Name = 4021
REMARK  1 active torsions:
REMARK  status: ('A' for Active; 'I' for Inactive)
REMARK    1  A    between atoms: N_2  and  C_8
REMARK                            x       y       z     vdW  Elec       q    Type
REMARK                         _______ _______ _______ _____ _____    ______ ____
ROOT
ATOM      1  O   UNL     1      35.287 -16.839 -20.364  0.00  0.00    -0.272 OA
ATOM      2  N   UNL     1      34.803 -18.586 -21.894  0.00  0.00    -0.159 N 
ATOM      3  N   UNL     1      34.638 -18.712 -23.256  0.00  0.00    -0.180 NA
ATOM      4  C   UNL     1      35.104 -16.476 -22.760  0.00  0.00    +0.130 C 
ATOM      5  C   UNL     1      34.803 -17.535 -23.768  0.00  0.00    +0.064 C 
ATOM      6  C   UNL     1      35.089 -17.273 -21.487  0.00  0.00    +0.254 C 
ATOM      7  C   UNL     1      34.706 -17.235 -25.222  0.00  0.00    +0.049 C 
ENDROOT
BRANCH   2   8
ATOM      8  C   UNL     1      34.697 -19.649 -21.012  0.00  0.00    +0.077 C 
ATOM      9  C   UNL     1      33.441 -20.085 -20.576  0.00  0.00    +0.017 C 
ATOM     10  C   UNL     1      35.848 -20.299 -20.548  0.00  0.00    +0.017 C 
ATOM     11  C   UNL     1      33.336 -21.156 -19.688  0.00  0.00    +0.001 C 
ATOM     12  C   UNL     1      35.742 -21.370 -19.660  0.00  0.00    +0.001 C 
ATOM     13  C   UNL     1      34.486 -21.798 -19.231  0.00  0.00    +0.000 C 
ENDBRANCH   2   8
TORSDOF 1
ENDMDL
MODEL 2
REMARK VINA RESULT:      -8.4      0.118      1.345
REMARK  Name = 4021
REMARK  1 active torsions:
REMARK  status: ('A' for Active; 'I' for Inactive)
REMARK    1  A    between atoms: N_2  and  C_8
REMARK                            x       y       z     vdW  Elec       q    Type
REMARK                         _______ _______ _______ _____ _____    ______ ____
ROOT
ATOM      1  O   UNL     1      35.203 -16.745 -20.342  0.00  0.00    -0.272 OA
ATOM      2  N   UNL     1      34.793 -18.478 -21.910  0.00  0.00    -0.159 N 
ATOM      3  N   UNL     1      34.656 -18.585 -23.277  0.00  0.00    -0.180 NA
ATOM      4  C   UNL     1      35.054 -16.346 -22.735  0.00  0.00    +0.130 C 
ATOM      5  C   UNL     1      34.800 -17.395 -23.766  0.00  0.00    +0.064 C 
ATOM      6  C   UNL     1      35.037 -17.165 -21.476  0.00  0.00    +0.254 C 
ATOM      7  C   UNL     1      34.722 -17.072 -25.216  0.00  0.00    +0.049 C 
ENDROOT
BRANCH   2   8
ATOM      8  C   UNL     1      34.700 -19.558 -21.048  0.00  0.00    +0.077 C 
ATOM      9  C   UNL     1      35.855 -20.207 -20.599  0.00  0.00    +0.017 C 
ATOM     10  C   UNL     1      33.447 -20.012 -20.617  0.00  0.00    +0.017 C 
ATOM     11  C   UNL     1      35.761 -21.295 -19.730  0.00  0.00    +0.001 C 
ATOM     12  C   UNL     1      33.353 -21.100 -19.749  0.00  0.00    +0.001 C 
ATOM     13  C   UNL     1      34.510 -21.741 -19.305  0.00  0.00    +0.000 C 
ENDBRANCH   2   8
TORSDOF 1
ENDMDL
MODEL 3
REMARK VINA RESULT:      -8.0      1.497      1.955
REMARK  Name = 4021
REMARK  1 active torsions:
REMARK  status: ('A' for Active; 'I' for Inactive)
REMARK    1  A    between atoms: N_2  and  C_8
REMARK                            x       y       z     vdW  Elec       q    Type
REMARK                         _______ _______ _______ _____ _____    ______ ____
ROOT
ATOM      1  O   UNL     1      34.983 -19.423 -24.078  0.00  0.00    -0.272 OA
ATOM      2  N   UNL     1      34.592 -18.290 -22.031  0.00  0.00    -0.159 N 
ATOM      3  N   UNL     1      34.448 -16.984 -21.617  0.00  0.00    -0.180 NA
ATOM      4  C   UNL     1      34.816 -17.004 -23.925  0.00  0.00    +0.130 C 
ATOM      5  C   UNL     1      34.570 -16.238 -22.667  0.00  0.00    +0.064 C 
ATOM      6  C   UNL     1      34.818 -18.415 -23.411  0.00  0.00    +0.254 C 
ATOM      7  C   UNL     1      34.480 -14.753 -22.653  0.00  0.00    +0.049 C 
ENDROOT
BRANCH   2   8
ATOM      8  C   UNL     1      34.520 -19.375 -21.172  0.00  0.00    +0.077 C 
ATOM      9  C   UNL     1      33.278 -19.866 -20.755  0.00  0.00    +0.017 C 
ATOM     10  C   UNL     1      35.691 -19.990 -20.711  0.00  0.00    +0.017 C 
ATOM     11  C   UNL     1      33.207 -20.959 -19.890  0.00  0.00    +0.001 C 
ATOM     12  C   UNL     1      35.619 -21.082 -19.846  0.00  0.00    +0.001 C 
ATOM     13  C   UNL     1      34.377 -21.567 -19.436  0.00  0.00    +0.000 C 
ENDBRANCH   2   8
TORSDOF 1
ENDMDL
MODEL 4
REMARK VINA RESULT:      -7.9      1.512      2.422
REMARK  Name = 4021
REMARK  1 active torsions:
REMARK  status: ('A' for Active; 'I' for Inactive)
REMARK    1  A    between atoms: N_2  and  C_8
REMARK                            x       y       z     vdW  Elec       q    Type
REMARK                         _______ _______ _______ _____ _____    ______ ____
ROOT
ATOM      1  O   UNL     1      35.115 -18.980 -23.938  0.00  0.00    -0.272 OA
ATOM      2  N   UNL     1      34.592 -18.047 -21.821  0.00  0.00    -0.159 N 
ATOM      3  N   UNL     1      34.393 -16.788 -21.299  0.00  0.00    -0.180 NA
ATOM      4  C   UNL     1      34.875 -16.590 -23.577  0.00  0.00    +0.130 C 
ATOM      5  C   UNL     1      34.547 -15.947 -22.271  0.00  0.00    +0.064 C 
ATOM      6  C   UNL     1      34.890 -18.041 -23.193  0.00  0.00    +0.254 C 
ATOM      7  C   UNL     1      34.417 -14.471 -22.128  0.00  0.00    +0.049 C 
ENDROOT
BRANCH   2   8
ATOM      8  C   UNL     1      34.507 -19.207 -21.067  0.00  0.00    +0.077 C 
ATOM      9  C   UNL     1      35.668 -19.864 -20.647  0.00  0.00    +0.017 C 
ATOM     10  C   UNL     1      33.257 -19.732 -20.717  0.00  0.00    +0.017 C 
ATOM     11  C   UNL     1      35.582 -21.031 -19.886  0.00  0.00    +0.001 C 
ATOM     12  C   UNL     1      33.171 -20.899 -19.958  0.00  0.00    +0.001 C 
ATOM     13  C   UNL     1      34.334 -21.548 -19.542  0.00  0.00    +0.000 C 
ENDBRANCH   2   8
TORSDOF 1
ENDMDL
MODEL 5
REMARK VINA RESULT:      -7.8      1.691      4.967
REMARK  Name = 4021
REMARK  1 active torsions:
REMARK  status: ('A' for Active; 'I' for Inactive)
REMARK    1  A    between atoms: N_2  and  C_8
REMARK                            x       y       z     vdW  Elec       q    Type
REMARK                         _______ _______ _______ _____ _____    ______ ____
ROOT
ATOM      1  O   UNL     1      32.405 -20.227 -20.953  0.00  0.00    -0.272 OA
ATOM      2  N   UNL     1      34.721 -19.716 -20.898  0.00  0.00    -0.159 N 
ATOM      3  N   UNL     1      35.832 -20.159 -20.215  0.00  0.00    -0.180 NA
ATOM      4  C   UNL     1      33.970 -21.372 -19.490  0.00  0.00    +0.130 C 
ATOM      5  C   UNL     1      35.435 -21.095 -19.413  0.00  0.00    +0.064 C 
ATOM      6  C   UNL     1      33.540 -20.384 -20.536  0.00  0.00    +0.254 C 
ATOM      7  C   UNL     1      36.332 -21.841 -18.489  0.00  0.00    +0.049 C 
ENDROOT
BRANCH   2   8
ATOM      8  C   UNL     1      34.763 -18.710 -21.850  0.00  0.00    +0.077 C 
ATOM      9  C   UNL     1      34.842 -19.027 -23.211  0.00  0.00    +0.017 C 
ATOM     10  C   UNL     1      34.726 -17.366 -21.460  0.00  0.00    +0.017 C 
ATOM     11  C   UNL     1      34.884 -18.013 -24.169  0.00  0.00    +0.001 C 
ATOM     12  C   UNL     1      34.769 -16.353 -22.418  0.00  0.00    +0.001 C 
ATOM     13  C   UNL     1      34.847 -16.677 -23.773  0.00  0.00    +0.000 C 
ENDBRANCH   2   8
TORSDOF 1
ENDMDL
MODEL 6
REMARK VINA RESULT:      -7.4      1.401      4.833
REMARK  Name = 4021
REMARK  1 active torsions:
REMARK  status: ('A' for Active; 'I' for Inactive)
REMARK    1  A    between atoms: N_2  and  C_8
REMARK                            x       y       z     vdW  Elec       q    Type
REMARK                         _______ _______ _______ _____ _____    ______ ____
ROOT
ATOM      1  O   UNL     1      37.323 -19.427 -20.824  0.00  0.00    -0.272 OA
ATOM      2  N   UNL     1      34.991 -19.429 -21.257  0.00  0.00    -0.159 N 
ATOM      3  N   UNL     1      33.885 -20.115 -20.804  0.00  0.00    -0.180 NA
ATOM      4  C   UNL     1      35.775 -20.915 -19.686  0.00  0.00    +0.130 C 
ATOM      5  C   UNL     1      34.301 -20.960 -19.915  0.00  0.00    +0.064 C 
ATOM      6  C   UNL     1      36.187 -19.835 -20.645  0.00  0.00    +0.254 C 
ATOM      7  C   UNL     1      33.416 -21.901 -19.178  0.00  0.00    +0.049 C 
ENDROOT
BRANCH   2   8
ATOM      8  C   UNL     1      34.929 -18.436 -22.221  0.00  0.00    +0.077 C 
ATOM      9  C   UNL     1      34.882 -18.770 -23.579  0.00  0.00    +0.017 C 
ATOM     10  C   UNL     1      34.912 -17.087 -21.846  0.00  0.00    +0.017 C 
ATOM     11  C   UNL     1      34.819 -17.769 -24.549  0.00  0.00    +0.001 C 
ATOM     12  C   UNL     1      34.850 -16.087 -22.816  0.00  0.00    +0.001 C 
ATOM     13  C   UNL     1      34.803 -16.428 -24.168  0.00  0.00    +0.000 C 
ENDBRANCH   2   8
TORSDOF 1
ENDMDL
MODEL 7
REMARK VINA RESULT:      -7.2      1.508      4.949
REMARK  Name = 4021
REMARK  1 active torsions:
REMARK  status: ('A' for Active; 'I' for Inactive)
REMARK    1  A    between atoms: N_2  and  C_8
REMARK                            x       y       z     vdW  Elec       q    Type
REMARK                         _______ _______ _______ _____ _____    ______ ____
ROOT
ATOM      1  O   UNL     1      37.026 -18.676 -21.567  0.00  0.00    -0.272 OA
ATOM      2  N   UNL     1      34.697 -18.323 -21.284  0.00  0.00    -0.159 N 
ATOM      3  N   UNL     1      33.623 -19.041 -20.805  0.00  0.00    -0.180 NA
ATOM      4  C   UNL     1      35.544 -20.360 -20.633  0.00  0.00    +0.130 C 
ATOM      5  C   UNL     1      34.075 -20.195 -20.430  0.00  0.00    +0.064 C 
ATOM      6  C   UNL     1      35.909 -19.029 -21.225  0.00  0.00    +0.254 C 
ATOM      7  C   UNL     1      33.231 -21.275 -19.851  0.00  0.00    +0.049 C 
ENDROOT
BRANCH   2   8
ATOM      8  C   UNL     1      34.593 -17.032 -21.776  0.00  0.00    +0.077 C 
ATOM      9  C   UNL     1      34.609 -16.797 -23.155  0.00  0.00    +0.017 C 
ATOM     10  C   UNL     1      34.469 -15.949 -20.897  0.00  0.00    +0.017 C 
ATOM     11  C   UNL     1      34.502 -15.496 -23.649  0.00  0.00    +0.001 C 
ATOM     12  C   UNL     1      34.364 -14.649 -21.391  0.00  0.00    +0.001 C 
ATOM     13  C   UNL     1      34.380 -14.423 -22.767  0.00  0.00    +0.000 C 
ENDBRANCH   2   8
TORSDOF 1
ENDMDL
MODEL 8
REMARK VINA RESULT:      -7.1      9.235     11.931
REMARK  Name = 4021
REMARK  1 active torsions:
REMARK  status: ('A' for Active; 'I' for Inactive)
REMARK    1  A    between atoms: N_2  and  C_8
REMARK                            x       y       z     vdW  Elec       q    Type
REMARK                         _______ _______ _______ _____ _____    ______ ____
ROOT
ATOM      1  O   UNL     1      32.814  -7.166 -19.872  0.00  0.00    -0.272 OA
ATOM      2  N   UNL     1      32.463  -8.642 -21.696  0.00  0.00    -0.159 N 
ATOM      3  N   UNL     1      31.997  -9.926 -21.874  0.00  0.00    -0.180 NA
ATOM      4  C   UNL     1      31.935  -9.415 -19.595  0.00  0.00    +0.130 C 
ATOM      5  C   UNL     1      31.693 -10.385 -20.702  0.00  0.00    +0.064 C 
ATOM      6  C   UNL     1      32.466  -8.232 -20.353  0.00  0.00    +0.254 C 
ATOM      7  C   UNL     1      31.151 -11.748 -20.453  0.00  0.00    +0.049 C 
ENDROOT
BRANCH   2   8
ATOM      8  C   UNL     1      32.885  -7.833 -22.738  0.00  0.00    +0.077 C 
ATOM      9  C   UNL     1      34.215  -7.874 -23.172  0.00  0.00    +0.017 C 
ATOM     10  C   UNL     1      31.985  -6.965 -23.369  0.00  0.00    +0.017 C 
ATOM     11  C   UNL     1      34.639  -7.060 -24.223  0.00  0.00    +0.001 C 
ATOM     12  C   UNL     1      32.410  -6.151 -24.419  0.00  0.00    +0.001 C 
ATOM     13  C   UNL     1      33.737  -6.199 -24.846  0.00  0.00    +0.000 C 
ENDBRANCH   2   8
TORSDOF 1
ENDMDL
MODEL 9
REMARK VINA RESULT:      -7.0      3.109      4.365
REMARK  Name = 4021
REMARK  1 active torsions:
REMARK  status: ('A' for Active; 'I' for Inactive)
REMARK    1  A    between atoms: N_2  and  C_8
REMARK                            x       y       z     vdW  Elec       q    Type
REMARK                         _______ _______ _______ _____ _____    ______ ____
ROOT
ATOM      1  O   UNL     1      32.003 -15.318 -21.297  0.00  0.00    -0.272 OA
ATOM      2  N   UNL     1      33.855 -15.012 -22.747  0.00  0.00    -0.159 N 
ATOM      3  N   UNL     1      34.340 -14.011 -23.560  0.00  0.00    -0.180 NA
ATOM      4  C   UNL     1      32.380 -13.260 -22.532  0.00  0.00    +0.130 C 
ATOM      5  C   UNL     1      33.525 -13.010 -23.456  0.00  0.00    +0.064 C 
ATOM      6  C   UNL     1      32.672 -14.662 -22.078  0.00  0.00    +0.254 C 
ATOM      7  C   UNL     1      33.689 -11.721 -24.180  0.00  0.00    +0.049 C 
ENDROOT
BRANCH   2   8
ATOM      8  C   UNL     1      34.473 -16.244 -22.604  0.00  0.00    +0.077 C 
ATOM      9  C   UNL     1      34.718 -17.047 -23.723  0.00  0.00    +0.017 C 
ATOM     10  C   UNL     1      34.859 -16.697 -21.337  0.00  0.00    +0.017 C 
ATOM     11  C   UNL     1      35.342 -18.287 -23.578  0.00  0.00    +0.001 C 
ATOM     12  C   UNL     1      35.482 -17.937 -21.192  0.00  0.00    +0.001 C 
ATOM     13  C   UNL     1      35.723 -18.732 -22.313  0.00  0.00    +0.000 C 
ENDBRANCH   2   8
TORSDOF 1
ENDMDL
