MODEL 1
REMARK VINA RESULT:      -8.1      0.000      0.000
REMARK  Name = 9913
REMARK  8 active torsions:
REMARK  status: ('A' for Active; 'I' for Inactive)
REMARK    1  A    between atoms: N_3  and  C_14
REMARK    2  A    between atoms: C_14  and  C_15
REMARK    3  A    between atoms: C_15  and  O_16
REMARK    4  A    between atoms: C_15  and  C_18
REMARK    5  A    between atoms: C_18  and  N_19
REMARK    6  A    between atoms: N_19  and  C_22
REMARK    7  A    between atoms: C_22  and  C_23
REMARK    8  A    between atoms: C_23  and  O_24
REMARK                            x       y       z     vdW  Elec       q    Type
REMARK                         _______ _______ _______ _____ _____    ______ ____
ROOT
ATOM      1  O   UNL     1      33.028 -23.752 -12.994  0.00  0.00    -0.272 OA
ATOM      2  O   UNL     1      31.112 -23.125 -17.230  0.00  0.00    -0.252 OA
ATOM      3  N   UNL     1      35.654 -23.320 -14.359  0.00  0.00    -0.238 NA
ATOM      4  N   UNL     1      33.428 -22.995 -17.043  0.00  0.00    -0.228 N 
ATOM      5  N   UNL     1      32.046 -23.442 -15.105  0.00  0.00    -0.211 N 
ATOM      6  N   UNL     1      35.836 -22.914 -16.544  0.00  0.00    -0.240 NA
ATOM      7  C   UNL     1      34.382 -23.320 -14.855  0.00  0.00    +0.192 C 
ATOM      8  C   UNL     1      34.522 -23.070 -16.193  0.00  0.00    +0.136 C 
ATOM      9  C   UNL     1      36.494 -23.071 -15.414  0.00  0.00    +0.203 C 
ATOM     10  C   UNL     1      33.133 -23.527 -14.196  0.00  0.00    +0.254 C 
ATOM     11  C   UNL     1      32.124 -23.181 -16.521  0.00  0.00    +0.318 C 
ATOM     12  C   UNL     1      33.619 -22.727 -18.464  0.00  0.00    +0.123 C 
ATOM     13  C   UNL     1      30.711 -23.637 -14.549  0.00  0.00    +0.124 C 
ENDROOT
BRANCH   3  14
ATOM     14  C   UNL     1      36.065 -23.537 -12.993  0.00  0.00    +0.102 C 
BRANCH  14  15
ATOM     15  C   UNL     1      37.584 -23.713 -12.862  0.00  0.00    +0.106 C 
BRANCH  15  16
ATOM     16  O   UNL     1      38.085 -22.659 -12.036  0.00  0.00    -0.385 OA
ATOM     17  H   UNL     1      37.870 -21.803 -12.438  0.00  0.00    +0.210 HD
ENDBRANCH  15  16
BRANCH  15  18
ATOM     18  C   UNL     1      37.967 -25.047 -12.213  0.00  0.00    -0.046 C 
BRANCH  18  19
ATOM     19  N   UNL     1      38.410 -26.028 -13.193  0.00  0.00    +0.389 N 
ATOM     20  C   UNL     1      39.094 -25.372 -14.310  0.00  0.00    -0.100 C 
ATOM     21  H   UNL     1      39.068 -26.659 -12.737  0.00  0.00    -0.080 HD
BRANCH  19  22
ATOM     22  C   UNL     1      37.276 -26.815 -13.686  0.00  0.00    -0.045 C 
BRANCH  22  23
ATOM     23  C   UNL     1      37.124 -26.652 -15.190  0.00  0.00    +0.115 C 
BRANCH  23  24
ATOM     24  O   UNL     1      35.751 -26.427 -15.488  0.00  0.00    -0.384 OA
ATOM     25  H   UNL     1      35.671 -25.661 -16.078  0.00  0.00    +0.210 HD
ENDBRANCH  23  24
ENDBRANCH  22  23
ENDBRANCH  19  22
ENDBRANCH  18  19
ENDBRANCH  15  18
ENDBRANCH  14  15
ENDBRANCH   3  14
TORSDOF 8
ENDMDL
MODEL 2
REMARK VINA RESULT:      -7.6      1.930      3.206
REMARK  Name = 9913
REMARK  8 active torsions:
REMARK  status: ('A' for Active; 'I' for Inactive)
REMARK    1  A    between atoms: N_3  and  C_14
REMARK    2  A    between atoms: C_14  and  C_15
REMARK    3  A    between atoms: C_15  and  O_16
REMARK    4  A    between atoms: C_15  and  C_18
REMARK    5  A    between atoms: C_18  and  N_19
REMARK    6  A    between atoms: N_19  and  C_22
REMARK    7  A    between atoms: C_22  and  C_23
REMARK    8  A    between atoms: C_23  and  O_24
REMARK                            x       y       z     vdW  Elec       q    Type
REMARK                         _______ _______ _______ _____ _____    ______ ____
ROOT
ATOM      1  O   UNL     1      37.584 -22.493 -15.268  0.00  0.00    -0.272 OA
ATOM      2  O   UNL     1      34.138 -22.428 -18.452  0.00  0.00    -0.252 OA
ATOM      3  N   UNL     1      35.536 -23.614 -13.398  0.00  0.00    -0.238 NA
ATOM      4  N   UNL     1      33.646 -23.215 -16.319  0.00  0.00    -0.228 N 
ATOM      5  N   UNL     1      35.875 -22.451 -16.880  0.00  0.00    -0.211 N 
ATOM      6  N   UNL     1      33.421 -23.992 -13.994  0.00  0.00    -0.240 NA
ATOM      7  C   UNL     1      35.435 -23.238 -14.706  0.00  0.00    +0.192 C 
ATOM      8  C   UNL     1      34.132 -23.479 -15.046  0.00  0.00    +0.136 C 
ATOM      9  C   UNL     1      34.298 -24.060 -13.013  0.00  0.00    +0.203 C 
ATOM     10  C   UNL     1      36.418 -22.704 -15.592  0.00  0.00    +0.254 C 
ATOM     11  C   UNL     1      34.516 -22.682 -17.302  0.00  0.00    +0.318 C 
ATOM     12  C   UNL     1      32.250 -23.485 -16.642  0.00  0.00    +0.123 C 
ATOM     13  C   UNL     1      36.785 -21.900 -17.878  0.00  0.00    +0.124 C 
ENDROOT
BRANCH   3  14
ATOM     14  C   UNL     1      36.706 -23.562 -12.555  0.00  0.00    +0.102 C 
BRANCH  14  15
ATOM     15  C   UNL     1      36.992 -24.904 -11.870  0.00  0.00    +0.106 C 
BRANCH  15  16
ATOM     16  O   UNL     1      35.920 -25.180 -10.965  0.00  0.00    -0.385 OA
ATOM     17  H   UNL     1      36.283 -25.397 -10.092  0.00  0.00    +0.210 HD
ENDBRANCH  15  16
BRANCH  15  18
ATOM     18  C   UNL     1      37.079 -26.065 -12.867  0.00  0.00    -0.046 C 
BRANCH  18  19
ATOM     19  N   UNL     1      37.749 -25.680 -14.101  0.00  0.00    +0.389 N 
ATOM     20  C   UNL     1      37.212 -26.430 -15.238  0.00  0.00    -0.100 C 
ATOM     21  H   UNL     1      37.578 -24.686 -14.259  0.00  0.00    -0.080 HD
BRANCH  19  22
ATOM     22  C   UNL     1      39.195 -25.891 -13.993  0.00  0.00    -0.045 C 
BRANCH  22  23
ATOM     23  C   UNL     1      39.935 -25.097 -15.057  0.00  0.00    +0.115 C 
BRANCH  23  24
ATOM     24  O   UNL     1      40.482 -26.004 -16.005  0.00  0.00    -0.384 OA
ATOM     25  H   UNL     1      41.326 -25.657 -16.335  0.00  0.00    +0.210 HD
ENDBRANCH  23  24
ENDBRANCH  22  23
ENDBRANCH  19  22
ENDBRANCH  18  19
ENDBRANCH  15  18
ENDBRANCH  14  15
ENDBRANCH   3  14
TORSDOF 8
ENDMDL
MODEL 3
REMARK VINA RESULT:      -7.5      1.942      3.363
REMARK  Name = 9913
REMARK  8 active torsions:
REMARK  status: ('A' for Active; 'I' for Inactive)
REMARK    1  A    between atoms: N_3  and  C_14
REMARK    2  A    between atoms: C_14  and  C_15
REMARK    3  A    between atoms: C_15  and  O_16
REMARK    4  A    between atoms: C_15  and  C_18
REMARK    5  A    between atoms: C_18  and  N_19
REMARK    6  A    between atoms: N_19  and  C_22
REMARK    7  A    between atoms: C_22  and  C_23
REMARK    8  A    between atoms: C_23  and  O_24
REMARK                            x       y       z     vdW  Elec       q    Type
REMARK                         _______ _______ _______ _____ _____    ______ ____
ROOT
ATOM      1  O   UNL     1      37.080 -22.082 -17.461  0.00  0.00    -0.272 OA
ATOM      2  O   UNL     1      32.739 -22.266 -19.229  0.00  0.00    -0.252 OA
ATOM      3  N   UNL     1      35.884 -23.252 -14.981  0.00  0.00    -0.238 NA
ATOM      4  N   UNL     1      33.070 -23.021 -17.053  0.00  0.00    -0.228 N 
ATOM      5  N   UNL     1      34.915 -22.164 -18.368  0.00  0.00    -0.211 N 
ATOM      6  N   UNL     1      33.718 -23.748 -14.793  0.00  0.00    -0.240 NA
ATOM      7  C   UNL     1      35.310 -22.915 -16.174  0.00  0.00    +0.192 C 
ATOM      8  C   UNL     1      33.986 -23.229 -16.031  0.00  0.00    +0.136 C 
ATOM      9  C   UNL     1      34.886 -23.748 -14.183  0.00  0.00    +0.203 C 
ATOM     10  C   UNL     1      35.888 -22.357 -17.353  0.00  0.00    +0.254 C 
ATOM     11  C   UNL     1      33.509 -22.472 -18.284  0.00  0.00    +0.318 C 
ATOM     12  C   UNL     1      31.667 -23.367 -16.863  0.00  0.00    +0.123 C 
ATOM     13  C   UNL     1      35.385 -21.596 -19.627  0.00  0.00    +0.124 C 
ENDROOT
BRANCH   3  14
ATOM     14  C   UNL     1      37.271 -23.121 -14.605  0.00  0.00    +0.102 C 
BRANCH  14  15
ATOM     15  C   UNL     1      38.124 -24.293 -15.107  0.00  0.00    +0.106 C 
BRANCH  15  16
ATOM     16  O   UNL     1      39.151 -23.768 -15.951  0.00  0.00    -0.385 OA
ATOM     17  H   UNL     1      38.885 -23.859 -16.879  0.00  0.00    +0.210 HD
ENDBRANCH  15  16
BRANCH  15  18
ATOM     18  C   UNL     1      38.798 -25.061 -13.964  0.00  0.00    -0.046 C 
BRANCH  18  19
ATOM     19  N   UNL     1      38.072 -26.273 -13.614  0.00  0.00    +0.389 N 
ATOM     20  C   UNL     1      37.233 -26.715 -14.730  0.00  0.00    -0.100 C 
ATOM     21  H   UNL     1      38.753 -27.005 -13.412  0.00  0.00    -0.080 HD
BRANCH  19  22
ATOM     22  C   UNL     1      37.252 -26.059 -12.419  0.00  0.00    -0.045 C 
BRANCH  22  23
ATOM     23  C   UNL     1      37.723 -24.829 -11.659  0.00  0.00    +0.115 C 
BRANCH  23  24
ATOM     24  O   UNL     1      36.664 -24.374 -10.825  0.00  0.00    -0.384 OA
ATOM     25  H   UNL     1      37.000 -23.697 -10.218  0.00  0.00    +0.210 HD
ENDBRANCH  23  24
ENDBRANCH  22  23
ENDBRANCH  19  22
ENDBRANCH  18  19
ENDBRANCH  15  18
ENDBRANCH  14  15
ENDBRANCH   3  14
TORSDOF 8
ENDMDL
MODEL 4
REMARK VINA RESULT:      -7.4      7.470      9.849
REMARK  Name = 9913
REMARK  8 active torsions:
REMARK  status: ('A' for Active; 'I' for Inactive)
REMARK    1  A    between atoms: N_3  and  C_14
REMARK    2  A    between atoms: C_14  and  C_15
REMARK    3  A    between atoms: C_15  and  O_16
REMARK    4  A    between atoms: C_15  and  C_18
REMARK    5  A    between atoms: C_18  and  N_19
REMARK    6  A    between atoms: N_19  and  C_22
REMARK    7  A    between atoms: C_22  and  C_23
REMARK    8  A    between atoms: C_23  and  O_24
REMARK                            x       y       z     vdW  Elec       q    Type
REMARK                         _______ _______ _______ _____ _____    ______ ____
ROOT
ATOM      1  O   UNL     1      34.890 -16.027 -20.457  0.00  0.00    -0.272 OA
ATOM      2  O   UNL     1      32.587 -13.532 -23.695  0.00  0.00    -0.252 OA
ATOM      3  N   UNL     1      35.553 -17.903 -22.691  0.00  0.00    -0.238 NA
ATOM      4  N   UNL     1      33.654 -15.486 -24.371  0.00  0.00    -0.228 N 
ATOM      5  N   UNL     1      33.730 -14.761 -22.061  0.00  0.00    -0.211 N 
ATOM      6  N   UNL     1      34.872 -17.583 -24.790  0.00  0.00    -0.240 NA
ATOM      7  C   UNL     1      34.829 -16.745 -22.686  0.00  0.00    +0.192 C 
ATOM      8  C   UNL     1      34.425 -16.573 -23.982  0.00  0.00    +0.136 C 
ATOM      9  C   UNL     1      35.549 -18.371 -23.980  0.00  0.00    +0.203 C 
ATOM     10  C   UNL     1      34.518 -15.855 -21.615  0.00  0.00    +0.254 C 
ATOM     11  C   UNL     1      33.271 -14.520 -23.406  0.00  0.00    +0.318 C 
ATOM     12  C   UNL     1      33.242 -15.338 -25.761  0.00  0.00    +0.123 C 
ATOM     13  C   UNL     1      33.344 -13.778 -21.053  0.00  0.00    +0.124 C 
ENDROOT
BRANCH   3  14
ATOM     14  C   UNL     1      36.205 -18.537 -21.571  0.00  0.00    +0.102 C 
BRANCH  14  15
ATOM     15  C   UNL     1      35.259 -19.455 -20.788  0.00  0.00    +0.106 C 
BRANCH  15  16
ATOM     16  O   UNL     1      34.123 -19.731 -21.611  0.00  0.00    -0.385 OA
ATOM     17  H   UNL     1      33.542 -20.363 -21.159  0.00  0.00    +0.210 HD
ENDBRANCH  15  16
BRANCH  15  18
ATOM     18  C   UNL     1      35.910 -20.792 -20.417  0.00  0.00    -0.046 C 
BRANCH  18  19
ATOM     19  N   UNL     1      35.472 -21.273 -19.115  0.00  0.00    +0.389 N 
ATOM     20  C   UNL     1      36.622 -21.568 -18.257  0.00  0.00    -0.100 C 
ATOM     21  H   UNL     1      34.919 -20.538 -18.673  0.00  0.00    -0.080 HD
BRANCH  19  22
ATOM     22  C   UNL     1      34.630 -22.464 -19.260  0.00  0.00    -0.045 C 
BRANCH  22  23
ATOM     23  C   UNL     1      33.261 -22.232 -18.639  0.00  0.00    +0.115 C 
BRANCH  23  24
ATOM     24  O   UNL     1      32.657 -21.111 -19.271  0.00  0.00    -0.384 OA
ATOM     25  H   UNL     1      32.154 -20.603 -18.615  0.00  0.00    +0.210 HD
ENDBRANCH  23  24
ENDBRANCH  22  23
ENDBRANCH  19  22
ENDBRANCH  18  19
ENDBRANCH  15  18
ENDBRANCH  14  15
ENDBRANCH   3  14
TORSDOF 8
ENDMDL
MODEL 5
REMARK VINA RESULT:      -7.3      1.575      3.318
REMARK  Name = 9913
REMARK  8 active torsions:
REMARK  status: ('A' for Active; 'I' for Inactive)
REMARK    1  A    between atoms: N_3  and  C_14
REMARK    2  A    between atoms: C_14  and  C_15
REMARK    3  A    between atoms: C_15  and  O_16
REMARK    4  A    between atoms: C_15  and  C_18
REMARK    5  A    between atoms: C_18  and  N_19
REMARK    6  A    between atoms: N_19  and  C_22
REMARK    7  A    between atoms: C_22  and  C_23
REMARK    8  A    between atoms: C_23  and  O_24
REMARK                            x       y       z     vdW  Elec       q    Type
REMARK                         _______ _______ _______ _____ _____    ______ ____
ROOT
ATOM      1  O   UNL     1      35.131 -23.209 -17.241  0.00  0.00    -0.272 OA
ATOM      2  O   UNL     1      30.520 -22.345 -17.189  0.00  0.00    -0.252 OA
ATOM      3  N   UNL     1      34.759 -24.175 -14.435  0.00  0.00    -0.238 NA
ATOM      4  N   UNL     1      31.490 -23.238 -15.272  0.00  0.00    -0.228 N 
ATOM      5  N   UNL     1      32.823 -22.768 -17.239  0.00  0.00    -0.211 N 
ATOM      6  N   UNL     1      32.783 -24.178 -13.401  0.00  0.00    -0.240 NA
ATOM      7  C   UNL     1      33.859 -23.672 -15.330  0.00  0.00    +0.192 C 
ATOM      8  C   UNL     1      32.659 -23.685 -14.672  0.00  0.00    +0.136 C 
ATOM      9  C   UNL     1      34.064 -24.464 -13.288  0.00  0.00    +0.203 C 
ATOM     10  C   UNL     1      34.045 -23.213 -16.668  0.00  0.00    +0.254 C 
ATOM     11  C   UNL     1      31.529 -22.754 -16.604  0.00  0.00    +0.318 C 
ATOM     12  C   UNL     1      30.231 -23.267 -14.538  0.00  0.00    +0.123 C 
ATOM     13  C   UNL     1      32.884 -22.272 -18.610  0.00  0.00    +0.124 C 
ENDROOT
BRANCH   3  14
ATOM     14  C   UNL     1      36.175 -24.374 -14.629  0.00  0.00    +0.102 C 
BRANCH  14  15
ATOM     15  C   UNL     1      36.570 -25.855 -14.563  0.00  0.00    +0.106 C 
BRANCH  15  16
ATOM     16  O   UNL     1      35.847 -26.555 -15.579  0.00  0.00    -0.385 OA
ATOM     17  H   UNL     1      35.540 -25.924 -16.249  0.00  0.00    +0.210 HD
ENDBRANCH  15  16
BRANCH  15  18
ATOM     18  C   UNL     1      38.066 -26.075 -14.810  0.00  0.00    -0.046 C 
BRANCH  18  19
ATOM     19  N   UNL     1      38.893 -25.208 -13.982  0.00  0.00    +0.389 N 
ATOM     20  C   UNL     1      40.314 -25.450 -14.237  0.00  0.00    -0.100 C 
ATOM     21  H   UNL     1      38.681 -24.240 -14.225  0.00  0.00    -0.080 HD
BRANCH  19  22
ATOM     22  C   UNL     1      38.591 -25.408 -12.563  0.00  0.00    -0.045 C 
BRANCH  22  23
ATOM     23  C   UNL     1      38.320 -24.077 -11.879  0.00  0.00    +0.115 C 
BRANCH  23  24
ATOM     24  O   UNL     1      37.220 -24.235 -10.992  0.00  0.00    -0.384 OA
ATOM     25  H   UNL     1      37.115 -25.173 -10.771  0.00  0.00    +0.210 HD
ENDBRANCH  23  24
ENDBRANCH  22  23
ENDBRANCH  19  22
ENDBRANCH  18  19
ENDBRANCH  15  18
ENDBRANCH  14  15
ENDBRANCH   3  14
TORSDOF 8
ENDMDL
MODEL 6
REMARK VINA RESULT:      -7.2      1.645      2.400
REMARK  Name = 9913
REMARK  8 active torsions:
REMARK  status: ('A' for Active; 'I' for Inactive)
REMARK    1  A    between atoms: N_3  and  C_14
REMARK    2  A    between atoms: C_14  and  C_15
REMARK    3  A    between atoms: C_15  and  O_16
REMARK    4  A    between atoms: C_15  and  C_18
REMARK    5  A    between atoms: C_18  and  N_19
REMARK    6  A    between atoms: N_19  and  C_22
REMARK    7  A    between atoms: C_22  and  C_23
REMARK    8  A    between atoms: C_23  and  O_24
REMARK                            x       y       z     vdW  Elec       q    Type
REMARK                         _______ _______ _______ _____ _____    ______ ____
ROOT
ATOM      1  O   UNL     1      34.482 -23.625 -14.070  0.00  0.00    -0.272 OA
ATOM      2  O   UNL     1      31.567 -23.050 -17.701  0.00  0.00    -0.252 OA
ATOM      3  N   UNL     1      36.621 -22.639 -15.914  0.00  0.00    -0.238 NA
ATOM      4  N   UNL     1      33.813 -22.526 -18.004  0.00  0.00    -0.228 N 
ATOM      5  N   UNL     1      33.003 -23.345 -15.874  0.00  0.00    -0.211 N 
ATOM      6  N   UNL     1      36.229 -22.054 -18.029  0.00  0.00    -0.240 NA
ATOM      7  C   UNL     1      35.285 -22.830 -16.121  0.00  0.00    +0.192 C 
ATOM      8  C   UNL     1      35.072 -22.465 -17.423  0.00  0.00    +0.136 C 
ATOM      9  C   UNL     1      37.146 -22.172 -17.091  0.00  0.00    +0.203 C 
ATOM     10  C   UNL     1      34.270 -23.301 -15.235  0.00  0.00    +0.254 C 
ATOM     11  C   UNL     1      32.710 -22.976 -17.237  0.00  0.00    +0.318 C 
ATOM     12  C   UNL     1      33.627 -22.129 -19.394  0.00  0.00    +0.123 C 
ATOM     13  C   UNL     1      31.880 -23.813 -15.068  0.00  0.00    +0.124 C 
ENDROOT
BRANCH   3  14
ATOM     14  C   UNL     1      37.365 -22.876 -14.700  0.00  0.00    +0.102 C 
BRANCH  14  15
ATOM     15  C   UNL     1      37.967 -24.286 -14.651  0.00  0.00    +0.106 C 
BRANCH  15  16
ATOM     16  O   UNL     1      39.134 -24.301 -15.477  0.00  0.00    -0.385 OA
ATOM     17  H   UNL     1      39.918 -24.133 -14.932  0.00  0.00    +0.210 HD
ENDBRANCH  15  16
BRANCH  15  18
ATOM     18  C   UNL     1      38.386 -24.696 -13.235  0.00  0.00    -0.046 C 
BRANCH  18  19
ATOM     19  N   UNL     1      37.546 -25.760 -12.702  0.00  0.00    +0.389 N 
ATOM     20  C   UNL     1      37.153 -26.691 -13.762  0.00  0.00    -0.100 C 
ATOM     21  H   UNL     1      38.087 -26.273 -12.005  0.00  0.00    -0.080 HD
BRANCH  19  22
ATOM     22  C   UNL     1      36.358 -25.204 -12.050  0.00  0.00    -0.045 C 
BRANCH  22  23
ATOM     23  C   UNL     1      36.716 -23.962 -11.250  0.00  0.00    +0.115 C 
BRANCH  23  24
ATOM     24  O   UNL     1      36.268 -24.137  -9.911  0.00  0.00    -0.384 OA
ATOM     25  H   UNL     1      35.315 -24.317  -9.910  0.00  0.00    +0.210 HD
ENDBRANCH  23  24
ENDBRANCH  22  23
ENDBRANCH  19  22
ENDBRANCH  18  19
ENDBRANCH  15  18
ENDBRANCH  14  15
ENDBRANCH   3  14
TORSDOF 8
ENDMDL
MODEL 7
REMARK VINA RESULT:      -7.1     11.590     14.051
REMARK  Name = 9913
REMARK  8 active torsions:
REMARK  status: ('A' for Active; 'I' for Inactive)
REMARK    1  A    between atoms: N_3  and  C_14
REMARK    2  A    between atoms: C_14  and  C_15
REMARK    3  A    between atoms: C_15  and  O_16
REMARK    4  A    between atoms: C_15  and  C_18
REMARK    5  A    between atoms: C_18  and  N_19
REMARK    6  A    between atoms: N_19  and  C_22
REMARK    7  A    between atoms: C_22  and  C_23
REMARK    8  A    between atoms: C_23  and  O_24
REMARK                            x       y       z     vdW  Elec       q    Type
REMARK                         _______ _______ _______ _____ _____    ______ ____
ROOT
ATOM      1  O   UNL     1      31.783 -13.157 -21.635  0.00  0.00    -0.272 OA
ATOM      2  O   UNL     1      31.792  -8.484 -21.220  0.00  0.00    -0.252 OA
ATOM      3  N   UNL     1      33.394 -12.720 -24.117  0.00  0.00    -0.238 NA
ATOM      4  N   UNL     1      32.897  -9.426 -23.038  0.00  0.00    -0.228 N 
ATOM      5  N   UNL     1      31.774 -10.819 -21.406  0.00  0.00    -0.211 N 
ATOM      6  N   UNL     1      33.979 -10.697 -24.847  0.00  0.00    -0.240 NA
ATOM      7  C   UNL     1      32.876 -11.828 -23.223  0.00  0.00    +0.192 C 
ATOM      8  C   UNL     1      33.248 -10.598 -23.694  0.00  0.00    +0.136 C 
ATOM      9  C   UNL     1      34.049 -11.992 -25.077  0.00  0.00    +0.203 C 
ATOM     10  C   UNL     1      32.108 -12.045 -22.040  0.00  0.00    +0.254 C 
ATOM     11  C   UNL     1      32.133  -9.494 -21.846  0.00  0.00    +0.318 C 
ATOM     12  C   UNL     1      33.312  -8.134 -23.571  0.00  0.00    +0.123 C 
ATOM     13  C   UNL     1      30.985 -10.910 -20.181  0.00  0.00    +0.124 C 
ENDROOT
BRANCH   3  14
ATOM     14  C   UNL     1      33.289 -14.159 -24.085  0.00  0.00    +0.102 C 
BRANCH  14  15
ATOM     15  C   UNL     1      34.525 -14.821 -23.463  0.00  0.00    +0.106 C 
BRANCH  15  16
ATOM     16  O   UNL     1      34.820 -14.151 -22.235  0.00  0.00    -0.385 OA
ATOM     17  H   UNL     1      35.269 -14.764 -21.633  0.00  0.00    +0.210 HD
ENDBRANCH  15  16
BRANCH  15  18
ATOM     18  C   UNL     1      34.303 -16.305 -23.151  0.00  0.00    -0.046 C 
BRANCH  18  19
ATOM     19  N   UNL     1      35.224 -17.164 -23.883  0.00  0.00    +0.389 N 
ATOM     20  C   UNL     1      34.577 -17.723 -25.071  0.00  0.00    -0.100 C 
ATOM     21  H   UNL     1      36.017 -16.597 -24.182  0.00  0.00    -0.080 HD
BRANCH  19  22
ATOM     22  C   UNL     1      35.721 -18.241 -23.023  0.00  0.00    -0.045 C 
BRANCH  22  23
ATOM     23  C   UNL     1      34.907 -18.323 -21.741  0.00  0.00    +0.115 C 
BRANCH  23  24
ATOM     24  O   UNL     1      35.794 -18.259 -20.632  0.00  0.00    -0.384 OA
ATOM     25  H   UNL     1      36.710 -18.293 -20.948  0.00  0.00    +0.210 HD
ENDBRANCH  23  24
ENDBRANCH  22  23
ENDBRANCH  19  22
ENDBRANCH  18  19
ENDBRANCH  15  18
ENDBRANCH  14  15
ENDBRANCH   3  14
TORSDOF 8
ENDMDL
MODEL 8
REMARK VINA RESULT:      -7.1      8.013     10.605
REMARK  Name = 9913
REMARK  8 active torsions:
REMARK  status: ('A' for Active; 'I' for Inactive)
REMARK    1  A    between atoms: N_3  and  C_14
REMARK    2  A    between atoms: C_14  and  C_15
REMARK    3  A    between atoms: C_15  and  O_16
REMARK    4  A    between atoms: C_15  and  C_18
REMARK    5  A    between atoms: C_18  and  N_19
REMARK    6  A    between atoms: N_19  and  C_22
REMARK    7  A    between atoms: C_22  and  C_23
REMARK    8  A    between atoms: C_23  and  O_24
REMARK                            x       y       z     vdW  Elec       q    Type
REMARK                         _______ _______ _______ _____ _____    ______ ____
ROOT
ATOM      1  O   UNL     1      34.869 -17.118 -24.526  0.00  0.00    -0.272 OA
ATOM      2  O   UNL     1      32.178 -13.285 -24.824  0.00  0.00    -0.252 OA
ATOM      3  N   UNL     1      34.918 -16.586 -21.583  0.00  0.00    -0.238 NA
ATOM      4  N   UNL     1      32.928 -13.938 -22.721  0.00  0.00    -0.228 N 
ATOM      5  N   UNL     1      33.520 -15.202 -24.701  0.00  0.00    -0.211 N 
ATOM      6  N   UNL     1      33.862 -14.864 -20.640  0.00  0.00    -0.240 NA
ATOM      7  C   UNL     1      34.307 -15.910 -22.600  0.00  0.00    +0.192 C 
ATOM      8  C   UNL     1      33.668 -14.862 -21.995  0.00  0.00    +0.136 C 
ATOM      9  C   UNL     1      34.622 -15.918 -20.423  0.00  0.00    +0.203 C 
ATOM     10  C   UNL     1      34.288 -16.171 -24.002  0.00  0.00    +0.254 C 
ATOM     11  C   UNL     1      32.824 -14.077 -24.127  0.00  0.00    +0.318 C 
ATOM     12  C   UNL     1      32.263 -12.834 -22.040  0.00  0.00    +0.123 C 
ATOM     13  C   UNL     1      33.426 -15.360 -26.148  0.00  0.00    +0.124 C 
ENDROOT
BRANCH   3  14
ATOM     14  C   UNL     1      35.728 -17.777 -21.680  0.00  0.00    +0.102 C 
BRANCH  14  15
ATOM     15  C   UNL     1      34.884 -19.059 -21.660  0.00  0.00    +0.106 C 
BRANCH  15  16
ATOM     16  O   UNL     1      34.849 -19.590 -22.987  0.00  0.00    -0.385 OA
ATOM     17  H   UNL     1      33.928 -19.651 -23.286  0.00  0.00    +0.210 HD
ENDBRANCH  15  16
BRANCH  15  18
ATOM     18  C   UNL     1      35.470 -20.132 -20.737  0.00  0.00    -0.046 C 
BRANCH  18  19
ATOM     19  N   UNL     1      34.462 -21.084 -20.293  0.00  0.00    +0.389 N 
ATOM     20  C   UNL     1      33.163 -20.426 -20.133  0.00  0.00    -0.100 C 
ATOM     21  H   UNL     1      34.372 -21.808 -21.005  0.00  0.00    -0.080 HD
BRANCH  19  22
ATOM     22  C   UNL     1      34.866 -21.717 -19.035  0.00  0.00    -0.045 C 
BRANCH  22  23
ATOM     23  C   UNL     1      33.837 -22.747 -18.597  0.00  0.00    +0.115 C 
BRANCH  23  24
ATOM     24  O   UNL     1      33.895 -23.857 -19.484  0.00  0.00    -0.384 OA
ATOM     25  H   UNL     1      34.797 -24.214 -19.496  0.00  0.00    +0.210 HD
ENDBRANCH  23  24
ENDBRANCH  22  23
ENDBRANCH  19  22
ENDBRANCH  18  19
ENDBRANCH  15  18
ENDBRANCH  14  15
ENDBRANCH   3  14
TORSDOF 8
ENDMDL
MODEL 9
REMARK VINA RESULT:      -7.1      1.629      2.718
REMARK  Name = 9913
REMARK  8 active torsions:
REMARK  status: ('A' for Active; 'I' for Inactive)
REMARK    1  A    between atoms: N_3  and  C_14
REMARK    2  A    between atoms: C_14  and  C_15
REMARK    3  A    between atoms: C_15  and  O_16
REMARK    4  A    between atoms: C_15  and  C_18
REMARK    5  A    between atoms: C_18  and  N_19
REMARK    6  A    between atoms: N_19  and  C_22
REMARK    7  A    between atoms: C_22  and  C_23
REMARK    8  A    between atoms: C_23  and  O_24
REMARK                            x       y       z     vdW  Elec       q    Type
REMARK                         _______ _______ _______ _____ _____    ______ ____
ROOT
ATOM      1  O   UNL     1      35.562 -22.639 -16.688  0.00  0.00    -0.272 OA
ATOM      2  O   UNL     1      31.073 -23.949 -16.319  0.00  0.00    -0.252 OA
ATOM      3  N   UNL     1      35.815 -23.480 -13.829  0.00  0.00    -0.238 NA
ATOM      4  N   UNL     1      32.439 -24.178 -14.450  0.00  0.00    -0.228 N 
ATOM      5  N   UNL     1      33.310 -23.289 -16.527  0.00  0.00    -0.211 N 
ATOM      6  N   UNL     1      34.113 -24.306 -12.649  0.00  0.00    -0.240 NA
ATOM      7  C   UNL     1      34.740 -23.498 -14.671  0.00  0.00    +0.192 C 
ATOM      8  C   UNL     1      33.713 -24.008 -13.924  0.00  0.00    +0.136 C 
ATOM      9  C   UNL     1      35.387 -23.975 -12.624  0.00  0.00    +0.203 C 
ATOM     10  C   UNL     1      34.628 -23.096 -16.035  0.00  0.00    +0.254 C 
ATOM     11  C   UNL     1      32.186 -23.819 -15.797  0.00  0.00    +0.318 C 
ATOM     12  C   UNL     1      31.371 -24.724 -13.622  0.00  0.00    +0.123 C 
ATOM     13  C   UNL     1      33.068 -22.911 -17.916  0.00  0.00    +0.124 C 
ENDROOT
BRANCH   3  14
ATOM     14  C   UNL     1      37.154 -23.030 -14.122  0.00  0.00    +0.102 C 
BRANCH  14  15
ATOM     15  C   UNL     1      38.030 -24.147 -14.705  0.00  0.00    +0.106 C 
BRANCH  15  16
ATOM     16  O   UNL     1      38.843 -23.584 -15.737  0.00  0.00    -0.385 OA
ATOM     17  H   UNL     1      39.530 -24.220 -15.990  0.00  0.00    +0.210 HD
ENDBRANCH  15  16
BRANCH  15  18
ATOM     18  C   UNL     1      38.959 -24.771 -13.658  0.00  0.00    -0.046 C 
BRANCH  18  19
ATOM     19  N   UNL     1      39.212 -26.181 -13.920  0.00  0.00    +0.389 N 
ATOM     20  C   UNL     1      40.551 -26.373 -14.479  0.00  0.00    -0.100 C 
ATOM     21  H   UNL     1      39.156 -26.684 -13.033  0.00  0.00    -0.080 HD
BRANCH  19  22
ATOM     22  C   UNL     1      38.200 -26.728 -14.828  0.00  0.00    -0.045 C 
BRANCH  22  23
ATOM     23  C   UNL     1      36.922 -27.055 -14.073  0.00  0.00    +0.115 C 
BRANCH  23  24
ATOM     24  O   UNL     1      35.809 -26.730 -14.897  0.00  0.00    -0.384 OA
ATOM     25  H   UNL     1      35.209 -27.490 -14.944  0.00  0.00    +0.210 HD
ENDBRANCH  23  24
ENDBRANCH  22  23
ENDBRANCH  19  22
ENDBRANCH  18  19
ENDBRANCH  15  18
ENDBRANCH  14  15
ENDBRANCH   3  14
TORSDOF 8
ENDMDL
