MODEL 1
REMARK VINA RESULT:      -9.7      0.000      0.000
REMARK  Name = 183797
REMARK  10 active torsions:
REMARK  status: ('A' for Active; 'I' for Inactive)
REMARK    1  A    between atoms: C_3  and  C_9
REMARK    2  A    between atoms: C_6  and  C_24
REMARK    3  A    between atoms: N_8  and  C_11
REMARK    4  A    between atoms: C_11  and  C_12
REMARK    5  A    between atoms: C_17  and  C_20
REMARK    6  A    between atoms: C_24  and  C_25
REMARK    7  A    between atoms: C_24  and  N_31
REMARK    8  A    between atoms: N_31  and  C_34
REMARK    9  A    between atoms: C_34  and  C_36
REMARK   10  A    between atoms: C_36  and  O_37
REMARK                            x       y       z     vdW  Elec       q    Type
REMARK                         _______ _______ _______ _____ _____    ______ ____
ROOT
ATOM      1  O   UNL     1      35.062 -14.716 -23.622  0.00  0.00    -0.277 OA
ATOM      2  N   UNL     1      33.455 -14.423 -22.009  0.00  0.00    -0.275 N 
ATOM      3  C   UNL     1      33.747 -15.346 -20.931  0.00  0.00    +0.153 C 
ATOM      4  C   UNL     1      32.267 -13.870 -21.392  0.00  0.00    +0.096 C 
ATOM      5  C   UNL     1      32.738 -14.545 -20.098  0.00  0.00    +0.051 C 
ATOM      6  C   UNL     1      34.040 -14.166 -23.218  0.00  0.00    +0.206 C 
ENDROOT
BRANCH   3   9
ATOM      7  O   UNL     1      32.344 -17.342 -20.932  0.00  0.00    -0.273 OA
ATOM      8  N   UNL     1      34.430 -17.473 -21.924  0.00  0.00    -0.299 N 
ATOM      9  C   UNL     1      33.415 -16.813 -21.247  0.00  0.00    +0.241 C 
ATOM     10  H   UNL     1      35.253 -16.974 -22.136  0.00  0.00    +0.150 HD
BRANCH   8  11
ATOM     11  C   UNL     1      34.340 -18.856 -22.334  0.00  0.00    +0.116 C 
BRANCH  11  12
ATOM     12  C   UNL     1      34.521 -19.798 -21.180  0.00  0.00    -0.003 C 
ATOM     13  C   UNL     1      33.409 -20.391 -20.582  0.00  0.00    -0.003 C 
ATOM     14  C   UNL     1      35.801 -20.079 -20.703  0.00  0.00    -0.003 C 
ATOM     15  C   UNL     1      33.576 -21.265 -19.508  0.00  0.00    +0.002 C 
ATOM     16  C   UNL     1      35.969 -20.954 -19.629  0.00  0.00    +0.002 C 
ATOM     17  C   UNL     1      34.857 -21.547 -19.032  0.00  0.00    +0.031 C 
BRANCH  17  20
ATOM     18  N   UNL     1      36.139 -22.371 -17.071  0.00  0.00    -0.343 N 
ATOM     19  N   UNL     1      34.130 -23.398 -17.683  0.00  0.00    -0.285 NA
ATOM     20  C   UNL     1      35.031 -22.459 -17.913  0.00  0.00    +0.117 C 
ATOM     21  H   UNL     1      36.237 -22.999 -16.320  0.00  0.00    +0.144 HD
ATOM     22  H   UNL     1      36.823 -21.680 -17.228  0.00  0.00    +0.144 HD
ATOM     23  H   UNL     1      34.247 -24.017 -16.926  0.00  0.00    +0.188 HD
ENDBRANCH  17  20
ENDBRANCH  11  12
ENDBRANCH   8  11
ENDBRANCH   3   9
BRANCH   6  24
ATOM     24  C   UNL     1      33.321 -13.136 -24.050  0.00  0.00    +0.018 C 
BRANCH  24  25
ATOM     25  C   UNL     1      33.771 -11.732 -23.653  0.00  0.00    -0.011 C 
ATOM     26  C   UNL     1      34.515 -11.054 -24.812  0.00  0.00    -0.002 C 
ATOM     27  C   UNL     1      32.573 -10.885 -23.203  0.00  0.00    -0.002 C 
ATOM     28  C   UNL     1      34.929  -9.627 -24.457  0.00  0.00    -0.000 C 
ATOM     29  C   UNL     1      32.990  -9.460 -22.852  0.00  0.00    -0.000 C 
ATOM     30  C   UNL     1      33.737  -8.792 -24.002  0.00  0.00    -0.000 C 
ENDBRANCH  24  25
BRANCH  24  31
ATOM     31  N   UNL     1      33.641 -13.398 -25.444  0.00  0.00    +0.398 N 
ATOM     32  H   UNL     1      34.477 -13.979 -25.492  0.00  0.00    -0.083 HD
ATOM     33  H   UNL     1      33.796 -12.506 -25.914  0.00  0.00    -0.083 HD
BRANCH  31  34
ATOM     34  C   UNL     1      32.543 -14.088 -26.112  0.00  0.00    +0.031 C 
BRANCH  34  36
ATOM     35  O   UNL     1      32.214 -16.382 -26.776  0.00  0.00    -0.253 OA
ATOM     36  C   UNL     1      32.979 -15.492 -26.426  0.00  0.00    +0.292 C 
BRANCH  36  37
ATOM     37  O   UNL     1      34.310 -15.687 -26.241  0.00  0.00    -0.482 OA
ATOM     38  H   UNL     1      34.729 -15.360 -25.469  0.00  0.00    +0.295 HD
ENDBRANCH  36  37
ENDBRANCH  34  36
ENDBRANCH  31  34
ENDBRANCH  24  31
ENDBRANCH   6  24
TORSDOF 10
ENDMDL
MODEL 2
REMARK VINA RESULT:      -9.7      4.279      7.024
REMARK  Name = 183797
REMARK  10 active torsions:
REMARK  status: ('A' for Active; 'I' for Inactive)
REMARK    1  A    between atoms: C_3  and  C_9
REMARK    2  A    between atoms: C_6  and  C_24
REMARK    3  A    between atoms: N_8  and  C_11
REMARK    4  A    between atoms: C_11  and  C_12
REMARK    5  A    between atoms: C_17  and  C_20
REMARK    6  A    between atoms: C_24  and  C_25
REMARK    7  A    between atoms: C_24  and  N_31
REMARK    8  A    between atoms: N_31  and  C_34
REMARK    9  A    between atoms: C_34  and  C_36
REMARK   10  A    between atoms: C_36  and  O_37
REMARK                            x       y       z     vdW  Elec       q    Type
REMARK                         _______ _______ _______ _____ _____    ______ ____
ROOT
ATOM      1  O   UNL     1      30.806  -8.036 -23.894  0.00  0.00    -0.277 OA
ATOM      2  N   UNL     1      32.977  -8.773 -23.794  0.00  0.00    -0.275 N 
ATOM      3  C   UNL     1      32.960 -10.207 -24.005  0.00  0.00    +0.153 C 
ATOM      4  C   UNL     1      34.413  -8.682 -23.623  0.00  0.00    +0.096 C 
ATOM      5  C   UNL     1      34.479 -10.102 -24.199  0.00  0.00    +0.051 C 
ATOM      6  C   UNL     1      32.003  -7.816 -23.726  0.00  0.00    +0.206 C 
ENDROOT
BRANCH   3   9
ATOM      7  O   UNL     1      31.807 -10.508 -21.876  0.00  0.00    -0.273 OA
ATOM      8  N   UNL     1      32.754 -12.366 -22.878  0.00  0.00    -0.299 N 
ATOM      9  C   UNL     1      32.443 -11.016 -22.805  0.00  0.00    +0.241 C 
ATOM     10  H   UNL     1      33.266 -12.688 -23.656  0.00  0.00    +0.150 HD
BRANCH   8  11
ATOM     11  C   UNL     1      32.364 -13.325 -21.868  0.00  0.00    +0.116 C 
BRANCH  11  12
ATOM     12  C   UNL     1      33.260 -14.529 -21.860  0.00  0.00    -0.003 C 
ATOM     13  C   UNL     1      33.564 -15.179 -23.056  0.00  0.00    -0.003 C 
ATOM     14  C   UNL     1      33.787 -14.998 -20.657  0.00  0.00    -0.003 C 
ATOM     15  C   UNL     1      34.396 -16.299 -23.048  0.00  0.00    +0.002 C 
ATOM     16  C   UNL     1      34.618 -16.118 -20.650  0.00  0.00    +0.002 C 
ATOM     17  C   UNL     1      34.923 -16.769 -21.845  0.00  0.00    +0.031 C 
BRANCH  17  20
ATOM     18  N   UNL     1      35.933 -18.726 -20.699  0.00  0.00    -0.343 N 
ATOM     19  N   UNL     1      36.466 -18.260 -22.927  0.00  0.00    -0.285 NA
ATOM     20  C   UNL     1      35.790 -17.936 -21.838  0.00  0.00    +0.117 C 
ATOM     21  H   UNL     1      36.526 -19.512 -20.717  0.00  0.00    +0.144 HD
ATOM     22  H   UNL     1      35.440 -18.500 -19.878  0.00  0.00    +0.144 HD
ATOM     23  H   UNL     1      37.054 -19.049 -22.924  0.00  0.00    +0.188 HD
ENDBRANCH  17  20
ENDBRANCH  11  12
ENDBRANCH   8  11
ENDBRANCH   3   9
BRANCH   6  24
ATOM     24  C   UNL     1      32.512  -6.433 -23.415  0.00  0.00    +0.018 C 
BRANCH  24  25
ATOM     25  C   UNL     1      31.915  -5.421 -24.390  0.00  0.00    -0.011 C 
ATOM     26  C   UNL     1      31.548  -4.120 -23.665  0.00  0.00    -0.002 C 
ATOM     27  C   UNL     1      32.885  -5.147 -25.548  0.00  0.00    -0.002 C 
ATOM     28  C   UNL     1      30.998  -3.072 -24.630  0.00  0.00    -0.000 C 
ATOM     29  C   UNL     1      32.333  -4.098 -26.509  0.00  0.00    -0.000 C 
ATOM     30  C   UNL     1      31.961  -2.809 -25.783  0.00  0.00    -0.000 C 
ENDBRANCH  24  25
BRANCH  24  31
ATOM     31  N   UNL     1      32.118  -6.118 -22.051  0.00  0.00    +0.398 N 
ATOM     32  H   UNL     1      31.353  -5.444 -22.072  0.00  0.00    -0.083 HD
ATOM     33  H   UNL     1      32.924  -5.729 -21.562  0.00  0.00    -0.083 HD
BRANCH  31  34
ATOM     34  C   UNL     1      31.679  -7.314 -21.343  0.00  0.00    +0.031 C 
BRANCH  34  36
ATOM     35  O   UNL     1      32.984  -6.525 -19.476  0.00  0.00    -0.253 OA
ATOM     36  C   UNL     1      32.507  -7.466 -20.097  0.00  0.00    +0.292 C 
BRANCH  36  37
ATOM     37  O   UNL     1      32.708  -8.763 -19.751  0.00  0.00    -0.482 OA
ATOM     38  H   UNL     1      32.901  -9.400 -20.411  0.00  0.00    +0.295 HD
ENDBRANCH  36  37
ENDBRANCH  34  36
ENDBRANCH  31  34
ENDBRANCH  24  31
ENDBRANCH   6  24
TORSDOF 10
ENDMDL
MODEL 3
REMARK VINA RESULT:      -9.0      2.113      3.541
REMARK  Name = 183797
REMARK  10 active torsions:
REMARK  status: ('A' for Active; 'I' for Inactive)
REMARK    1  A    between atoms: C_3  and  C_9
REMARK    2  A    between atoms: C_6  and  C_24
REMARK    3  A    between atoms: N_8  and  C_11
REMARK    4  A    between atoms: C_11  and  C_12
REMARK    5  A    between atoms: C_17  and  C_20
REMARK    6  A    between atoms: C_24  and  C_25
REMARK    7  A    between atoms: C_24  and  N_31
REMARK    8  A    between atoms: N_31  and  C_34
REMARK    9  A    between atoms: C_34  and  C_36
REMARK   10  A    between atoms: C_36  and  O_37
REMARK                            x       y       z     vdW  Elec       q    Type
REMARK                         _______ _______ _______ _____ _____    ______ ____
ROOT
ATOM      1  O   UNL     1      32.339 -14.260 -21.914  0.00  0.00    -0.277 OA
ATOM      2  N   UNL     1      33.091 -14.548 -24.064  0.00  0.00    -0.275 N 
ATOM      3  C   UNL     1      33.413 -15.951 -24.228  0.00  0.00    +0.153 C 
ATOM      4  C   UNL     1      33.475 -14.167 -25.408  0.00  0.00    +0.096 C 
ATOM      5  C   UNL     1      33.474 -15.665 -25.734  0.00  0.00    +0.051 C 
ATOM      6  C   UNL     1      32.630 -13.800 -23.016  0.00  0.00    +0.206 C 
ENDROOT
BRANCH   3   9
ATOM      7  O   UNL     1      35.660 -15.623 -23.335  0.00  0.00    -0.273 OA
ATOM      8  N   UNL     1      34.697 -17.717 -23.127  0.00  0.00    -0.299 N 
ATOM      9  C   UNL     1      34.709 -16.389 -23.527  0.00  0.00    +0.241 C 
ATOM     10  H   UNL     1      33.896 -18.257 -23.321  0.00  0.00    +0.150 HD
BRANCH   8  11
ATOM     11  C   UNL     1      35.802 -18.348 -22.441  0.00  0.00    +0.116 C 
BRANCH  11  12
ATOM     12  C   UNL     1      35.336 -19.358 -21.435  0.00  0.00    -0.003 C 
ATOM     13  C   UNL     1      33.971 -19.589 -21.260  0.00  0.00    -0.003 C 
ATOM     14  C   UNL     1      36.266 -20.066 -20.673  0.00  0.00    -0.003 C 
ATOM     15  C   UNL     1      33.537 -20.527 -20.323  0.00  0.00    +0.002 C 
ATOM     16  C   UNL     1      35.831 -21.004 -19.736  0.00  0.00    +0.002 C 
ATOM     17  C   UNL     1      34.467 -21.235 -19.562  0.00  0.00    +0.031 C 
BRANCH  17  20
ATOM     18  N   UNL     1      32.662 -22.521 -18.442  0.00  0.00    -0.343 N 
ATOM     19  N   UNL     1      34.891 -22.826 -17.811  0.00  0.00    -0.285 NA
ATOM     20  C   UNL     1      34.013 -22.213 -18.586  0.00  0.00    +0.117 C 
ATOM     21  H   UNL     1      32.377 -23.187 -17.775  0.00  0.00    +0.144 HD
ATOM     22  H   UNL     1      31.992 -22.074 -19.008  0.00  0.00    +0.144 HD
ATOM     23  H   UNL     1      34.587 -23.488 -17.150  0.00  0.00    +0.188 HD
ENDBRANCH  17  20
ENDBRANCH  11  12
ENDBRANCH   8  11
ENDBRANCH   3   9
BRANCH   6  24
ATOM     24  C   UNL     1      32.507 -12.328 -23.310  0.00  0.00    +0.018 C 
BRANCH  24  25
ATOM     25  C   UNL     1      31.828 -11.614 -22.144  0.00  0.00    -0.011 C 
ATOM     26  C   UNL     1      32.202 -12.275 -20.811  0.00  0.00    -0.002 C 
ATOM     27  C   UNL     1      32.191 -10.123 -22.135  0.00  0.00    -0.002 C 
ATOM     28  C   UNL     1      31.576 -11.545 -19.624  0.00  0.00    -0.000 C 
ATOM     29  C   UNL     1      31.567  -9.397 -20.947  0.00  0.00    -0.000 C 
ATOM     30  C   UNL     1      31.933 -10.062 -19.624  0.00  0.00    -0.000 C 
ENDBRANCH  24  25
BRANCH  24  31
ATOM     31  N   UNL     1      33.850 -11.807 -23.512  0.00  0.00    +0.398 N 
ATOM     32  H   UNL     1      34.510 -12.585 -23.534  0.00  0.00    -0.083 HD
ATOM     33  H   UNL     1      34.070 -11.172 -22.746  0.00  0.00    -0.083 HD
BRANCH  31  34
ATOM     34  C   UNL     1      33.942 -11.070 -24.767  0.00  0.00    +0.031 C 
BRANCH  34  36
ATOM     35  O   UNL     1      35.143  -9.189 -23.856  0.00  0.00    -0.253 OA
ATOM     36  C   UNL     1      35.087 -10.100 -24.672  0.00  0.00    +0.292 C 
BRANCH  36  37
ATOM     37  O   UNL     1      36.040 -10.313 -25.615  0.00  0.00    -0.482 OA
ATOM     38  H   UNL     1      36.865 -10.686 -25.373  0.00  0.00    +0.295 HD
ENDBRANCH  36  37
ENDBRANCH  34  36
ENDBRANCH  31  34
ENDBRANCH  24  31
ENDBRANCH   6  24
TORSDOF 10
ENDMDL
MODEL 4
REMARK VINA RESULT:      -8.9      2.725      4.806
REMARK  Name = 183797
REMARK  10 active torsions:
REMARK  status: ('A' for Active; 'I' for Inactive)
REMARK    1  A    between atoms: C_3  and  C_9
REMARK    2  A    between atoms: C_6  and  C_24
REMARK    3  A    between atoms: N_8  and  C_11
REMARK    4  A    between atoms: C_11  and  C_12
REMARK    5  A    between atoms: C_17  and  C_20
REMARK    6  A    between atoms: C_24  and  C_25
REMARK    7  A    between atoms: C_24  and  N_31
REMARK    8  A    between atoms: N_31  and  C_34
REMARK    9  A    between atoms: C_34  and  C_36
REMARK   10  A    between atoms: C_36  and  O_37
REMARK                            x       y       z     vdW  Elec       q    Type
REMARK                         _______ _______ _______ _____ _____    ______ ____
ROOT
ATOM      1  O   UNL     1      35.330 -17.123 -20.252  0.00  0.00    -0.277 OA
ATOM      2  N   UNL     1      33.992 -18.819 -21.030  0.00  0.00    -0.275 N 
ATOM      3  C   UNL     1      33.933 -19.834 -19.999  0.00  0.00    +0.153 C 
ATOM      4  C   UNL     1      33.151 -19.534 -21.968  0.00  0.00    +0.096 C 
ATOM      5  C   UNL     1      32.767 -20.438 -20.791  0.00  0.00    +0.051 C 
ATOM      6  C   UNL     1      34.638 -17.618 -21.139  0.00  0.00    +0.206 C 
ENDROOT
BRANCH   3   9
ATOM      7  O   UNL     1      35.949 -20.940 -20.818  0.00  0.00    -0.273 OA
ATOM      8  N   UNL     1      35.468 -21.079 -18.559  0.00  0.00    -0.299 N 
ATOM      9  C   UNL     1      35.216 -20.670 -19.860  0.00  0.00    +0.241 C 
ATOM     10  H   UNL     1      34.830 -20.819 -17.855  0.00  0.00    +0.150 HD
BRANCH   8  11
ATOM     11  C   UNL     1      36.620 -21.868 -18.185  0.00  0.00    +0.116 C 
BRANCH  11  12
ATOM     12  C   UNL     1      36.452 -22.506 -16.837  0.00  0.00    -0.003 C 
ATOM     13  C   UNL     1      35.183 -22.886 -16.400  0.00  0.00    -0.003 C 
ATOM     14  C   UNL     1      37.563 -22.717 -16.021  0.00  0.00    -0.003 C 
ATOM     15  C   UNL     1      35.026 -23.478 -15.146  0.00  0.00    +0.002 C 
ATOM     16  C   UNL     1      37.406 -23.309 -14.768  0.00  0.00    +0.002 C 
ATOM     17  C   UNL     1      36.137 -23.689 -14.330  0.00  0.00    +0.031 C 
BRANCH  17  20
ATOM     18  N   UNL     1      35.555 -23.567 -11.919  0.00  0.00    -0.343 N 
ATOM     19  N   UNL     1      36.227 -25.595 -12.869  0.00  0.00    -0.285 NA
ATOM     20  C   UNL     1      35.973 -24.307 -13.024  0.00  0.00    +0.117 C 
ATOM     21  H   UNL     1      35.451 -24.006 -11.044  0.00  0.00    +0.144 HD
ATOM     22  H   UNL     1      35.363 -22.606 -12.014  0.00  0.00    +0.144 HD
ATOM     23  H   UNL     1      36.116 -26.015 -11.985  0.00  0.00    +0.188 HD
ENDBRANCH  17  20
ENDBRANCH  11  12
ENDBRANCH   8  11
ENDBRANCH   3   9
BRANCH   6  24
ATOM     24  C   UNL     1      34.445 -16.927 -22.463  0.00  0.00    +0.018 C 
BRANCH  24  25
ATOM     25  C   UNL     1      34.151 -15.444 -22.244  0.00  0.00    -0.011 C 
ATOM     26  C   UNL     1      34.110 -14.697 -23.583  0.00  0.00    -0.002 C 
ATOM     27  C   UNL     1      32.836 -15.260 -21.474  0.00  0.00    -0.002 C 
ATOM     28  C   UNL     1      33.764 -13.221 -23.394  0.00  0.00    -0.000 C 
ATOM     29  C   UNL     1      32.493 -13.785 -21.289  0.00  0.00    -0.000 C 
ATOM     30  C   UNL     1      32.461 -13.042 -22.622  0.00  0.00    -0.000 C 
ENDBRANCH  24  25
BRANCH  24  31
ATOM     31  N   UNL     1      35.670 -17.094 -23.228  0.00  0.00    +0.398 N 
ATOM     32  H   UNL     1      36.456 -17.187 -22.585  0.00  0.00    -0.083 HD
ATOM     33  H   UNL     1      35.792 -16.279 -23.828  0.00  0.00    -0.083 HD
BRANCH  31  34
ATOM     34  C   UNL     1      35.603 -18.283 -24.071  0.00  0.00    +0.031 C 
BRANCH  34  36
ATOM     35  O   UNL     1      33.616 -18.785 -25.341  0.00  0.00    -0.253 OA
ATOM     36  C   UNL     1      34.578 -18.052 -25.146  0.00  0.00    +0.292 C 
BRANCH  36  37
ATOM     37  O   UNL     1      34.850 -16.965 -25.912  0.00  0.00    -0.482 OA
ATOM     38  H   UNL     1      35.117 -16.162 -25.509  0.00  0.00    +0.295 HD
ENDBRANCH  36  37
ENDBRANCH  34  36
ENDBRANCH  31  34
ENDBRANCH  24  31
ENDBRANCH   6  24
TORSDOF 10
ENDMDL
MODEL 5
REMARK VINA RESULT:      -8.9      2.589      4.119
REMARK  Name = 183797
REMARK  10 active torsions:
REMARK  status: ('A' for Active; 'I' for Inactive)
REMARK    1  A    between atoms: C_3  and  C_9
REMARK    2  A    between atoms: C_6  and  C_24
REMARK    3  A    between atoms: N_8  and  C_11
REMARK    4  A    between atoms: C_11  and  C_12
REMARK    5  A    between atoms: C_17  and  C_20
REMARK    6  A    between atoms: C_24  and  C_25
REMARK    7  A    between atoms: C_24  and  N_31
REMARK    8  A    between atoms: N_31  and  C_34
REMARK    9  A    between atoms: C_34  and  C_36
REMARK   10  A    between atoms: C_36  and  O_37
REMARK                            x       y       z     vdW  Elec       q    Type
REMARK                         _______ _______ _______ _____ _____    ______ ____
ROOT
ATOM      1  O   UNL     1      32.390 -12.162 -21.772  0.00  0.00    -0.277 OA
ATOM      2  N   UNL     1      32.998 -13.086 -23.784  0.00  0.00    -0.275 N 
ATOM      3  C   UNL     1      33.050 -14.523 -23.604  0.00  0.00    +0.153 C 
ATOM      4  C   UNL     1      33.398 -13.113 -25.176  0.00  0.00    +0.096 C 
ATOM      5  C   UNL     1      33.109 -14.618 -25.134  0.00  0.00    +0.051 C 
ATOM      6  C   UNL     1      32.722 -12.039 -22.949  0.00  0.00    +0.206 C 
ENDROOT
BRANCH   3   9
ATOM      7  O   UNL     1      34.897 -14.296 -22.026  0.00  0.00    -0.273 OA
ATOM      8  N   UNL     1      34.578 -16.348 -23.046  0.00  0.00    -0.299 N 
ATOM      9  C   UNL     1      34.268 -15.018 -22.807  0.00  0.00    +0.241 C 
ATOM     10  H   UNL     1      34.023 -16.851 -23.686  0.00  0.00    +0.150 HD
BRANCH   8  11
ATOM     11  C   UNL     1      35.676 -17.034 -22.403  0.00  0.00    +0.116 C 
BRANCH  11  12
ATOM     12  C   UNL     1      35.217 -18.244 -21.643  0.00  0.00    -0.003 C 
ATOM     13  C   UNL     1      36.154 -19.115 -21.087  0.00  0.00    -0.003 C 
ATOM     14  C   UNL     1      33.854 -18.499 -21.495  0.00  0.00    -0.003 C 
ATOM     15  C   UNL     1      35.727 -20.241 -20.382  0.00  0.00    +0.002 C 
ATOM     16  C   UNL     1      33.427 -19.625 -20.791  0.00  0.00    +0.002 C 
ATOM     17  C   UNL     1      34.364 -20.496 -20.234  0.00  0.00    +0.031 C 
BRANCH  17  20
ATOM     18  N   UNL     1      32.616 -21.771 -19.016  0.00  0.00    -0.343 N 
ATOM     19  N   UNL     1      34.762 -22.662 -19.272  0.00  0.00    -0.285 NA
ATOM     20  C   UNL     1      33.919 -21.669 -19.499  0.00  0.00    +0.117 C 
ATOM     21  H   UNL     1      32.337 -22.575 -18.520  0.00  0.00    +0.144 HD
ATOM     22  H   UNL     1      31.974 -21.041 -19.171  0.00  0.00    +0.144 HD
ATOM     23  H   UNL     1      34.463 -23.457 -18.775  0.00  0.00    +0.188 HD
ENDBRANCH  17  20
ENDBRANCH  11  12
ENDBRANCH   8  11
ENDBRANCH   3   9
BRANCH   6  24
ATOM     24  C   UNL     1      32.862 -10.682 -23.588  0.00  0.00    +0.018 C 
BRANCH  24  25
ATOM     25  C   UNL     1      31.974  -9.668 -22.870  0.00  0.00    -0.011 C 
ATOM     26  C   UNL     1      32.681  -9.114 -21.626  0.00  0.00    -0.002 C 
ATOM     27  C   UNL     1      31.569  -8.533 -23.820  0.00  0.00    -0.002 C 
ATOM     28  C   UNL     1      31.833  -8.058 -20.920  0.00  0.00    -0.000 C 
ATOM     29  C   UNL     1      30.724  -7.479 -23.111  0.00  0.00    -0.000 C 
ATOM     30  C   UNL     1      31.426  -6.936 -21.870  0.00  0.00    -0.000 C 
ENDBRANCH  24  25
BRANCH  24  31
ATOM     31  N   UNL     1      34.260 -10.293 -23.489  0.00  0.00    +0.398 N 
ATOM     32  H   UNL     1      34.834 -11.131 -23.393  0.00  0.00    -0.083 HD
ATOM     33  H   UNL     1      34.371  -9.687 -22.676  0.00  0.00    -0.083 HD
BRANCH  31  34
ATOM     34  C   UNL     1      34.685  -9.560 -24.676  0.00  0.00    +0.031 C 
BRANCH  34  36
ATOM     35  O   UNL     1      34.578  -7.189 -25.100  0.00  0.00    -0.253 OA
ATOM     36  C   UNL     1      34.812  -8.104 -24.321  0.00  0.00    +0.292 C 
BRANCH  36  37
ATOM     37  O   UNL     1      35.257  -7.906 -23.054  0.00  0.00    -0.482 OA
ATOM     38  H   UNL     1      34.765  -7.371 -22.463  0.00  0.00    +0.295 HD
ENDBRANCH  36  37
ENDBRANCH  34  36
ENDBRANCH  31  34
ENDBRANCH  24  31
ENDBRANCH   6  24
TORSDOF 10
ENDMDL
MODEL 6
REMARK VINA RESULT:      -8.9      5.020     11.890
REMARK  Name = 183797
REMARK  10 active torsions:
REMARK  status: ('A' for Active; 'I' for Inactive)
REMARK    1  A    between atoms: C_3  and  C_9
REMARK    2  A    between atoms: C_6  and  C_24
REMARK    3  A    between atoms: N_8  and  C_11
REMARK    4  A    between atoms: C_11  and  C_12
REMARK    5  A    between atoms: C_17  and  C_20
REMARK    6  A    between atoms: C_24  and  C_25
REMARK    7  A    between atoms: C_24  and  N_31
REMARK    8  A    between atoms: N_31  and  C_34
REMARK    9  A    between atoms: C_34  and  C_36
REMARK   10  A    between atoms: C_36  and  O_37
REMARK                            x       y       z     vdW  Elec       q    Type
REMARK                         _______ _______ _______ _____ _____    ______ ____
ROOT
ATOM      1  O   UNL     1      35.584 -24.150 -16.103  0.00  0.00    -0.277 OA
ATOM      2  N   UNL     1      33.973 -23.024 -17.290  0.00  0.00    -0.275 N 
ATOM      3  C   UNL     1      34.474 -22.839 -18.636  0.00  0.00    +0.153 C 
ATOM      4  C   UNL     1      32.717 -22.339 -17.521  0.00  0.00    +0.096 C 
ATOM      5  C   UNL     1      33.040 -22.448 -19.016  0.00  0.00    +0.051 C 
ATOM      6  C   UNL     1      34.489 -23.594 -16.159  0.00  0.00    +0.206 C 
ENDROOT
BRANCH   3   9
ATOM      7  O   UNL     1      36.486 -21.644 -17.945  0.00  0.00    -0.273 OA
ATOM      8  N   UNL     1      35.425 -20.966 -19.886  0.00  0.00    -0.299 N 
ATOM      9  C   UNL     1      35.568 -21.767 -18.763  0.00  0.00    +0.241 C 
ATOM     10  H   UNL     1      34.663 -21.133 -20.486  0.00  0.00    +0.150 HD
BRANCH   8  11
ATOM     11  C   UNL     1      36.340 -19.896 -20.218  0.00  0.00    +0.116 C 
BRANCH  11  12
ATOM     12  C   UNL     1      35.815 -19.031 -21.326  0.00  0.00    -0.003 C 
ATOM     13  C   UNL     1      35.704 -19.545 -22.618  0.00  0.00    -0.003 C 
ATOM     14  C   UNL     1      35.441 -17.713 -21.065  0.00  0.00    -0.003 C 
ATOM     15  C   UNL     1      35.218 -18.741 -23.649  0.00  0.00    +0.002 C 
ATOM     16  C   UNL     1      34.954 -16.909 -22.096  0.00  0.00    +0.002 C 
ATOM     17  C   UNL     1      34.843 -17.423 -23.388  0.00  0.00    +0.031 C 
BRANCH  17  20
ATOM     18  N   UNL     1      33.679 -15.385 -24.198  0.00  0.00    -0.343 N 
ATOM     19  N   UNL     1      34.489 -16.963 -25.720  0.00  0.00    -0.285 NA
ATOM     20  C   UNL     1      34.336 -16.585 -24.463  0.00  0.00    +0.117 C 
ATOM     21  H   UNL     1      33.343 -14.833 -24.942  0.00  0.00    +0.144 HD
ATOM     22  H   UNL     1      33.552 -15.087 -23.268  0.00  0.00    +0.144 HD
ATOM     23  H   UNL     1      34.146 -16.397 -26.449  0.00  0.00    +0.188 HD
ENDBRANCH  17  20
ENDBRANCH  11  12
ENDBRANCH   8  11
ENDBRANCH   3   9
BRANCH   6  24
ATOM     24  C   UNL     1      33.600 -23.485 -14.947  0.00  0.00    +0.018 C 
BRANCH  24  25
ATOM     25  C   UNL     1      32.139 -23.670 -15.349  0.00  0.00    -0.011 C 
ATOM     26  C   UNL     1      31.664 -25.094 -15.029  0.00  0.00    -0.002 C 
ATOM     27  C   UNL     1      31.250 -22.628 -14.655  0.00  0.00    -0.002 C 
ATOM     28  C   UNL     1      30.189 -25.286 -15.373  0.00  0.00    -0.000 C 
ATOM     29  C   UNL     1      29.776 -22.826 -14.998  0.00  0.00    -0.000 C 
ATOM     30  C   UNL     1      29.310 -24.245 -14.687  0.00  0.00    -0.000 C 
ENDBRANCH  24  25
BRANCH  24  31
ATOM     31  N   UNL     1      34.005 -24.523 -14.012  0.00  0.00    +0.398 N 
ATOM     32  H   UNL     1      34.627 -25.176 -14.487  0.00  0.00    -0.083 HD
ATOM     33  H   UNL     1      33.170 -25.002 -13.677  0.00  0.00    -0.083 HD
BRANCH  31  34
ATOM     34  C   UNL     1      34.702 -23.951 -12.866  0.00  0.00    +0.031 C 
BRANCH  34  36
ATOM     35  O   UNL     1      36.049 -25.091 -11.223  0.00  0.00    -0.253 OA
ATOM     36  C   UNL     1      35.742 -24.931 -12.398  0.00  0.00    +0.292 C 
BRANCH  36  37
ATOM     37  O   UNL     1      36.339 -25.596 -13.419  0.00  0.00    -0.482 OA
ATOM     38  H   UNL     1      36.052 -25.458 -14.300  0.00  0.00    +0.295 HD
ENDBRANCH  36  37
ENDBRANCH  34  36
ENDBRANCH  31  34
ENDBRANCH  24  31
ENDBRANCH   6  24
TORSDOF 10
ENDMDL
MODEL 7
REMARK VINA RESULT:      -8.8      1.654      2.158
REMARK  Name = 183797
REMARK  10 active torsions:
REMARK  status: ('A' for Active; 'I' for Inactive)
REMARK    1  A    between atoms: C_3  and  C_9
REMARK    2  A    between atoms: C_6  and  C_24
REMARK    3  A    between atoms: N_8  and  C_11
REMARK    4  A    between atoms: C_11  and  C_12
REMARK    5  A    between atoms: C_17  and  C_20
REMARK    6  A    between atoms: C_24  and  C_25
REMARK    7  A    between atoms: C_24  and  N_31
REMARK    8  A    between atoms: N_31  and  C_34
REMARK    9  A    between atoms: C_34  and  C_36
REMARK   10  A    between atoms: C_36  and  O_37
REMARK                            x       y       z     vdW  Elec       q    Type
REMARK                         _______ _______ _______ _____ _____    ______ ____
ROOT
ATOM      1  O   UNL     1      35.629 -15.695 -23.897  0.00  0.00    -0.277 OA
ATOM      2  N   UNL     1      34.167 -15.935 -22.144  0.00  0.00    -0.275 N 
ATOM      3  C   UNL     1      34.778 -16.836 -21.188  0.00  0.00    +0.153 C 
ATOM      4  C   UNL     1      32.947 -15.746 -21.385  0.00  0.00    +0.096 C 
ATOM      5  C   UNL     1      33.693 -16.379 -20.204  0.00  0.00    +0.051 C 
ATOM      6  C   UNL     1      34.550 -15.449 -23.363  0.00  0.00    +0.206 C 
ENDROOT
BRANCH   3   9
ATOM      7  O   UNL     1      34.463 -18.679 -22.756  0.00  0.00    -0.273 OA
ATOM      8  N   UNL     1      35.183 -19.178 -20.614  0.00  0.00    -0.299 N 
ATOM      9  C   UNL     1      34.781 -18.311 -21.620  0.00  0.00    +0.241 C 
ATOM     10  H   UNL     1      35.419 -18.799 -19.736  0.00  0.00    +0.150 HD
BRANCH   8  11
ATOM     11  C   UNL     1      35.271 -20.610 -20.791  0.00  0.00    +0.116 C 
BRANCH  11  12
ATOM     12  C   UNL     1      35.300 -21.338 -19.479  0.00  0.00    -0.003 C 
ATOM     13  C   UNL     1      34.171 -22.030 -19.041  0.00  0.00    -0.003 C 
ATOM     14  C   UNL     1      36.455 -21.321 -18.697  0.00  0.00    -0.003 C 
ATOM     15  C   UNL     1      34.197 -22.706 -17.821  0.00  0.00    +0.002 C 
ATOM     16  C   UNL     1      36.480 -21.997 -17.477  0.00  0.00    +0.002 C 
ATOM     17  C   UNL     1      35.351 -22.689 -17.039  0.00  0.00    +0.031 C 
BRANCH  17  20
ATOM     18  N   UNL     1      35.447 -22.706 -14.557  0.00  0.00    -0.343 N 
ATOM     19  N   UNL     1      35.342 -24.715 -15.746  0.00  0.00    -0.285 NA
ATOM     20  C   UNL     1      35.378 -23.394 -15.767  0.00  0.00    +0.117 C 
ATOM     21  H   UNL     1      35.464 -23.204 -13.708  0.00  0.00    +0.144 HD
ATOM     22  H   UNL     1      35.477 -21.722 -14.552  0.00  0.00    +0.144 HD
ATOM     23  H   UNL     1      35.361 -25.195 -14.887  0.00  0.00    +0.188 HD
ENDBRANCH  17  20
ENDBRANCH  11  12
ENDBRANCH   8  11
ENDBRANCH   3   9
BRANCH   6  24
ATOM     24  C   UNL     1      33.525 -14.571 -24.032  0.00  0.00    +0.018 C 
BRANCH  24  25
ATOM     25  C   UNL     1      33.575 -13.162 -23.444  0.00  0.00    -0.011 C 
ATOM     26  C   UNL     1      34.032 -12.150 -24.502  0.00  0.00    -0.002 C 
ATOM     27  C   UNL     1      32.211 -12.768 -22.862  0.00  0.00    -0.002 C 
ATOM     28  C   UNL     1      34.039 -10.725 -23.953  0.00  0.00    -0.000 C 
ATOM     29  C   UNL     1      32.221 -11.343 -22.316  0.00  0.00    -0.000 C 
ATOM     30  C   UNL     1      32.684 -10.340 -23.369  0.00  0.00    -0.000 C 
ENDBRANCH  24  25
BRANCH  24  31
ATOM     31  N   UNL     1      33.833 -14.540 -25.452  0.00  0.00    +0.398 N 
ATOM     32  H   UNL     1      34.374 -15.370 -25.695  0.00  0.00    -0.083 HD
ATOM     33  H   UNL     1      34.366 -13.694 -25.650  0.00  0.00    -0.083 HD
BRANCH  31  34
ATOM     34  C   UNL     1      32.613 -14.517 -26.252  0.00  0.00    +0.031 C 
BRANCH  34  36
ATOM     35  O   UNL     1      31.912 -12.820 -27.814  0.00  0.00    -0.253 OA
ATOM     36  C   UNL     1      32.800 -13.546 -27.384  0.00  0.00    +0.292 C 
BRANCH  36  37
ATOM     37  O   UNL     1      34.049 -13.585 -27.914  0.00  0.00    -0.482 OA
ATOM     38  H   UNL     1      34.798 -13.583 -27.351  0.00  0.00    +0.295 HD
ENDBRANCH  36  37
ENDBRANCH  34  36
ENDBRANCH  31  34
ENDBRANCH  24  31
ENDBRANCH   6  24
TORSDOF 10
ENDMDL
MODEL 8
REMARK VINA RESULT:      -8.6      2.217      3.826
REMARK  Name = 183797
REMARK  10 active torsions:
REMARK  status: ('A' for Active; 'I' for Inactive)
REMARK    1  A    between atoms: C_3  and  C_9
REMARK    2  A    between atoms: C_6  and  C_24
REMARK    3  A    between atoms: N_8  and  C_11
REMARK    4  A    between atoms: C_11  and  C_12
REMARK    5  A    between atoms: C_17  and  C_20
REMARK    6  A    between atoms: C_24  and  C_25
REMARK    7  A    between atoms: C_24  and  N_31
REMARK    8  A    between atoms: N_31  and  C_34
REMARK    9  A    between atoms: C_34  and  C_36
REMARK   10  A    between atoms: C_36  and  O_37
REMARK                            x       y       z     vdW  Elec       q    Type
REMARK                         _______ _______ _______ _____ _____    ______ ____
ROOT
ATOM      1  O   UNL     1      32.336 -15.412 -21.590  0.00  0.00    -0.277 OA
ATOM      2  N   UNL     1      33.998 -15.865 -23.108  0.00  0.00    -0.275 N 
ATOM      3  C   UNL     1      34.302 -17.278 -23.011  0.00  0.00    +0.153 C 
ATOM      4  C   UNL     1      34.983 -15.587 -24.133  0.00  0.00    +0.096 C 
ATOM      5  C   UNL     1      35.075 -17.106 -24.325  0.00  0.00    +0.051 C 
ATOM      6  C   UNL     1      33.130 -15.038 -22.450  0.00  0.00    +0.206 C 
ENDROOT
BRANCH   3   9
ATOM      7  O   UNL     1      35.109 -16.985 -20.727  0.00  0.00    -0.273 OA
ATOM      8  N   UNL     1      35.788 -18.864 -21.892  0.00  0.00    -0.299 N 
ATOM      9  C   UNL     1      35.098 -17.669 -21.755  0.00  0.00    +0.241 C 
ATOM     10  H   UNL     1      35.724 -19.347 -22.749  0.00  0.00    +0.150 HD
BRANCH   8  11
ATOM     11  C   UNL     1      36.598 -19.437 -20.840  0.00  0.00    +0.116 C 
BRANCH  11  12
ATOM     12  C   UNL     1      35.819 -20.401 -19.994  0.00  0.00    -0.003 C 
ATOM     13  C   UNL     1      36.467 -21.137 -19.001  0.00  0.00    -0.003 C 
ATOM     14  C   UNL     1      34.450 -20.563 -20.200  0.00  0.00    -0.003 C 
ATOM     15  C   UNL     1      35.744 -22.035 -18.215  0.00  0.00    +0.002 C 
ATOM     16  C   UNL     1      33.727 -21.461 -19.414  0.00  0.00    +0.002 C 
ATOM     17  C   UNL     1      34.375 -22.197 -18.421  0.00  0.00    +0.031 C 
BRANCH  17  20
ATOM     18  N   UNL     1      32.228 -23.153 -17.618  0.00  0.00    -0.343 N 
ATOM     19  N   UNL     1      34.261 -23.980 -16.814  0.00  0.00    -0.285 NA
ATOM     20  C   UNL     1      33.622 -23.132 -17.600  0.00  0.00    +0.117 C 
ATOM     21  H   UNL     1      31.739 -23.794 -17.054  0.00  0.00    +0.144 HD
ATOM     22  H   UNL     1      31.733 -22.527 -18.195  0.00  0.00    +0.144 HD
ATOM     23  H   UNL     1      33.753 -24.613 -16.257  0.00  0.00    +0.188 HD
ENDBRANCH  17  20
ENDBRANCH  11  12
ENDBRANCH   8  11
ENDBRANCH   3   9
BRANCH   6  24
ATOM     24  C   UNL     1      33.219 -13.591 -22.860  0.00  0.00    +0.018 C 
BRANCH  24  25
ATOM     25  C   UNL     1      33.636 -13.484 -24.326  0.00  0.00    -0.011 C 
ATOM     26  C   UNL     1      32.552 -14.069 -25.241  0.00  0.00    -0.002 C 
ATOM     27  C   UNL     1      33.938 -12.026 -24.699  0.00  0.00    -0.002 C 
ATOM     28  C   UNL     1      32.922 -13.926 -26.716  0.00  0.00    -0.000 C 
ATOM     29  C   UNL     1      34.304 -11.886 -26.174  0.00  0.00    -0.000 C 
ATOM     30  C   UNL     1      33.229 -12.477 -27.080  0.00  0.00    -0.000 C 
ENDBRANCH  24  25
BRANCH  24  31
ATOM     31  N   UNL     1      31.908 -12.996 -22.660  0.00  0.00    +0.398 N 
ATOM     32  H   UNL     1      31.361 -13.594 -22.041  0.00  0.00    -0.083 HD
ATOM     33  H   UNL     1      31.451 -12.905 -23.567  0.00  0.00    -0.083 HD
BRANCH  31  34
ATOM     34  C   UNL     1      32.020 -11.670 -22.062  0.00  0.00    +0.031 C 
BRANCH  34  36
ATOM     35  O   UNL     1      30.733 -10.918 -20.168  0.00  0.00    -0.253 OA
ATOM     36  C   UNL     1      31.507 -11.735 -20.650  0.00  0.00    +0.292 C 
BRANCH  36  37
ATOM     37  O   UNL     1      32.024 -12.774 -19.946  0.00  0.00    -0.482 OA
ATOM     38  H   UNL     1      32.912 -13.039 -20.086  0.00  0.00    +0.295 HD
ENDBRANCH  36  37
ENDBRANCH  34  36
ENDBRANCH  31  34
ENDBRANCH  24  31
ENDBRANCH   6  24
TORSDOF 10
ENDMDL
MODEL 9
REMARK VINA RESULT:      -8.5      2.835      9.651
REMARK  Name = 183797
REMARK  10 active torsions:
REMARK  status: ('A' for Active; 'I' for Inactive)
REMARK    1  A    between atoms: C_3  and  C_9
REMARK    2  A    between atoms: C_6  and  C_24
REMARK    3  A    between atoms: N_8  and  C_11
REMARK    4  A    between atoms: C_11  and  C_12
REMARK    5  A    between atoms: C_17  and  C_20
REMARK    6  A    between atoms: C_24  and  C_25
REMARK    7  A    between atoms: C_24  and  N_31
REMARK    8  A    between atoms: N_31  and  C_34
REMARK    9  A    between atoms: C_34  and  C_36
REMARK   10  A    between atoms: C_36  and  O_37
REMARK                            x       y       z     vdW  Elec       q    Type
REMARK                         _______ _______ _______ _____ _____    ______ ____
ROOT
ATOM      1  O   UNL     1      32.089 -17.792 -21.004  0.00  0.00    -0.277 OA
ATOM      2  N   UNL     1      33.842 -16.323 -20.811  0.00  0.00    -0.275 N 
ATOM      3  C   UNL     1      33.292 -15.037 -20.431  0.00  0.00    +0.153 C 
ATOM      4  C   UNL     1      35.218 -15.870 -20.856  0.00  0.00    +0.096 C 
ATOM      5  C   UNL     1      34.734 -14.620 -20.111  0.00  0.00    +0.051 C 
ATOM      6  C   UNL     1      33.290 -17.543 -21.084  0.00  0.00    +0.206 C 
ENDROOT
BRANCH   3   9
ATOM      7  O   UNL     1      32.315 -14.825 -22.657  0.00  0.00    -0.273 OA
ATOM      8  N   UNL     1      32.221 -12.996 -21.245  0.00  0.00    -0.299 N 
ATOM      9  C   UNL     1      32.567 -14.299 -21.568  0.00  0.00    +0.241 C 
ATOM     10  H   UNL     1      32.461 -12.655 -20.352  0.00  0.00    +0.150 HD
BRANCH   8  11
ATOM     11  C   UNL     1      31.525 -12.112 -22.153  0.00  0.00    +0.116 C 
BRANCH  11  12
ATOM     12  C   UNL     1      31.691 -10.670 -21.772  0.00  0.00    -0.003 C 
ATOM     13  C   UNL     1      31.741  -9.689 -22.763  0.00  0.00    -0.003 C 
ATOM     14  C   UNL     1      31.798 -10.310 -20.429  0.00  0.00    -0.003 C 
ATOM     15  C   UNL     1      31.897  -8.348 -22.410  0.00  0.00    +0.002 C 
ATOM     16  C   UNL     1      31.954  -8.969 -20.076  0.00  0.00    +0.002 C 
ATOM     17  C   UNL     1      32.004  -7.988 -21.067  0.00  0.00    +0.031 C 
BRANCH  17  20
ATOM     18  N   UNL     1      31.728  -5.566 -21.536  0.00  0.00    -0.343 N 
ATOM     19  N   UNL     1      32.742  -6.274 -19.553  0.00  0.00    -0.285 NA
ATOM     20  C   UNL     1      32.165  -6.591 -20.699  0.00  0.00    +0.117 C 
ATOM     21  H   UNL     1      31.848  -4.626 -21.267  0.00  0.00    +0.144 HD
ATOM     22  H   UNL     1      31.299  -5.781 -22.395  0.00  0.00    +0.144 HD
ATOM     23  H   UNL     1      32.853  -5.329 -19.302  0.00  0.00    +0.188 HD
ENDBRANCH  17  20
ENDBRANCH  11  12
ENDBRANCH   8  11
ENDBRANCH   3   9
BRANCH   6  24
ATOM     24  C   UNL     1      34.283 -18.593 -21.511  0.00  0.00    +0.018 C 
BRANCH  24  25
ATOM     25  C   UNL     1      34.425 -19.655 -20.423  0.00  0.00    -0.011 C 
ATOM     26  C   UNL     1      33.241 -20.631 -20.460  0.00  0.00    -0.002 C 
ATOM     27  C   UNL     1      35.756 -20.405 -20.568  0.00  0.00    -0.002 C 
ATOM     28  C   UNL     1      33.388 -21.735 -19.415  0.00  0.00    -0.000 C 
ATOM     29  C   UNL     1      35.898 -21.509 -19.524  0.00  0.00    -0.000 C 
ATOM     30  C   UNL     1      34.715 -22.472 -19.558  0.00  0.00    -0.000 C 
ENDBRANCH  24  25
BRANCH  24  31
ATOM     31  N   UNL     1      33.790 -19.189 -22.742  0.00  0.00    +0.398 N 
ATOM     32  H   UNL     1      32.972 -18.668 -23.061  0.00  0.00    -0.083 HD
ATOM     33  H   UNL     1      33.546 -20.161 -22.556  0.00  0.00    -0.083 HD
BRANCH  31  34
ATOM     34  C   UNL     1      34.809 -19.157 -23.784  0.00  0.00    +0.031 C 
BRANCH  34  36
ATOM     35  O   UNL     1      33.839 -17.800 -25.524  0.00  0.00    -0.253 OA
ATOM     36  C   UNL     1      34.630 -17.904 -24.594  0.00  0.00    +0.292 C 
BRANCH  36  37
ATOM     37  O   UNL     1      35.468 -16.905 -24.216  0.00  0.00    -0.482 OA
ATOM     38  H   UNL     1      36.285 -17.109 -23.805  0.00  0.00    +0.295 HD
ENDBRANCH  36  37
ENDBRANCH  34  36
ENDBRANCH  31  34
ENDBRANCH  24  31
ENDBRANCH   6  24
TORSDOF 10
ENDMDL
