MODEL 1
REMARK VINA RESULT:     -10.7      0.000      0.000
REMARK  Name = 447488
REMARK  5 active torsions:
REMARK  status: ('A' for Active; 'I' for Inactive)
REMARK    1  A    between atoms: C_3  and  C_20
REMARK    2  A    between atoms: C_9  and  C_14
REMARK    3  A    between atoms: C_18  and  O_26
REMARK    4  A    between atoms: C_19  and  O_24
REMARK    5  A    between atoms: O_26  and  C_27
REMARK                            x       y       z     vdW  Elec       q    Type
REMARK                         _______ _______ _______ _____ _____    ______ ____
ROOT
ATOM      1 CL   UNL     1      35.322 -19.022 -24.187  0.00  0.00    -0.082 Cl
ATOM      2  N   UNL     1      33.317 -14.302 -23.323  0.00  0.00    -0.312 N 
ATOM      3  C   UNL     1      32.998 -13.601 -22.189  0.00  0.00    +0.051 C 
ATOM      4  C   UNL     1      33.838 -15.615 -21.596  0.00  0.00    +0.015 C 
ATOM      5  C   UNL     1      33.830 -15.535 -22.991  0.00  0.00    +0.049 C 
ATOM      6  C   UNL     1      33.309 -14.389 -21.105  0.00  0.00    +0.016 C 
ATOM      7  C   UNL     1      34.322 -16.790 -20.988  0.00  0.00    +0.005 C 
ATOM      8  C   UNL     1      34.285 -16.575 -23.810  0.00  0.00    +0.026 C 
ATOM      9  C   UNL     1      34.780 -17.838 -21.794  0.00  0.00    +0.041 C 
ATOM     10  C   UNL     1      34.760 -17.731 -23.183  0.00  0.00    +0.062 C 
ATOM     11  H   UNL     1      33.194 -13.971 -24.242  0.00  0.00    +0.152 HD
ENDROOT
BRANCH   9  14
ATOM     12  N   UNL     1      34.464 -20.153 -20.953  0.00  0.00    -0.343 N 
ATOM     13  N   UNL     1      36.513 -19.065 -20.668  0.00  0.00    -0.285 NA
ATOM     14  C   UNL     1      35.275 -19.036 -21.124  0.00  0.00    +0.118 C 
ATOM     15  H   UNL     1      34.818 -20.952 -20.498  0.00  0.00    +0.144 HD
ATOM     16  H   UNL     1      33.539 -20.145 -21.285  0.00  0.00    +0.144 HD
ATOM     17  H   UNL     1      36.852 -19.871 -20.216  0.00  0.00    +0.188 HD
ENDBRANCH   9  14
BRANCH   3  20
ATOM     18  C   UNL     1      32.481  -9.994 -23.049  0.00  0.00    +0.172 C 
ATOM     19  C   UNL     1      33.037 -11.272 -23.011  0.00  0.00    +0.169 C 
ATOM     20  C   UNL     1      32.440 -12.273 -22.243  0.00  0.00    +0.050 C 
ATOM     21  C   UNL     1      31.326  -9.714 -22.318  0.00  0.00    +0.040 C 
ATOM     22  C   UNL     1      31.285 -11.991 -21.512  0.00  0.00    +0.004 C 
ATOM     23  C   UNL     1      30.728 -10.713 -21.550  0.00  0.00    +0.003 C 
BRANCH  19  24
ATOM     24  O   UNL     1      34.167 -11.530 -23.733  0.00  0.00    -0.503 OA
ATOM     25  H   UNL     1      34.798 -10.852 -23.875  0.00  0.00    +0.292 HD
ENDBRANCH  19  24
BRANCH  18  26
ATOM     26  O   UNL     1      33.053  -9.008 -23.794  0.00  0.00    -0.476 OA
BRANCH  26  27
ATOM     27  C   UNL     1      33.545  -7.872 -23.095  0.00  0.00    +0.166 C 
ATOM     28  C   UNL     1      32.641  -6.679 -23.367  0.00  0.00    +0.044 C 
ATOM     29  C   UNL     1      34.881  -7.429 -23.676  0.00  0.00    +0.044 C 
ATOM     30  C   UNL     1      33.077  -6.174 -24.742  0.00  0.00    +0.004 C 
ATOM     31  C   UNL     1      34.503  -6.681 -24.953  0.00  0.00    +0.004 C 
ENDBRANCH  26  27
ENDBRANCH  18  26
ENDBRANCH   3  20
TORSDOF 5
ENDMDL
MODEL 2
REMARK VINA RESULT:     -10.7      3.479      6.243
REMARK  Name = 447488
REMARK  5 active torsions:
REMARK  status: ('A' for Active; 'I' for Inactive)
REMARK    1  A    between atoms: C_3  and  C_20
REMARK    2  A    between atoms: C_9  and  C_14
REMARK    3  A    between atoms: C_18  and  O_26
REMARK    4  A    between atoms: C_19  and  O_24
REMARK    5  A    between atoms: O_26  and  C_27
REMARK                            x       y       z     vdW  Elec       q    Type
REMARK                         _______ _______ _______ _____ _____    ______ ____
ROOT
ATOM      1 CL   UNL     1      37.149 -22.352 -17.265  0.00  0.00    -0.082 Cl
ATOM      2  N   UNL     1      35.868 -19.278 -21.259  0.00  0.00    -0.312 N 
ATOM      3  C   UNL     1      34.703 -19.049 -21.943  0.00  0.00    +0.051 C 
ATOM      4  C   UNL     1      34.316 -20.577 -20.322  0.00  0.00    +0.015 C 
ATOM      5  C   UNL     1      35.661 -20.207 -20.265  0.00  0.00    +0.049 C 
ATOM      6  C   UNL     1      33.724 -19.840 -21.385  0.00  0.00    +0.016 C 
ATOM      7  C   UNL     1      33.835 -21.528 -19.400  0.00  0.00    +0.005 C 
ATOM      8  C   UNL     1      36.553 -20.742 -19.328  0.00  0.00    +0.026 C 
ATOM      9  C   UNL     1      34.715 -22.072 -18.458  0.00  0.00    +0.041 C 
ATOM     10  C   UNL     1      36.053 -21.684 -18.424  0.00  0.00    +0.062 C 
ATOM     11  H   UNL     1      36.729 -18.841 -21.453  0.00  0.00    +0.152 HD
ENDROOT
BRANCH   9  14
ATOM     12  N   UNL     1      34.369 -22.917 -16.149  0.00  0.00    -0.343 N 
ATOM     13  N   UNL     1      33.498 -24.087 -17.974  0.00  0.00    -0.285 NA
ATOM     14  C   UNL     1      34.177 -23.051 -17.520  0.00  0.00    +0.118 C 
ATOM     15  H   UNL     1      33.998 -23.588 -15.532  0.00  0.00    +0.144 HD
ATOM     16  H   UNL     1      34.875 -22.151 -15.795  0.00  0.00    +0.144 HD
ATOM     17  H   UNL     1      33.133 -24.750 -17.346  0.00  0.00    +0.188 HD
ENDBRANCH   9  14
BRANCH   3  20
ATOM     18  C   UNL     1      34.450 -15.859 -23.887  0.00  0.00    +0.172 C 
ATOM     19  C   UNL     1      34.519 -16.743 -22.812  0.00  0.00    +0.169 C 
ATOM     20  C   UNL     1      34.630 -18.116 -23.040  0.00  0.00    +0.050 C 
ATOM     21  C   UNL     1      34.493 -16.345 -25.194  0.00  0.00    +0.040 C 
ATOM     22  C   UNL     1      34.673 -18.601 -24.348  0.00  0.00    +0.004 C 
ATOM     23  C   UNL     1      34.604 -17.717 -25.424  0.00  0.00    +0.003 C 
BRANCH  19  24
ATOM     24  O   UNL     1      34.477 -16.252 -21.538  0.00  0.00    -0.503 OA
ATOM     25  H   UNL     1      34.928 -16.698 -20.848  0.00  0.00    +0.292 HD
ENDBRANCH  19  24
BRANCH  18  26
ATOM     26  O   UNL     1      34.341 -14.517 -23.678  0.00  0.00    -0.476 OA
BRANCH  26  27
ATOM     27  C   UNL     1      33.096 -13.911 -24.003  0.00  0.00    +0.166 C 
ATOM     28  C   UNL     1      33.149 -13.377 -25.426  0.00  0.00    +0.044 C 
ATOM     29  C   UNL     1      32.886 -12.654 -23.172  0.00  0.00    +0.044 C 
ATOM     30  C   UNL     1      33.902 -12.052 -25.309  0.00  0.00    +0.004 C 
ATOM     31  C   UNL     1      33.759 -11.604 -23.855  0.00  0.00    +0.004 C 
ENDBRANCH  26  27
ENDBRANCH  18  26
ENDBRANCH   3  20
TORSDOF 5
ENDMDL
MODEL 3
REMARK VINA RESULT:     -10.5      3.976      9.110
REMARK  Name = 447488
REMARK  5 active torsions:
REMARK  status: ('A' for Active; 'I' for Inactive)
REMARK    1  A    between atoms: C_3  and  C_20
REMARK    2  A    between atoms: C_9  and  C_14
REMARK    3  A    between atoms: C_18  and  O_26
REMARK    4  A    between atoms: C_19  and  O_24
REMARK    5  A    between atoms: O_26  and  C_27
REMARK                            x       y       z     vdW  Elec       q    Type
REMARK                         _______ _______ _______ _____ _____    ______ ____
ROOT
ATOM      1 CL   UNL     1      34.095  -6.628 -24.015  0.00  0.00    -0.082 Cl
ATOM      2  N   UNL     1      34.274 -11.818 -24.296  0.00  0.00    -0.312 N 
ATOM      3  C   UNL     1      33.518 -12.823 -23.752  0.00  0.00    +0.051 C 
ATOM      4  C   UNL     1      32.692 -10.831 -23.072  0.00  0.00    +0.015 C 
ATOM      5  C   UNL     1      33.793 -10.591 -23.898  0.00  0.00    +0.049 C 
ATOM      6  C   UNL     1      32.531 -12.242 -22.988  0.00  0.00    +0.016 C 
ATOM      7  C   UNL     1      32.005  -9.730 -22.523  0.00  0.00    +0.005 C 
ATOM      8  C   UNL     1      34.242  -9.302 -24.203  0.00  0.00    +0.026 C 
ATOM      9  C   UNL     1      32.443  -8.435 -22.819  0.00  0.00    +0.041 C 
ATOM     10  C   UNL     1      33.545  -8.226 -23.646  0.00  0.00    +0.062 C 
ATOM     11  H   UNL     1      35.050 -11.955 -24.887  0.00  0.00    +0.152 HD
ENDROOT
BRANCH   9  14
ATOM     12  N   UNL     1      31.945  -6.905 -20.928  0.00  0.00    -0.343 N 
ATOM     13  N   UNL     1      30.783  -6.701 -22.945  0.00  0.00    -0.285 NA
ATOM     14  C   UNL     1      31.703  -7.323 -22.232  0.00  0.00    +0.118 C 
ATOM     15  H   UNL     1      31.435  -6.151 -20.550  0.00  0.00    +0.144 HD
ATOM     16  H   UNL     1      32.626  -7.360 -20.383  0.00  0.00    +0.144 HD
ATOM     17  H   UNL     1      30.281  -5.950 -22.554  0.00  0.00    +0.188 HD
ENDBRANCH   9  14
BRANCH   3  20
ATOM     18  C   UNL     1      34.614 -16.372 -23.278  0.00  0.00    +0.172 C 
ATOM     19  C   UNL     1      34.350 -15.029 -23.013  0.00  0.00    +0.169 C 
ATOM     20  C   UNL     1      33.799 -14.214 -24.004  0.00  0.00    +0.050 C 
ATOM     21  C   UNL     1      34.327 -16.904 -24.535  0.00  0.00    +0.040 C 
ATOM     22  C   UNL     1      33.513 -14.748 -25.262  0.00  0.00    +0.004 C 
ATOM     23  C   UNL     1      33.777 -16.092 -25.527  0.00  0.00    +0.003 C 
BRANCH  19  24
ATOM     24  O   UNL     1      34.635 -14.523 -21.777  0.00  0.00    -0.503 OA
ATOM     25  H   UNL     1      35.451 -14.727 -21.363  0.00  0.00    +0.292 HD
ENDBRANCH  19  24
BRANCH  18  26
ATOM     26  O   UNL     1      35.151 -17.177 -22.320  0.00  0.00    -0.476 OA
BRANCH  26  27
ATOM     27  C   UNL     1      35.659 -18.436 -22.742  0.00  0.00    +0.166 C 
ATOM     28  C   UNL     1      34.704 -19.538 -22.311  0.00  0.00    +0.044 C 
ATOM     29  C   UNL     1      36.936 -18.774 -21.987  0.00  0.00    +0.044 C 
ATOM     30  C   UNL     1      35.026 -19.767 -20.835  0.00  0.00    +0.004 C 
ATOM     31  C   UNL     1      36.447 -19.249 -20.621  0.00  0.00    +0.004 C 
ENDBRANCH  26  27
ENDBRANCH  18  26
ENDBRANCH   3  20
TORSDOF 5
ENDMDL
MODEL 4
REMARK VINA RESULT:     -10.1      4.145      7.214
REMARK  Name = 447488
REMARK  5 active torsions:
REMARK  status: ('A' for Active; 'I' for Inactive)
REMARK    1  A    between atoms: C_3  and  C_20
REMARK    2  A    between atoms: C_9  and  C_14
REMARK    3  A    between atoms: C_18  and  O_26
REMARK    4  A    between atoms: C_19  and  O_24
REMARK    5  A    between atoms: O_26  and  C_27
REMARK                            x       y       z     vdW  Elec       q    Type
REMARK                         _______ _______ _______ _____ _____    ______ ____
ROOT
ATOM      1 CL   UNL     1      34.106 -23.786 -16.462  0.00  0.00    -0.082 Cl
ATOM      2  N   UNL     1      34.301 -20.658 -20.613  0.00  0.00    -0.312 N 
ATOM      3  C   UNL     1      35.265 -19.838 -21.136  0.00  0.00    +0.051 C 
ATOM      4  C   UNL     1      36.078 -20.834 -19.276  0.00  0.00    +0.015 C 
ATOM      5  C   UNL     1      34.769 -21.279 -19.477  0.00  0.00    +0.049 C 
ATOM      6  C   UNL     1      36.377 -19.925 -20.329  0.00  0.00    +0.016 C 
ATOM      7  C   UNL     1      36.797 -21.322 -18.167  0.00  0.00    +0.005 C 
ATOM      8  C   UNL     1      34.141 -22.191 -18.620  0.00  0.00    +0.026 C 
ATOM      9  C   UNL     1      36.182 -22.234 -17.302  0.00  0.00    +0.041 C 
ATOM     10  C   UNL     1      34.875 -22.660 -17.527  0.00  0.00    +0.062 C 
ATOM     11  H   UNL     1      33.402 -20.785 -20.994  0.00  0.00    +0.152 HD
ENDROOT
BRANCH   9  14
ATOM     12  N   UNL     1      36.403 -22.809 -14.897  0.00  0.00    -0.343 N 
ATOM     13  N   UNL     1      38.221 -23.071 -16.342  0.00  0.00    -0.285 NA
ATOM     14  C   UNL     1      36.961 -22.717 -16.168  0.00  0.00    +0.118 C 
ATOM     15  H   UNL     1      36.946 -23.138 -14.143  0.00  0.00    +0.144 HD
ATOM     16  H   UNL     1      35.466 -22.547 -14.750  0.00  0.00    +0.144 HD
ATOM     17  H   UNL     1      38.751 -23.398 -15.580  0.00  0.00    +0.188 HD
ENDBRANCH   9  14
BRANCH   3  20
ATOM     18  C   UNL     1      34.709 -16.943 -23.445  0.00  0.00    +0.172 C 
ATOM     19  C   UNL     1      34.922 -17.673 -22.276  0.00  0.00    +0.169 C 
ATOM     20  C   UNL     1      35.044 -19.063 -22.332  0.00  0.00    +0.050 C 
ATOM     21  C   UNL     1      34.617 -17.601 -24.671  0.00  0.00    +0.040 C 
ATOM     22  C   UNL     1      34.952 -19.720 -23.560  0.00  0.00    +0.004 C 
ATOM     23  C   UNL     1      34.739 -18.989 -24.728  0.00  0.00    +0.003 C 
BRANCH  19  24
ATOM     24  O   UNL     1      35.010 -17.015 -21.084  0.00  0.00    -0.503 OA
ATOM     25  H   UNL     1      35.746 -17.160 -20.521  0.00  0.00    +0.292 HD
ENDBRANCH  19  24
BRANCH  18  26
ATOM     26  O   UNL     1      34.587 -15.587 -23.405  0.00  0.00    -0.476 OA
BRANCH  26  27
ATOM     27  C   UNL     1      33.273 -15.053 -23.484  0.00  0.00    +0.166 C 
ATOM     28  C   UNL     1      33.042 -14.479 -24.873  0.00  0.00    +0.044 C 
ATOM     29  C   UNL     1      33.140 -13.833 -22.583  0.00  0.00    +0.044 C 
ATOM     30  C   UNL     1      33.726 -13.113 -24.842  0.00  0.00    +0.004 C 
ATOM     31  C   UNL     1      33.817 -12.713 -23.370  0.00  0.00    +0.004 C 
ENDBRANCH  26  27
ENDBRANCH  18  26
ENDBRANCH   3  20
TORSDOF 5
ENDMDL
MODEL 5
REMARK VINA RESULT:      -9.8      4.113      9.049
REMARK  Name = 447488
REMARK  5 active torsions:
REMARK  status: ('A' for Active; 'I' for Inactive)
REMARK    1  A    between atoms: C_3  and  C_20
REMARK    2  A    between atoms: C_9  and  C_14
REMARK    3  A    between atoms: C_18  and  O_26
REMARK    4  A    between atoms: C_19  and  O_24
REMARK    5  A    between atoms: O_26  and  C_27
REMARK                            x       y       z     vdW  Elec       q    Type
REMARK                         _______ _______ _______ _____ _____    ______ ____
ROOT
ATOM      1 CL   UNL     1      33.807  -5.729 -25.136  0.00  0.00    -0.082 Cl
ATOM      2  N   UNL     1      33.321 -10.566 -23.290  0.00  0.00    -0.312 N 
ATOM      3  C   UNL     1      32.419 -11.177 -22.459  0.00  0.00    +0.051 C 
ATOM      4  C   UNL     1      31.831  -9.009 -22.717  0.00  0.00    +0.015 C 
ATOM      5  C   UNL     1      32.987  -9.242 -23.464  0.00  0.00    +0.049 C 
ATOM      6  C   UNL     1      31.485 -10.237 -22.087  0.00  0.00    +0.016 C 
ATOM      7  C   UNL     1      31.270  -7.716 -22.721  0.00  0.00    +0.005 C 
ATOM      8  C   UNL     1      33.613  -8.244 -24.219  0.00  0.00    +0.026 C 
ATOM      9  C   UNL     1      31.885  -6.708 -23.472  0.00  0.00    +0.041 C 
ATOM     10  C   UNL     1      33.039  -6.969 -24.208  0.00  0.00    +0.062 C 
ATOM     11  H   UNL     1      34.097 -11.011 -23.702  0.00  0.00    +0.152 HD
ENDROOT
BRANCH   9  14
ATOM     12  N   UNL     1      30.618  -4.877 -24.570  0.00  0.00    -0.343 N 
ATOM     13  N   UNL     1      31.338  -4.649 -22.358  0.00  0.00    -0.285 NA
ATOM     14  C   UNL     1      31.272  -5.385 -23.452  0.00  0.00    +0.118 C 
ATOM     15  H   UNL     1      30.210  -3.981 -24.537  0.00  0.00    +0.144 HD
ATOM     16  H   UNL     1      30.562  -5.412 -25.393  0.00  0.00    +0.144 HD
ATOM     17  H   UNL     1      30.925  -3.756 -22.340  0.00  0.00    +0.188 HD
ENDBRANCH   9  14
BRANCH   3  20
ATOM     18  C   UNL     1      32.974 -14.873 -22.691  0.00  0.00    +0.172 C 
ATOM     19  C   UNL     1      32.875 -13.531 -23.055  0.00  0.00    +0.169 C 
ATOM     20  C   UNL     1      32.527 -12.570 -22.104  0.00  0.00    +0.050 C 
ATOM     21  C   UNL     1      32.726 -15.257 -21.374  0.00  0.00    +0.040 C 
ATOM     22  C   UNL     1      32.279 -12.957 -20.786  0.00  0.00    +0.004 C 
ATOM     23  C   UNL     1      32.378 -14.299 -20.421  0.00  0.00    +0.003 C 
BRANCH  19  24
ATOM     24  O   UNL     1      33.122 -13.170 -24.349  0.00  0.00    -0.503 OA
ATOM     25  H   UNL     1      33.822 -12.578 -24.545  0.00  0.00    +0.292 HD
ENDBRANCH  19  24
BRANCH  18  26
ATOM     26  O   UNL     1      33.312 -15.820 -23.609  0.00  0.00    -0.476 OA
BRANCH  26  27
ATOM     27  C   UNL     1      34.699 -16.040 -23.832  0.00  0.00    +0.166 C 
ATOM     28  C   UNL     1      34.892 -16.751 -25.162  0.00  0.00    +0.044 C 
ATOM     29  C   UNL     1      35.245 -17.041 -22.825  0.00  0.00    +0.044 C 
ATOM     30  C   UNL     1      34.583 -18.217 -24.860  0.00  0.00    +0.004 C 
ATOM     31  C   UNL     1      34.781 -18.396 -23.355  0.00  0.00    +0.004 C 
ENDBRANCH  26  27
ENDBRANCH  18  26
ENDBRANCH   3  20
TORSDOF 5
ENDMDL
MODEL 6
REMARK VINA RESULT:      -9.5      7.007     10.493
REMARK  Name = 447488
REMARK  5 active torsions:
REMARK  status: ('A' for Active; 'I' for Inactive)
REMARK    1  A    between atoms: C_3  and  C_20
REMARK    2  A    between atoms: C_9  and  C_14
REMARK    3  A    between atoms: C_18  and  O_26
REMARK    4  A    between atoms: C_19  and  O_24
REMARK    5  A    between atoms: O_26  and  C_27
REMARK                            x       y       z     vdW  Elec       q    Type
REMARK                         _______ _______ _______ _____ _____    ______ ____
ROOT
ATOM      1 CL   UNL     1      28.118 -23.314 -15.406  0.00  0.00    -0.082 Cl
ATOM      2  N   UNL     1      32.189 -21.764 -18.247  0.00  0.00    -0.312 N 
ATOM      3  C   UNL     1      33.513 -22.116 -18.275  0.00  0.00    +0.051 C 
ATOM      4  C   UNL     1      32.463 -23.337 -16.689  0.00  0.00    +0.015 C 
ATOM      5  C   UNL     1      31.524 -22.493 -17.287  0.00  0.00    +0.049 C 
ATOM      6  C   UNL     1      33.712 -23.088 -17.322  0.00  0.00    +0.016 C 
ATOM      7  C   UNL     1      32.038 -24.202 -15.660  0.00  0.00    +0.005 C 
ATOM      8  C   UNL     1      30.177 -22.471 -16.906  0.00  0.00    +0.026 C 
ATOM      9  C   UNL     1      30.694 -24.190 -15.270  0.00  0.00    +0.041 C 
ATOM     10  C   UNL     1      29.780 -23.337 -15.884  0.00  0.00    +0.062 C 
ATOM     11  H   UNL     1      31.774 -21.086 -18.828  0.00  0.00    +0.152 HD
ENDROOT
BRANCH   9  14
ATOM     12  N   UNL     1      29.421 -26.157 -14.447  0.00  0.00    -0.343 N 
ATOM     13  N   UNL     1      30.765 -24.928 -12.983  0.00  0.00    -0.285 NA
ATOM     14  C   UNL     1      30.295 -25.103 -14.204  0.00  0.00    +0.118 C 
ATOM     15  H   UNL     1      29.164 -26.762 -13.714  0.00  0.00    +0.144 HD
ATOM     16  H   UNL     1      29.060 -26.298 -15.351  0.00  0.00    +0.144 HD
ATOM     17  H   UNL     1      30.499 -25.541 -12.261  0.00  0.00    +0.188 HD
ENDBRANCH   9  14
BRANCH   3  20
ATOM     18  C   UNL     1      34.929 -20.065 -21.070  0.00  0.00    +0.172 C 
ATOM     19  C   UNL     1      34.009 -20.643 -20.196  0.00  0.00    +0.169 C 
ATOM     20  C   UNL     1      34.446 -21.508 -19.191  0.00  0.00    +0.050 C 
ATOM     21  C   UNL     1      36.288 -20.351 -20.942  0.00  0.00    +0.040 C 
ATOM     22  C   UNL     1      35.807 -21.793 -19.064  0.00  0.00    +0.004 C 
ATOM     23  C   UNL     1      36.726 -21.216 -19.938  0.00  0.00    +0.003 C 
BRANCH  19  24
ATOM     24  O   UNL     1      32.682 -20.353 -20.334  0.00  0.00    -0.503 OA
ATOM     25  H   UNL     1      32.311 -20.252 -21.188  0.00  0.00    +0.292 HD
ENDBRANCH  19  24
BRANCH  18  26
ATOM     26  O   UNL     1      34.516 -19.221 -22.056  0.00  0.00    -0.476 OA
BRANCH  26  27
ATOM     27  C   UNL     1      35.512 -18.714 -22.934  0.00  0.00    +0.166 C 
ATOM     28  C   UNL     1      35.418 -17.197 -22.985  0.00  0.00    +0.044 C 
ATOM     29  C   UNL     1      35.214 -19.125 -24.368  0.00  0.00    +0.044 C 
ATOM     30  C   UNL     1      34.260 -16.918 -23.942  0.00  0.00    +0.004 C 
ATOM     31  C   UNL     1      34.109 -18.167 -24.809  0.00  0.00    +0.004 C 
ENDBRANCH  26  27
ENDBRANCH  18  26
ENDBRANCH   3  20
TORSDOF 5
ENDMDL
MODEL 7
REMARK VINA RESULT:      -9.5      3.705      9.149
REMARK  Name = 447488
REMARK  5 active torsions:
REMARK  status: ('A' for Active; 'I' for Inactive)
REMARK    1  A    between atoms: C_3  and  C_20
REMARK    2  A    between atoms: C_9  and  C_14
REMARK    3  A    between atoms: C_18  and  O_26
REMARK    4  A    between atoms: C_19  and  O_24
REMARK    5  A    between atoms: O_26  and  C_27
REMARK                            x       y       z     vdW  Elec       q    Type
REMARK                         _______ _______ _______ _____ _____    ______ ____
ROOT
ATOM      1 CL   UNL     1      30.802 -10.415 -19.899  0.00  0.00    -0.082 Cl
ATOM      2  N   UNL     1      32.927 -14.584 -22.169  0.00  0.00    -0.312 N 
ATOM      3  C   UNL     1      33.631 -14.775 -23.329  0.00  0.00    +0.051 C 
ATOM      4  C   UNL     1      33.099 -12.585 -23.145  0.00  0.00    +0.015 C 
ATOM      5  C   UNL     1      32.588 -13.256 -22.032  0.00  0.00    +0.049 C 
ATOM      6  C   UNL     1      33.753 -13.555 -23.955  0.00  0.00    +0.016 C 
ATOM      7  C   UNL     1      32.890 -11.196 -23.254  0.00  0.00    +0.005 C 
ATOM      8  C   UNL     1      31.877 -12.605 -21.018  0.00  0.00    +0.026 C 
ATOM      9  C   UNL     1      32.181 -10.532 -22.247  0.00  0.00    +0.041 C 
ATOM     10  C   UNL     1      31.682 -11.227 -21.147  0.00  0.00    +0.062 C 
ATOM     11  H   UNL     1      32.695 -15.294 -21.528  0.00  0.00    +0.152 HD
ENDROOT
BRANCH   9  14
ATOM     12  N   UNL     1      32.707  -8.187 -21.622  0.00  0.00    -0.343 N 
ATOM     13  N   UNL     1      31.117  -8.637 -23.274  0.00  0.00    -0.285 NA
ATOM     14  C   UNL     1      31.989  -9.093 -22.395  0.00  0.00    +0.118 C 
ATOM     15  H   UNL     1      32.564  -7.219 -21.738  0.00  0.00    +0.144 HD
ATOM     16  H   UNL     1      33.359  -8.512 -20.961  0.00  0.00    +0.144 HD
ATOM     17  H   UNL     1      30.984  -7.667 -23.378  0.00  0.00    +0.188 HD
ENDBRANCH   9  14
BRANCH   3  20
ATOM     18  C   UNL     1      35.241 -18.154 -23.223  0.00  0.00    +0.172 C 
ATOM     19  C   UNL     1      34.782 -16.901 -22.819  0.00  0.00    +0.169 C 
ATOM     20  C   UNL     1      34.115 -16.074 -23.725  0.00  0.00    +0.050 C 
ATOM     21  C   UNL     1      35.034 -18.584 -24.533  0.00  0.00    +0.040 C 
ATOM     22  C   UNL     1      33.907 -16.506 -25.036  0.00  0.00    +0.004 C 
ATOM     23  C   UNL     1      34.366 -17.759 -25.440  0.00  0.00    +0.003 C 
BRANCH  19  24
ATOM     24  O   UNL     1      34.993 -16.495 -21.532  0.00  0.00    -0.503 OA
ATOM     25  H   UNL     1      34.288 -16.129 -21.035  0.00  0.00    +0.292 HD
ENDBRANCH  19  24
BRANCH  18  26
ATOM     26  O   UNL     1      35.895 -18.970 -22.349  0.00  0.00    -0.476 OA
BRANCH  26  27
ATOM     27  C   UNL     1      35.543 -18.862 -20.976  0.00  0.00    +0.166 C 
ATOM     28  C   UNL     1      36.680 -19.394 -20.118  0.00  0.00    +0.044 C 
ATOM     29  C   UNL     1      34.395 -19.804 -20.647  0.00  0.00    +0.044 C 
ATOM     30  C   UNL     1      36.517 -20.913 -20.166  0.00  0.00    +0.004 C 
ATOM     31  C   UNL     1      35.057 -21.176 -20.536  0.00  0.00    +0.004 C 
ENDBRANCH  26  27
ENDBRANCH  18  26
ENDBRANCH   3  20
TORSDOF 5
ENDMDL
MODEL 8
REMARK VINA RESULT:      -9.3      8.208     13.138
REMARK  Name = 447488
REMARK  5 active torsions:
REMARK  status: ('A' for Active; 'I' for Inactive)
REMARK    1  A    between atoms: C_3  and  C_20
REMARK    2  A    between atoms: C_9  and  C_14
REMARK    3  A    between atoms: C_18  and  O_26
REMARK    4  A    between atoms: C_19  and  O_24
REMARK    5  A    between atoms: O_26  and  C_27
REMARK                            x       y       z     vdW  Elec       q    Type
REMARK                         _______ _______ _______ _____ _____    ______ ____
ROOT
ATOM      1 CL   UNL     1      37.766 -18.663 -22.125  0.00  0.00    -0.082 Cl
ATOM      2  N   UNL     1      35.866 -21.664 -18.327  0.00  0.00    -0.312 N 
ATOM      3  C   UNL     1      34.617 -22.145 -18.035  0.00  0.00    +0.051 C 
ATOM      4  C   UNL     1      34.503 -20.900 -19.919  0.00  0.00    +0.015 C 
ATOM      5  C   UNL     1      35.826 -20.900 -19.471  0.00  0.00    +0.049 C 
ATOM      6  C   UNL     1      33.752 -21.688 -19.003  0.00  0.00    +0.016 C 
ATOM      7  C   UNL     1      34.183 -20.183 -21.089  0.00  0.00    +0.005 C 
ATOM      8  C   UNL     1      36.849 -20.216 -20.138  0.00  0.00    +0.026 C 
ATOM      9  C   UNL     1      35.196 -19.495 -21.766  0.00  0.00    +0.041 C 
ATOM     10  C   UNL     1      36.508 -19.512 -21.296  0.00  0.00    +0.062 C 
ATOM     11  H   UNL     1      36.675 -21.839 -17.794  0.00  0.00    +0.152 HD
ENDROOT
BRANCH   9  14
ATOM     12  N   UNL     1      34.567 -17.400 -22.942  0.00  0.00    -0.343 N 
ATOM     13  N   UNL     1      34.724 -19.412 -24.121  0.00  0.00    -0.285 NA
ATOM     14  C   UNL     1      34.824 -18.767 -22.974  0.00  0.00    +0.118 C 
ATOM     15  H   UNL     1      34.318 -16.927 -23.769  0.00  0.00    +0.144 HD
ATOM     16  H   UNL     1      34.635 -16.906 -22.094  0.00  0.00    +0.144 HD
ATOM     17  H   UNL     1      34.474 -18.925 -24.939  0.00  0.00    +0.188 HD
ENDBRANCH   9  14
BRANCH   3  20
ATOM     18  C   UNL     1      35.158 -24.301 -15.022  0.00  0.00    +0.172 C 
ATOM     19  C   UNL     1      35.421 -23.497 -16.130  0.00  0.00    +0.169 C 
ATOM     20  C   UNL     1      34.368 -22.980 -16.886  0.00  0.00    +0.050 C 
ATOM     21  C   UNL     1      33.841 -24.591 -14.667  0.00  0.00    +0.040 C 
ATOM     22  C   UNL     1      33.049 -23.270 -16.529  0.00  0.00    +0.004 C 
ATOM     23  C   UNL     1      32.786 -24.075 -15.421  0.00  0.00    +0.003 C 
BRANCH  19  24
ATOM     24  O   UNL     1      36.716 -23.222 -16.463  0.00  0.00    -0.503 OA
ATOM     25  H   UNL     1      37.310 -23.922 -16.653  0.00  0.00    +0.292 HD
ENDBRANCH  19  24
BRANCH  18  26
ATOM     26  O   UNL     1      36.177 -24.813 -14.276  0.00  0.00    -0.476 OA
BRANCH  26  27
ATOM     27  C   UNL     1      35.971 -24.899 -12.872  0.00  0.00    +0.166 C 
ATOM     28  C   UNL     1      35.979 -23.501 -12.273  0.00  0.00    +0.044 C 
ATOM     29  C   UNL     1      37.163 -25.566 -12.201  0.00  0.00    +0.044 C 
ATOM     30  C   UNL     1      37.460 -23.143 -12.157  0.00  0.00    +0.004 C 
ATOM     31  C   UNL     1      38.222 -24.468 -12.142  0.00  0.00    +0.004 C 
ENDBRANCH  26  27
ENDBRANCH  18  26
ENDBRANCH   3  20
TORSDOF 5
ENDMDL
MODEL 9
REMARK VINA RESULT:      -9.2      1.836      2.422
REMARK  Name = 447488
REMARK  5 active torsions:
REMARK  status: ('A' for Active; 'I' for Inactive)
REMARK    1  A    between atoms: C_3  and  C_20
REMARK    2  A    between atoms: C_9  and  C_14
REMARK    3  A    between atoms: C_18  and  O_26
REMARK    4  A    between atoms: C_19  and  O_24
REMARK    5  A    between atoms: O_26  and  C_27
REMARK                            x       y       z     vdW  Elec       q    Type
REMARK                         _______ _______ _______ _____ _____    ______ ____
ROOT
ATOM      1 CL   UNL     1      35.730 -18.575 -21.883  0.00  0.00    -0.082 Cl
ATOM      2  N   UNL     1      33.451 -14.023 -20.821  0.00  0.00    -0.312 N 
ATOM      3  C   UNL     1      32.761 -13.110 -21.575  0.00  0.00    +0.051 C 
ATOM      4  C   UNL     1      33.395 -14.829 -22.900  0.00  0.00    +0.015 C 
ATOM      5  C   UNL     1      33.851 -15.082 -21.605  0.00  0.00    +0.049 C 
ATOM      6  C   UNL     1      32.710 -13.582 -22.867  0.00  0.00    +0.016 C 
ATOM      7  C   UNL     1      33.672 -15.770 -23.912  0.00  0.00    +0.005 C 
ATOM      8  C   UNL     1      34.573 -16.233 -21.269  0.00  0.00    +0.026 C 
ATOM      9  C   UNL     1      34.393 -16.926 -23.591  0.00  0.00    +0.041 C 
ATOM     10  C   UNL     1      34.836 -17.152 -22.289  0.00  0.00    +0.062 C 
ATOM     11  H   UNL     1      33.636 -13.932 -19.858  0.00  0.00    +0.152 HD
ENDROOT
BRANCH   9  14
ATOM     12  N   UNL     1      34.617 -19.248 -24.441  0.00  0.00    -0.343 N 
ATOM     13  N   UNL     1      34.943 -17.432 -25.875  0.00  0.00    -0.285 NA
ATOM     14  C   UNL     1      34.657 -17.876 -24.666  0.00  0.00    +0.118 C 
ATOM     15  H   UNL     1      34.797 -19.873 -25.180  0.00  0.00    +0.144 HD
ATOM     16  H   UNL     1      34.407 -19.594 -23.544  0.00  0.00    +0.144 HD
ATOM     17  H   UNL     1      35.121 -18.069 -26.604  0.00  0.00    +0.188 HD
ENDBRANCH   9  14
BRANCH   3  20
ATOM     18  C   UNL     1      31.638  -9.560 -21.185  0.00  0.00    +0.172 C 
ATOM     19  C   UNL     1      32.162 -10.720 -21.753  0.00  0.00    +0.169 C 
ATOM     20  C   UNL     1      32.224 -11.899 -21.007  0.00  0.00    +0.050 C 
ATOM     21  C   UNL     1      31.175  -9.575 -19.869  0.00  0.00    +0.040 C 
ATOM     22  C   UNL     1      31.760 -11.913 -19.691  0.00  0.00    +0.004 C 
ATOM     23  C   UNL     1      31.236 -10.752 -19.122  0.00  0.00    +0.003 C 
BRANCH  19  24
ATOM     24  O   UNL     1      32.610 -10.689 -23.042  0.00  0.00    -0.503 OA
ATOM     25  H   UNL     1      33.207 -11.345 -23.347  0.00  0.00    +0.292 HD
ENDBRANCH  19  24
BRANCH  18  26
ATOM     26  O   UNL     1      31.572  -8.403 -21.901  0.00  0.00    -0.476 OA
BRANCH  26  27
ATOM     27  C   UNL     1      32.532  -7.399 -21.598  0.00  0.00    +0.166 C 
ATOM     28  C   UNL     1      31.936  -6.028 -21.876  0.00  0.00    +0.044 C 
ATOM     29  C   UNL     1      33.699  -7.470 -22.573  0.00  0.00    +0.044 C 
ATOM     30  C   UNL     1      32.055  -5.858 -23.390  0.00  0.00    +0.004 C 
ATOM     31  C   UNL     1      33.166  -6.806 -23.841  0.00  0.00    +0.004 C 
ENDBRANCH  26  27
ENDBRANCH  18  26
ENDBRANCH   3  20
TORSDOF 5
ENDMDL
