MODEL 1
REMARK VINA RESULT:      -9.3      0.000      0.000
REMARK  Name = 5288172
REMARK  0 active torsions:
REMARK  status: ('A' for Active; 'I' for Inactive)
REMARK                            x       y       z     vdW  Elec       q    Type
REMARK                         _______ _______ _______ _____ _____    ______ ____
ROOT
ATOM      1  O   UNL     1      35.309 -25.085 -10.940  0.00  0.00    -0.296 OA
ATOM      2  O   UNL     1      34.270 -20.579 -20.622  0.00  0.00    -0.296 OA
ATOM      3  C   UNL     1      36.528 -23.167 -15.219  0.00  0.00    +0.000 C 
ATOM      4  C   UNL     1      35.064 -22.998 -15.724  0.00  0.00    +0.000 C 
ATOM      5  C   UNL     1      36.496 -23.340 -13.701  0.00  0.00    +0.007 C 
ATOM      6  C   UNL     1      35.710 -24.603 -13.290  0.00  0.00    +0.052 C 
ATOM      7  C   UNL     1      35.048 -22.854 -17.272  0.00  0.00    +0.001 C 
ATOM      8  C   UNL     1      35.944 -21.666 -17.708  0.00  0.00    +0.007 C 
ATOM      9  C   UNL     1      34.134 -24.127 -15.210  0.00  0.00    +0.000 C 
ATOM     10  C   UNL     1      37.387 -21.972 -15.647  0.00  0.00    +0.000 C 
ATOM     11  C   UNL     1      34.255 -24.399 -13.699  0.00  0.00    +0.007 C 
ATOM     12  C   UNL     1      37.799 -23.440 -12.915  0.00  0.00    +0.008 C 
ATOM     13  C   UNL     1      37.371 -21.803 -17.163  0.00  0.00    +0.000 C 
ATOM     14  C   UNL     1      33.625 -22.656 -17.834  0.00  0.00    +0.008 C 
ATOM     15  C   UNL     1      36.011 -24.575 -11.804  0.00  0.00    +0.150 C 
ATOM     16  C   UNL     1      37.320 -23.859 -11.517  0.00  0.00    +0.064 C 
ATOM     17  C   UNL     1      35.980 -21.520 -19.231  0.00  0.00    +0.064 C 
ATOM     18  C   UNL     1      36.256 -25.940 -13.824  0.00  0.00    +0.007 C 
ATOM     19  C   UNL     1      33.617 -22.501 -19.350  0.00  0.00    +0.065 C 
ATOM     20  C   UNL     1      34.580 -21.425 -19.785  0.00  0.00    +0.151 C 
ENDROOT
TORSDOF 0
ENDMDL
MODEL 2
REMARK VINA RESULT:      -9.3      3.089      5.690
REMARK  Name = 5288172
REMARK  0 active torsions:
REMARK  status: ('A' for Active; 'I' for Inactive)
REMARK                            x       y       z     vdW  Elec       q    Type
REMARK                         _______ _______ _______ _____ _____    ______ ____
ROOT
ATOM      1  O   UNL     1      28.712 -24.713 -14.627  0.00  0.00    -0.296 OA
ATOM      2  O   UNL     1      39.441 -24.689 -14.792  0.00  0.00    -0.296 OA
ATOM      3  C   UNL     1      33.244 -23.290 -15.585  0.00  0.00    +0.000 C 
ATOM      4  C   UNL     1      33.927 -24.415 -14.750  0.00  0.00    +0.000 C 
ATOM      5  C   UNL     1      31.800 -23.710 -15.864  0.00  0.00    +0.007 C 
ATOM      6  C   UNL     1      30.996 -23.879 -14.558  0.00  0.00    +0.052 C 
ATOM      7  C   UNL     1      35.391 -24.012 -14.413  0.00  0.00    +0.001 C 
ATOM      8  C   UNL     1      36.175 -23.708 -15.715  0.00  0.00    +0.007 C 
ATOM      9  C   UNL     1      33.099 -24.799 -13.497  0.00  0.00    +0.000 C 
ATOM     10  C   UNL     1      34.028 -23.022 -16.873  0.00  0.00    +0.000 C 
ATOM     11  C   UNL     1      31.606 -25.042 -13.784  0.00  0.00    +0.007 C 
ATOM     12  C   UNL     1      30.908 -22.838 -16.741  0.00  0.00    +0.008 C 
ATOM     13  C   UNL     1      35.472 -22.642 -16.565  0.00  0.00    +0.000 C 
ATOM     14  C   UNL     1      36.134 -25.098 -13.609  0.00  0.00    +0.008 C 
ATOM     15  C   UNL     1      29.628 -24.111 -15.171  0.00  0.00    +0.150 C 
ATOM     16  C   UNL     1      29.521 -23.469 -16.544  0.00  0.00    +0.064 C 
ATOM     17  C   UNL     1      37.612 -23.271 -15.416  0.00  0.00    +0.064 C 
ATOM     18  C   UNL     1      30.874 -22.625 -13.673  0.00  0.00    +0.007 C 
ATOM     19  C   UNL     1      37.572 -24.705 -13.293  0.00  0.00    +0.065 C 
ATOM     20  C   UNL     1      38.303 -24.293 -14.546  0.00  0.00    +0.151 C 
ENDROOT
TORSDOF 0
ENDMDL
MODEL 3
REMARK VINA RESULT:      -9.1      3.288      4.720
REMARK  Name = 5288172
REMARK  0 active torsions:
REMARK  status: ('A' for Active; 'I' for Inactive)
REMARK                            x       y       z     vdW  Elec       q    Type
REMARK                         _______ _______ _______ _____ _____    ______ ____
ROOT
ATOM      1  O   UNL     1      37.912 -23.552 -13.346  0.00  0.00    -0.296 OA
ATOM      2  O   UNL     1      27.439 -23.263 -15.658  0.00  0.00    -0.296 OA
ATOM      3  C   UNL     1      33.831 -23.453 -15.956  0.00  0.00    +0.000 C 
ATOM      4  C   UNL     1      32.874 -23.532 -14.729  0.00  0.00    +0.000 C 
ATOM      5  C   UNL     1      35.209 -23.014 -15.462  0.00  0.00    +0.007 C 
ATOM      6  C   UNL     1      35.806 -24.029 -14.465  0.00  0.00    +0.052 C 
ATOM      7  C   UNL     1      31.466 -24.011 -15.182  0.00  0.00    +0.001 C 
ATOM      8  C   UNL     1      30.910 -23.072 -16.284  0.00  0.00    +0.007 C 
ATOM      9  C   UNL     1      33.465 -24.387 -13.579  0.00  0.00    +0.000 C 
ATOM     10  C   UNL     1      33.268 -22.506 -17.020  0.00  0.00    +0.000 C 
ATOM     11  C   UNL     1      34.922 -24.037 -13.223  0.00  0.00    +0.007 C 
ATOM     12  C   UNL     1      36.335 -22.765 -16.460  0.00  0.00    +0.008 C 
ATOM     13  C   UNL     1      31.879 -22.950 -17.466  0.00  0.00    +0.000 C 
ATOM     14  C   UNL     1      30.460 -24.084 -14.015  0.00  0.00    +0.008 C 
ATOM     15  C   UNL     1      37.183 -23.409 -14.318  0.00  0.00    +0.150 C 
ATOM     16  C   UNL     1      37.564 -22.608 -15.552  0.00  0.00    +0.064 C 
ATOM     17  C   UNL     1      29.539 -23.538 -16.780  0.00  0.00    +0.064 C 
ATOM     18  C   UNL     1      36.021 -25.455 -15.004  0.00  0.00    +0.007 C 
ATOM     19  C   UNL     1      29.078 -24.540 -14.467  0.00  0.00    +0.065 C 
ATOM     20  C   UNL     1      28.587 -23.702 -15.620  0.00  0.00    +0.151 C 
ENDROOT
TORSDOF 0
ENDMDL
MODEL 4
REMARK VINA RESULT:      -8.8      8.117     11.314
REMARK  Name = 5288172
REMARK  0 active torsions:
REMARK  status: ('A' for Active; 'I' for Inactive)
REMARK                            x       y       z     vdW  Elec       q    Type
REMARK                         _______ _______ _______ _____ _____    ______ ____
ROOT
ATOM      1  O   UNL     1      35.230 -19.968 -23.949  0.00  0.00    -0.296 OA
ATOM      2  O   UNL     1      31.311 -10.080 -22.537  0.00  0.00    -0.296 OA
ATOM      3  C   UNL     1      33.620 -15.992 -21.697  0.00  0.00    +0.000 C 
ATOM      4  C   UNL     1      33.441 -15.152 -22.997  0.00  0.00    +0.000 C 
ATOM      5  C   UNL     1      33.697 -17.468 -22.086  0.00  0.00    +0.007 C 
ATOM      6  C   UNL     1      34.908 -17.753 -22.998  0.00  0.00    +0.052 C 
ATOM      7  C   UNL     1      33.394 -13.637 -22.651  0.00  0.00    +0.001 C 
ATOM      8  C   UNL     1      32.262 -13.358 -21.628  0.00  0.00    +0.007 C 
ATOM      9  C   UNL     1      34.508 -15.497 -24.068  0.00  0.00    +0.000 C 
ATOM     10  C   UNL     1      32.480 -15.711 -20.713  0.00  0.00    +0.000 C 
ATOM     11  C   UNL     1      34.688 -17.007 -24.309  0.00  0.00    +0.007 C 
ATOM     12  C   UNL     1      33.785 -18.539 -21.004  0.00  0.00    +0.008 C 
ATOM     13  C   UNL     1      32.406 -14.226 -20.372  0.00  0.00    +0.000 C 
ATOM     14  C   UNL     1      33.189 -12.750 -23.895  0.00  0.00    +0.008 C 
ATOM     15  C   UNL     1      34.796 -19.265 -23.047  0.00  0.00    +0.150 C 
ATOM     16  C   UNL     1      34.102 -19.808 -21.810  0.00  0.00    +0.064 C 
ATOM     17  C   UNL     1      32.212 -11.879 -21.236  0.00  0.00    +0.064 C 
ATOM     18  C   UNL     1      36.291 -17.434 -22.401  0.00  0.00    +0.007 C 
ATOM     19  C   UNL     1      33.129 -11.267 -23.548  0.00  0.00    +0.065 C 
ATOM     20  C   UNL     1      32.111 -11.011 -22.466  0.00  0.00    +0.151 C 
ENDROOT
TORSDOF 0
ENDMDL
MODEL 5
REMARK VINA RESULT:      -8.5      9.641     12.935
REMARK  Name = 5288172
REMARK  0 active torsions:
REMARK  status: ('A' for Active; 'I' for Inactive)
REMARK                            x       y       z     vdW  Elec       q    Type
REMARK                         _______ _______ _______ _____ _____    ______ ____
ROOT
ATOM      1  O   UNL     1      31.829  -8.610 -21.568  0.00  0.00    -0.296 OA
ATOM      2  O   UNL     1      35.665 -18.420 -23.610  0.00  0.00    -0.296 OA
ATOM      3  C   UNL     1      32.440 -13.407 -21.273  0.00  0.00    +0.000 C 
ATOM      4  C   UNL     1      33.450 -13.497 -22.457  0.00  0.00    +0.000 C 
ATOM      5  C   UNL     1      32.380 -11.954 -20.803  0.00  0.00    +0.007 C 
ATOM      6  C   UNL     1      31.877 -11.016 -21.920  0.00  0.00    +0.052 C 
ATOM      7  C   UNL     1      33.516 -14.956 -22.991  0.00  0.00    +0.001 C 
ATOM      8  C   UNL     1      33.890 -15.929 -21.843  0.00  0.00    +0.007 C 
ATOM      9  C   UNL     1      33.145 -12.458 -23.566  0.00  0.00    +0.000 C 
ATOM     10  C   UNL     1      32.843 -14.365 -20.147  0.00  0.00    +0.000 C 
ATOM     11  C   UNL     1      32.912 -11.029 -23.039  0.00  0.00    +0.007 C 
ATOM     12  C   UNL     1      31.533 -11.578 -19.591  0.00  0.00    +0.008 C 
ATOM     13  C   UNL     1      32.930 -15.800 -20.654  0.00  0.00    +0.000 C 
ATOM     14  C   UNL     1      34.522 -15.118 -24.149  0.00  0.00    +0.008 C 
ATOM     15  C   UNL     1      31.770  -9.741 -21.105  0.00  0.00    +0.150 C 
ATOM     16  C   UNL     1      31.547 -10.043 -19.632  0.00  0.00    +0.064 C 
ATOM     17  C   UNL     1      33.928 -17.380 -22.328  0.00  0.00    +0.064 C 
ATOM     18  C   UNL     1      30.467 -11.310 -22.463  0.00  0.00    +0.007 C 
ATOM     19  C   UNL     1      34.593 -16.552 -24.659  0.00  0.00    +0.065 C 
ATOM     20  C   UNL     1      34.839 -17.513 -23.524  0.00  0.00    +0.151 C 
ENDROOT
TORSDOF 0
ENDMDL
MODEL 6
REMARK VINA RESULT:      -8.4      2.888      7.903
REMARK  Name = 5288172
REMARK  0 active torsions:
REMARK  status: ('A' for Active; 'I' for Inactive)
REMARK                            x       y       z     vdW  Elec       q    Type
REMARK                         _______ _______ _______ _____ _____    ______ ____
ROOT
ATOM      1  O   UNL     1      33.845 -18.131 -24.037  0.00  0.00    -0.296 OA
ATOM      2  O   UNL     1      34.661 -24.801 -15.672  0.00  0.00    -0.296 OA
ATOM      3  C   UNL     1      35.566 -20.160 -19.988  0.00  0.00    +0.000 C 
ATOM      4  C   UNL     1      34.396 -21.175 -19.826  0.00  0.00    +0.000 C 
ATOM      5  C   UNL     1      35.566 -19.652 -21.429  0.00  0.00    +0.007 C 
ATOM      6  C   UNL     1      34.255 -18.914 -21.771  0.00  0.00    +0.052 C 
ATOM      7  C   UNL     1      34.337 -21.691 -18.361  0.00  0.00    +0.001 C 
ATOM      8  C   UNL     1      35.698 -22.317 -17.960  0.00  0.00    +0.007 C 
ATOM      9  C   UNL     1      33.046 -20.594 -20.319  0.00  0.00    +0.000 C 
ATOM     10  C   UNL     1      36.900 -20.808 -19.603  0.00  0.00    +0.000 C 
ATOM     11  C   UNL     1      33.119 -19.929 -21.706  0.00  0.00    +0.007 C 
ATOM     12  C   UNL     1      36.662 -18.704 -21.906  0.00  0.00    +0.008 C 
ATOM     13  C   UNL     1      36.858 -21.337 -18.173  0.00  0.00    +0.000 C 
ATOM     14  C   UNL     1      33.214 -22.724 -18.140  0.00  0.00    +0.008 C 
ATOM     15  C   UNL     1      34.639 -18.408 -23.148  0.00  0.00    +0.150 C 
ATOM     16  C   UNL     1      36.145 -18.254 -23.280  0.00  0.00    +0.064 C 
ATOM     17  C   UNL     1      35.687 -22.803 -16.508  0.00  0.00    +0.064 C 
ATOM     18  C   UNL     1      33.939 -17.670 -20.919  0.00  0.00    +0.007 C 
ATOM     19  C   UNL     1      33.170 -23.238 -16.706  0.00  0.00    +0.065 C 
ATOM     20  C   UNL     1      34.525 -23.737 -16.274  0.00  0.00    +0.151 C 
ENDROOT
TORSDOF 0
ENDMDL
MODEL 7
REMARK VINA RESULT:      -8.4      1.827      3.752
REMARK  Name = 5288172
REMARK  0 active torsions:
REMARK  status: ('A' for Active; 'I' for Inactive)
REMARK                            x       y       z     vdW  Elec       q    Type
REMARK                         _______ _______ _______ _____ _____    ______ ____
ROOT
ATOM      1  O   UNL     1      37.584 -24.784 -14.235  0.00  0.00    -0.296 OA
ATOM      2  O   UNL     1      34.638 -19.262 -22.950  0.00  0.00    -0.296 OA
ATOM      3  C   UNL     1      34.750 -22.465 -17.408  0.00  0.00    +0.000 C 
ATOM      4  C   UNL     1      35.916 -22.003 -18.332  0.00  0.00    +0.000 C 
ATOM      5  C   UNL     1      35.256 -23.612 -16.533  0.00  0.00    +0.007 C 
ATOM      6  C   UNL     1      36.422 -23.163 -15.628  0.00  0.00    +0.052 C 
ATOM      7  C   UNL     1      35.455 -20.811 -19.216  0.00  0.00    +0.001 C 
ATOM      8  C   UNL     1      34.198 -21.207 -20.034  0.00  0.00    +0.007 C 
ATOM      9  C   UNL     1      37.210 -21.701 -17.533  0.00  0.00    +0.000 C 
ATOM     10  C   UNL     1      33.529 -22.868 -18.241  0.00  0.00    +0.000 C 
ATOM     11  C   UNL     1      37.598 -22.800 -16.528  0.00  0.00    +0.007 C 
ATOM     12  C   UNL     1      34.301 -24.327 -15.584  0.00  0.00    +0.008 C 
ATOM     13  C   UNL     1      33.070 -21.717 -19.130  0.00  0.00    +0.000 C 
ATOM     14  C   UNL     1      36.558 -20.323 -20.177  0.00  0.00    +0.008 C 
ATOM     15  C   UNL     1      36.560 -24.429 -14.803  0.00  0.00    +0.150 C 
ATOM     16  C   UNL     1      35.248 -25.194 -14.740  0.00  0.00    +0.064 C 
ATOM     17  C   UNL     1      33.694 -20.042 -20.890  0.00  0.00    +0.064 C 
ATOM     18  C   UNL     1      36.108 -22.026 -14.638  0.00  0.00    +0.007 C 
ATOM     19  C   UNL     1      36.095 -19.163 -21.052  0.00  0.00    +0.065 C 
ATOM     20  C   UNL     1      34.807 -19.505 -21.756  0.00  0.00    +0.151 C 
ENDROOT
TORSDOF 0
ENDMDL
MODEL 8
REMARK VINA RESULT:      -8.3      8.329     11.306
REMARK  Name = 5288172
REMARK  0 active torsions:
REMARK  status: ('A' for Active; 'I' for Inactive)
REMARK                            x       y       z     vdW  Elec       q    Type
REMARK                         _______ _______ _______ _____ _____    ______ ____
ROOT
ATOM      1  O   UNL     1      36.373 -18.970 -20.856  0.00  0.00    -0.296 OA
ATOM      2  O   UNL     1      31.270  -9.582 -21.833  0.00  0.00    -0.296 OA
ATOM      3  C   UNL     1      33.701 -15.426 -22.798  0.00  0.00    +0.000 C 
ATOM      4  C   UNL     1      33.715 -14.522 -21.529  0.00  0.00    +0.000 C 
ATOM      5  C   UNL     1      34.837 -16.441 -22.678  0.00  0.00    +0.007 C 
ATOM      6  C   UNL     1      34.653 -17.356 -21.449  0.00  0.00    +0.052 C 
ATOM      7  C   UNL     1      32.550 -13.495 -21.593  0.00  0.00    +0.001 C 
ATOM      8  C   UNL     1      32.647 -12.657 -22.895  0.00  0.00    +0.007 C 
ATOM      9  C   UNL     1      33.720 -15.353 -20.220  0.00  0.00    +0.000 C 
ATOM     10  C   UNL     1      33.816 -14.575 -24.067  0.00  0.00    +0.000 C 
ATOM     11  C   UNL     1      34.762 -16.486 -20.201  0.00  0.00    +0.007 C 
ATOM     12  C   UNL     1      35.122 -17.407 -23.823  0.00  0.00    +0.008 C 
ATOM     13  C   UNL     1      32.691 -13.549 -24.141  0.00  0.00    +0.000 C 
ATOM     14  C   UNL     1      32.525 -12.549 -20.376  0.00  0.00    +0.008 C 
ATOM     15  C   UNL     1      35.799 -18.314 -21.715  0.00  0.00    +0.150 C 
ATOM     16  C   UNL     1      36.127 -18.386 -23.197  0.00  0.00    +0.064 C 
ATOM     17  C   UNL     1      31.491 -11.659 -23.008  0.00  0.00    +0.064 C 
ATOM     18  C   UNL     1      33.368 -18.204 -21.426  0.00  0.00    +0.007 C 
ATOM     19  C   UNL     1      31.390 -11.535 -20.451  0.00  0.00    +0.065 C 
ATOM     20  C   UNL     1      31.412 -10.802 -21.768  0.00  0.00    +0.151 C 
ENDROOT
TORSDOF 0
ENDMDL
MODEL 9
REMARK VINA RESULT:      -8.3     11.981     15.851
REMARK  Name = 5288172
REMARK  0 active torsions:
REMARK  status: ('A' for Active; 'I' for Inactive)
REMARK                            x       y       z     vdW  Elec       q    Type
REMARK                         _______ _______ _______ _____ _____    ______ ____
ROOT
ATOM      1  O   UNL     1      32.694  -5.536 -23.813  0.00  0.00    -0.296 OA
ATOM      2  O   UNL     1      33.261 -15.920 -21.175  0.00  0.00    -0.296 OA
ATOM      3  C   UNL     1      31.814  -9.691 -21.482  0.00  0.00    +0.000 C 
ATOM      4  C   UNL     1      32.705 -10.569 -22.412  0.00  0.00    +0.000 C 
ATOM      5  C   UNL     1      32.219  -8.229 -21.670  0.00  0.00    +0.007 C 
ATOM      6  C   UNL     1      31.989  -7.759 -23.121  0.00  0.00    +0.052 C 
ATOM      7  C   UNL     1      32.302 -12.065 -22.279  0.00  0.00    +0.001 C 
ATOM      8  C   UNL     1      32.400 -12.515 -20.798  0.00  0.00    +0.007 C 
ATOM      9  C   UNL     1      32.694 -10.066 -23.878  0.00  0.00    +0.000 C 
ATOM     10  C   UNL     1      31.944 -10.146 -20.025  0.00  0.00    +0.000 C 
ATOM     11  C   UNL     1      32.930  -8.551 -24.022  0.00  0.00    +0.007 C 
ATOM     12  C   UNL     1      31.572  -7.142 -20.818  0.00  0.00    +0.008 C 
ATOM     13  C   UNL     1      31.569 -11.616 -19.875  0.00  0.00    +0.000 C 
ATOM     14  C   UNL     1      33.167 -12.993 -23.155  0.00  0.00    +0.008 C 
ATOM     15  C   UNL     1      32.308  -6.288 -22.928  0.00  0.00    +0.150 C 
ATOM     16  C   UNL     1      32.055  -5.851 -21.495  0.00  0.00    +0.064 C 
ATOM     17  C   UNL     1      31.973 -13.975 -20.626  0.00  0.00    +0.064 C 
ATOM     18  C   UNL     1      30.538  -7.830 -23.632  0.00  0.00    +0.007 C 
ATOM     19  C   UNL     1      32.777 -14.459 -23.010  0.00  0.00    +0.065 C 
ATOM     20  C   UNL     1      32.756 -14.867 -21.558  0.00  0.00    +0.151 C 
ENDROOT
TORSDOF 0
ENDMDL
