MODEL 1
REMARK VINA RESULT:      -9.5      0.000      0.000
REMARK  Name = 25271557
REMARK  5 active torsions:
REMARK  status: ('A' for Active; 'I' for Inactive)
REMARK    1  A    between atoms: C_6  and  O_13
REMARK    2  A    between atoms: O_13  and  C_14
REMARK    3  A    between atoms: C_14  and  C_15
REMARK    4  A    between atoms: C_15  and  O_16
REMARK    5  A    between atoms: O_16  and  C_17
REMARK                            x       y       z     vdW  Elec       q    Type
REMARK                         _______ _______ _______ _____ _____    ______ ____
ROOT
ATOM      1  N   UNL     1      39.145 -24.462 -14.865  0.00  0.00    -0.230 NA
ATOM      2  N   UNL     1      36.820 -24.860 -15.302  0.00  0.00    -0.230 NA
ATOM      3  N   UNL     1      38.250 -26.679 -14.669  0.00  0.00    -0.247 NA
ATOM      4  N   UNL     1      40.519 -26.259 -14.248  0.00  0.00    -0.282 N 
ATOM      5  N   UNL     1      35.974 -27.037 -15.102  0.00  0.00    -0.282 N 
ATOM      6  C   UNL     1      37.905 -24.075 -15.205  0.00  0.00    +0.332 C 
ATOM      7  C   UNL     1      39.243 -25.777 -14.612  0.00  0.00    +0.220 C 
ATOM      8  C   UNL     1      37.068 -26.149 -15.021  0.00  0.00    +0.220 C 
ATOM      9  H   UNL     1      41.282 -25.640 -14.192  0.00  0.00    +0.156 HD
ATOM     10  H   UNL     1      40.646 -27.215 -14.051  0.00  0.00    +0.156 HD
ATOM     11  H   UNL     1      35.084 -26.700 -15.356  0.00  0.00    +0.156 HD
ATOM     12  H   UNL     1      36.101 -27.994 -14.905  0.00  0.00    +0.156 HD
ENDROOT
BRANCH   6  13
ATOM     13  O   UNL     1      37.729 -22.744 -15.478  0.00  0.00    -0.395 OA
BRANCH  13  14
ATOM     14  C   UNL     1      36.492 -22.371 -16.071  0.00  0.00    +0.270 C 
BRANCH  14  15
ATOM     15  C   UNL     1      36.744 -21.907 -17.493  0.00  0.00    +0.254 C 
BRANCH  15  16
ATOM     16  O   UNL     1      35.736 -22.449 -18.345  0.00  0.00    -0.471 OA
BRANCH  16  17
ATOM     17  C   UNL     1      35.134 -21.593 -19.215  0.00  0.00    +0.139 C 
ATOM     18  C   UNL     1      33.742 -21.537 -19.290  0.00  0.00    +0.037 C 
ATOM     19  C   UNL     1      35.910 -20.771 -20.033  0.00  0.00    +0.037 C 
ATOM     20  C   UNL     1      33.127 -20.660 -20.183  0.00  0.00    +0.003 C 
ATOM     21  C   UNL     1      35.294 -19.894 -20.926  0.00  0.00    +0.003 C 
ATOM     22  C   UNL     1      33.902 -19.838 -21.000  0.00  0.00    +0.000 C 
ENDBRANCH  16  17
ENDBRANCH  15  16
ENDBRANCH  14  15
ENDBRANCH  13  14
ENDBRANCH   6  13
TORSDOF 5
ENDMDL
MODEL 2
REMARK VINA RESULT:      -9.5      0.092      2.224
REMARK  Name = 25271557
REMARK  5 active torsions:
REMARK  status: ('A' for Active; 'I' for Inactive)
REMARK    1  A    between atoms: C_6  and  O_13
REMARK    2  A    between atoms: O_13  and  C_14
REMARK    3  A    between atoms: C_14  and  C_15
REMARK    4  A    between atoms: C_15  and  O_16
REMARK    5  A    between atoms: O_16  and  C_17
REMARK                            x       y       z     vdW  Elec       q    Type
REMARK                         _______ _______ _______ _____ _____    ______ ____
ROOT
ATOM      1  N   UNL     1      36.916 -24.871 -15.338  0.00  0.00    -0.230 NA
ATOM      2  N   UNL     1      39.233 -24.495 -14.845  0.00  0.00    -0.230 NA
ATOM      3  N   UNL     1      38.288 -26.683 -14.570  0.00  0.00    -0.247 NA
ATOM      4  N   UNL     1      36.019 -27.019 -15.059  0.00  0.00    -0.282 N 
ATOM      5  N   UNL     1      40.550 -26.285 -14.098  0.00  0.00    -0.282 N 
ATOM      6  C   UNL     1      38.012 -24.102 -15.242  0.00  0.00    +0.332 C 
ATOM      7  C   UNL     1      37.128 -26.149 -14.985  0.00  0.00    +0.220 C 
ATOM      8  C   UNL     1      39.296 -25.797 -14.525  0.00  0.00    +0.220 C 
ATOM      9  H   UNL     1      35.145 -26.679 -15.356  0.00  0.00    +0.156 HD
ATOM     10  H   UNL     1      36.120 -27.967 -14.812  0.00  0.00    +0.156 HD
ATOM     11  H   UNL     1      41.323 -25.677 -14.046  0.00  0.00    +0.156 HD
ATOM     12  H   UNL     1      40.651 -27.233 -13.851  0.00  0.00    +0.156 HD
ENDROOT
BRANCH   6  13
ATOM     13  O   UNL     1      37.871 -22.784 -15.586  0.00  0.00    -0.395 OA
BRANCH  13  14
ATOM     14  C   UNL     1      36.597 -22.382 -16.075  0.00  0.00    +0.270 C 
BRANCH  14  15
ATOM     15  C   UNL     1      36.750 -21.870 -17.495  0.00  0.00    +0.254 C 
BRANCH  15  16
ATOM     16  O   UNL     1      35.697 -22.400 -18.297  0.00  0.00    -0.471 OA
BRANCH  16  17
ATOM     17  C   UNL     1      35.115 -21.556 -19.191  0.00  0.00    +0.139 C 
ATOM     18  C   UNL     1      35.907 -20.730 -19.990  0.00  0.00    +0.037 C 
ATOM     19  C   UNL     1      33.725 -21.516 -19.309  0.00  0.00    +0.037 C 
ATOM     20  C   UNL     1      35.309 -19.864 -20.905  0.00  0.00    +0.003 C 
ATOM     21  C   UNL     1      33.128 -20.650 -20.226  0.00  0.00    +0.003 C 
ATOM     22  C   UNL     1      33.920 -19.825 -21.025  0.00  0.00    +0.000 C 
ENDBRANCH  16  17
ENDBRANCH  15  16
ENDBRANCH  14  15
ENDBRANCH  13  14
ENDBRANCH   6  13
TORSDOF 5
ENDMDL
MODEL 3
REMARK VINA RESULT:      -9.2      5.382      7.024
REMARK  Name = 25271557
REMARK  5 active torsions:
REMARK  status: ('A' for Active; 'I' for Inactive)
REMARK    1  A    between atoms: C_6  and  O_13
REMARK    2  A    between atoms: O_13  and  C_14
REMARK    3  A    between atoms: C_14  and  C_15
REMARK    4  A    between atoms: C_15  and  O_16
REMARK    5  A    between atoms: O_16  and  C_17
REMARK                            x       y       z     vdW  Elec       q    Type
REMARK                         _______ _______ _______ _____ _____    ______ ____
ROOT
ATOM      1  N   UNL     1      29.101 -22.264 -16.868  0.00  0.00    -0.230 NA
ATOM      2  N   UNL     1      30.310 -24.029 -15.783  0.00  0.00    -0.230 NA
ATOM      3  N   UNL     1      27.943 -23.816 -15.453  0.00  0.00    -0.247 NA
ATOM      4  N   UNL     1      26.788 -22.080 -16.527  0.00  0.00    -0.282 N 
ATOM      5  N   UNL     1      29.151 -25.532 -14.405  0.00  0.00    -0.282 N 
ATOM      6  C   UNL     1      30.217 -22.951 -16.578  0.00  0.00    +0.332 C 
ATOM      7  C   UNL     1      28.003 -22.753 -16.270  0.00  0.00    +0.220 C 
ATOM      8  C   UNL     1      29.134 -24.404 -15.255  0.00  0.00    +0.220 C 
ATOM      9  H   UNL     1      26.776 -21.294 -17.119  0.00  0.00    +0.156 HD
ATOM     10  H   UNL     1      25.953 -22.398 -16.114  0.00  0.00    +0.156 HD
ATOM     11  H   UNL     1      29.998 -26.000 -14.227  0.00  0.00    +0.156 HD
ATOM     12  H   UNL     1      28.316 -25.849 -13.992  0.00  0.00    +0.156 HD
ENDROOT
BRANCH   6  13
ATOM     13  O   UNL     1      31.379 -22.509 -17.154  0.00  0.00    -0.395 OA
BRANCH  13  14
ATOM     14  C   UNL     1      32.567 -23.219 -16.825  0.00  0.00    +0.270 C 
BRANCH  14  15
ATOM     15  C   UNL     1      33.536 -23.128 -17.989  0.00  0.00    +0.254 C 
BRANCH  15  16
ATOM     16  O   UNL     1      32.929 -22.384 -19.044  0.00  0.00    -0.471 OA
BRANCH  16  17
ATOM     17  C   UNL     1      33.697 -21.446 -19.662  0.00  0.00    +0.139 C 
ATOM     18  C   UNL     1      33.094 -20.390 -20.346  0.00  0.00    +0.037 C 
ATOM     19  C   UNL     1      35.088 -21.540 -19.611  0.00  0.00    +0.037 C 
ATOM     20  C   UNL     1      33.882 -19.430 -20.980  0.00  0.00    +0.003 C 
ATOM     21  C   UNL     1      35.875 -20.579 -20.245  0.00  0.00    +0.003 C 
ATOM     22  C   UNL     1      35.272 -19.523 -20.929  0.00  0.00    +0.000 C 
ENDBRANCH  16  17
ENDBRANCH  15  16
ENDBRANCH  14  15
ENDBRANCH  13  14
ENDBRANCH   6  13
TORSDOF 5
ENDMDL
MODEL 4
REMARK VINA RESULT:      -9.2      5.388      6.933
REMARK  Name = 25271557
REMARK  5 active torsions:
REMARK  status: ('A' for Active; 'I' for Inactive)
REMARK    1  A    between atoms: C_6  and  O_13
REMARK    2  A    between atoms: O_13  and  C_14
REMARK    3  A    between atoms: C_14  and  C_15
REMARK    4  A    between atoms: C_15  and  O_16
REMARK    5  A    between atoms: O_16  and  C_17
REMARK                            x       y       z     vdW  Elec       q    Type
REMARK                         _______ _______ _______ _____ _____    ______ ____
ROOT
ATOM      1  N   UNL     1      30.341 -24.031 -15.731  0.00  0.00    -0.230 NA
ATOM      2  N   UNL     1      29.107 -22.280 -16.810  0.00  0.00    -0.230 NA
ATOM      3  N   UNL     1      27.977 -23.834 -15.373  0.00  0.00    -0.247 NA
ATOM      4  N   UNL     1      29.211 -25.536 -14.332  0.00  0.00    -0.282 N 
ATOM      5  N   UNL     1      26.797 -22.112 -16.441  0.00  0.00    -0.282 N 
ATOM      6  C   UNL     1      30.231 -22.959 -16.531  0.00  0.00    +0.332 C 
ATOM      7  C   UNL     1      29.175 -24.413 -15.187  0.00  0.00    +0.220 C 
ATOM      8  C   UNL     1      28.020 -22.774 -16.196  0.00  0.00    +0.220 C 
ATOM      9  H   UNL     1      30.063 -25.998 -14.162  0.00  0.00    +0.156 HD
ATOM     10  H   UNL     1      28.383 -25.857 -13.907  0.00  0.00    +0.156 HD
ATOM     11  H   UNL     1      26.772 -21.329 -17.037  0.00  0.00    +0.156 HD
ATOM     12  H   UNL     1      25.970 -22.434 -16.015  0.00  0.00    +0.156 HD
ENDROOT
BRANCH   6  13
ATOM     13  O   UNL     1      31.383 -22.512 -17.123  0.00  0.00    -0.395 OA
BRANCH  13  14
ATOM     14  C   UNL     1      32.540 -23.324 -16.968  0.00  0.00    +0.270 C 
BRANCH  14  15
ATOM     15  C   UNL     1      33.572 -22.919 -18.003  0.00  0.00    +0.254 C 
BRANCH  15  16
ATOM     16  O   UNL     1      32.920 -22.223 -19.064  0.00  0.00    -0.471 OA
BRANCH  16  17
ATOM     17  C   UNL     1      33.644 -21.279 -19.723  0.00  0.00    +0.139 C 
ATOM     18  C   UNL     1      35.039 -21.331 -19.706  0.00  0.00    +0.037 C 
ATOM     19  C   UNL     1      32.993 -20.257 -20.414  0.00  0.00    +0.037 C 
ATOM     20  C   UNL     1      35.781 -20.362 -20.381  0.00  0.00    +0.003 C 
ATOM     21  C   UNL     1      33.736 -19.288 -21.089  0.00  0.00    +0.003 C 
ATOM     22  C   UNL     1      35.130 -19.341 -21.073  0.00  0.00    +0.000 C 
ENDBRANCH  16  17
ENDBRANCH  15  16
ENDBRANCH  14  15
ENDBRANCH  13  14
ENDBRANCH   6  13
TORSDOF 5
ENDMDL
MODEL 5
REMARK VINA RESULT:      -8.9      1.353      2.381
REMARK  Name = 25271557
REMARK  5 active torsions:
REMARK  status: ('A' for Active; 'I' for Inactive)
REMARK    1  A    between atoms: C_6  and  O_13
REMARK    2  A    between atoms: O_13  and  C_14
REMARK    3  A    between atoms: C_14  and  C_15
REMARK    4  A    between atoms: C_15  and  O_16
REMARK    5  A    between atoms: O_16  and  C_17
REMARK                            x       y       z     vdW  Elec       q    Type
REMARK                         _______ _______ _______ _____ _____    ______ ____
ROOT
ATOM      1  N   UNL     1      36.775 -24.676 -15.461  0.00  0.00    -0.230 NA
ATOM      2  N   UNL     1      37.776 -23.339 -13.739  0.00  0.00    -0.230 NA
ATOM      3  N   UNL     1      37.081 -25.585 -13.262  0.00  0.00    -0.247 NA
ATOM      4  N   UNL     1      36.105 -26.867 -14.966  0.00  0.00    -0.282 N 
ATOM      5  N   UNL     1      38.063 -24.255 -11.599  0.00  0.00    -0.282 N 
ATOM      6  C   UNL     1      37.332 -23.549 -14.988  0.00  0.00    +0.332 C 
ATOM      7  C   UNL     1      36.682 -25.651 -14.543  0.00  0.00    +0.220 C 
ATOM      8  C   UNL     1      37.618 -24.400 -12.931  0.00  0.00    +0.220 C 
ATOM      9  H   UNL     1      35.795 -26.968 -15.895  0.00  0.00    +0.156 HD
ATOM     10  H   UNL     1      36.013 -27.615 -14.333  0.00  0.00    +0.156 HD
ATOM     11  H   UNL     1      38.465 -23.406 -11.304  0.00  0.00    +0.156 HD
ATOM     12  H   UNL     1      37.971 -25.003 -10.966  0.00  0.00    +0.156 HD
ENDROOT
BRANCH   6  13
ATOM     13  O   UNL     1      37.460 -22.509 -15.870  0.00  0.00    -0.395 OA
BRANCH  13  14
ATOM     14  C   UNL     1      36.280 -22.092 -16.545  0.00  0.00    +0.270 C 
BRANCH  14  15
ATOM     15  C   UNL     1      36.600 -21.868 -18.011  0.00  0.00    +0.254 C 
BRANCH  15  16
ATOM     16  O   UNL     1      35.485 -22.279 -18.800  0.00  0.00    -0.471 OA
BRANCH  16  17
ATOM     17  C   UNL     1      34.905 -21.336 -19.591  0.00  0.00    +0.139 C 
ATOM     18  C   UNL     1      35.699 -20.486 -20.361  0.00  0.00    +0.037 C 
ATOM     19  C   UNL     1      33.515 -21.218 -19.630  0.00  0.00    +0.037 C 
ATOM     20  C   UNL     1      35.103 -19.519 -21.171  0.00  0.00    +0.003 C 
ATOM     21  C   UNL     1      32.920 -20.251 -20.440  0.00  0.00    +0.003 C 
ATOM     22  C   UNL     1      33.714 -19.402 -21.212  0.00  0.00    +0.000 C 
ENDBRANCH  16  17
ENDBRANCH  15  16
ENDBRANCH  14  15
ENDBRANCH  13  14
ENDBRANCH   6  13
TORSDOF 5
ENDMDL
MODEL 6
REMARK VINA RESULT:      -8.6      1.710      2.572
REMARK  Name = 25271557
REMARK  5 active torsions:
REMARK  status: ('A' for Active; 'I' for Inactive)
REMARK    1  A    between atoms: C_6  and  O_13
REMARK    2  A    between atoms: O_13  and  C_14
REMARK    3  A    between atoms: C_14  and  C_15
REMARK    4  A    between atoms: C_15  and  O_16
REMARK    5  A    between atoms: O_16  and  C_17
REMARK                            x       y       z     vdW  Elec       q    Type
REMARK                         _______ _______ _______ _____ _____    ______ ____
ROOT
ATOM      1  N   UNL     1      36.659 -25.153 -15.297  0.00  0.00    -0.230 NA
ATOM      2  N   UNL     1      36.506 -23.058 -14.138  0.00  0.00    -0.230 NA
ATOM      3  N   UNL     1      37.601 -24.925 -13.103  0.00  0.00    -0.247 NA
ATOM      4  N   UNL     1      37.735 -26.960 -14.261  0.00  0.00    -0.282 N 
ATOM      5  N   UNL     1      37.436 -22.865 -11.995  0.00  0.00    -0.282 N 
ATOM      6  C   UNL     1      36.286 -23.868 -15.186  0.00  0.00    +0.332 C 
ATOM      7  C   UNL     1      37.311 -25.615 -14.218  0.00  0.00    +0.220 C 
ATOM      8  C   UNL     1      37.168 -23.654 -13.134  0.00  0.00    +0.220 C 
ATOM      9  H   UNL     1      37.547 -27.511 -15.055  0.00  0.00    +0.156 HD
ATOM     10  H   UNL     1      38.218 -27.349 -13.496  0.00  0.00    +0.156 HD
ATOM     11  H   UNL     1      37.141 -21.926 -11.966  0.00  0.00    +0.156 HD
ATOM     12  H   UNL     1      37.919 -23.253 -11.230  0.00  0.00    +0.156 HD
ENDROOT
BRANCH   6  13
ATOM     13  O   UNL     1      35.615 -23.328 -16.251  0.00  0.00    -0.395 OA
BRANCH  13  14
ATOM     14  C   UNL     1      34.203 -23.497 -16.271  0.00  0.00    +0.270 C 
BRANCH  14  15
ATOM     15  C   UNL     1      33.683 -23.168 -17.657  0.00  0.00    +0.254 C 
BRANCH  15  16
ATOM     16  O   UNL     1      34.771 -22.736 -18.472  0.00  0.00    -0.471 OA
BRANCH  16  17
ATOM     17  C   UNL     1      34.534 -21.702 -19.325  0.00  0.00    +0.139 C 
ATOM     18  C   UNL     1      35.594 -21.104 -20.008  0.00  0.00    +0.037 C 
ATOM     19  C   UNL     1      33.232 -21.240 -19.515  0.00  0.00    +0.037 C 
ATOM     20  C   UNL     1      35.350 -20.044 -20.881  0.00  0.00    +0.003 C 
ATOM     21  C   UNL     1      32.989 -20.180 -20.389  0.00  0.00    +0.003 C 
ATOM     22  C   UNL     1      34.048 -19.582 -21.073  0.00  0.00    +0.000 C 
ENDBRANCH  16  17
ENDBRANCH  15  16
ENDBRANCH  14  15
ENDBRANCH  13  14
ENDBRANCH   6  13
TORSDOF 5
ENDMDL
MODEL 7
REMARK VINA RESULT:      -8.6      1.833      2.458
REMARK  Name = 25271557
REMARK  5 active torsions:
REMARK  status: ('A' for Active; 'I' for Inactive)
REMARK    1  A    between atoms: C_6  and  O_13
REMARK    2  A    between atoms: O_13  and  C_14
REMARK    3  A    between atoms: C_14  and  C_15
REMARK    4  A    between atoms: C_15  and  O_16
REMARK    5  A    between atoms: O_16  and  C_17
REMARK                            x       y       z     vdW  Elec       q    Type
REMARK                         _______ _______ _______ _____ _____    ______ ____
ROOT
ATOM      1  N   UNL     1      36.428 -23.516 -13.796  0.00  0.00    -0.230 NA
ATOM      2  N   UNL     1      37.681 -25.194 -14.966  0.00  0.00    -0.230 NA
ATOM      3  N   UNL     1      38.437 -24.403 -12.831  0.00  0.00    -0.247 NA
ATOM      4  N   UNL     1      37.191 -22.761 -11.711  0.00  0.00    -0.282 N 
ATOM      5  N   UNL     1      39.641 -26.042 -13.998  0.00  0.00    -0.282 N 
ATOM      6  C   UNL     1      36.653 -24.341 -14.831  0.00  0.00    +0.332 C 
ATOM      7  C   UNL     1      37.360 -23.601 -12.834  0.00  0.00    +0.220 C 
ATOM      8  C   UNL     1      38.533 -25.171 -13.929  0.00  0.00    +0.220 C 
ATOM      9  H   UNL     1      36.419 -22.154 -11.663  0.00  0.00    +0.156 HD
ATOM     10  H   UNL     1      37.846 -22.784 -10.977  0.00  0.00    +0.156 HD
ATOM     11  H   UNL     1      39.758 -26.627 -14.781  0.00  0.00    +0.156 HD
ATOM     12  H   UNL     1      40.296 -26.065 -13.263  0.00  0.00    +0.156 HD
ENDROOT
BRANCH   6  13
ATOM     13  O   UNL     1      35.741 -24.309 -15.853  0.00  0.00    -0.395 OA
BRANCH  13  14
ATOM     14  C   UNL     1      34.494 -23.683 -15.579  0.00  0.00    +0.270 C 
BRANCH  14  15
ATOM     15  C   UNL     1      33.876 -23.218 -16.884  0.00  0.00    +0.254 C 
BRANCH  15  16
ATOM     16  O   UNL     1      34.908 -23.046 -17.853  0.00  0.00    -0.471 OA
BRANCH  16  17
ATOM     17  C   UNL     1      34.722 -22.076 -18.790  0.00  0.00    +0.139 C 
ATOM     18  C   UNL     1      33.430 -21.699 -19.157  0.00  0.00    +0.037 C 
ATOM     19  C   UNL     1      35.824 -21.461 -19.384  0.00  0.00    +0.037 C 
ATOM     20  C   UNL     1      33.241 -20.706 -20.118  0.00  0.00    +0.003 C 
ATOM     21  C   UNL     1      35.634 -20.468 -20.345  0.00  0.00    +0.003 C 
ATOM     22  C   UNL     1      34.342 -20.089 -20.712  0.00  0.00    +0.000 C 
ENDBRANCH  16  17
ENDBRANCH  15  16
ENDBRANCH  14  15
ENDBRANCH  13  14
ENDBRANCH   6  13
TORSDOF 5
ENDMDL
MODEL 8
REMARK VINA RESULT:      -8.5      8.769     11.609
REMARK  Name = 25271557
REMARK  5 active torsions:
REMARK  status: ('A' for Active; 'I' for Inactive)
REMARK    1  A    between atoms: C_6  and  O_13
REMARK    2  A    between atoms: O_13  and  C_14
REMARK    3  A    between atoms: C_14  and  C_15
REMARK    4  A    between atoms: C_15  and  O_16
REMARK    5  A    between atoms: O_16  and  C_17
REMARK                            x       y       z     vdW  Elec       q    Type
REMARK                         _______ _______ _______ _____ _____    ______ ____
ROOT
ATOM      1  N   UNL     1      33.819 -15.554 -24.015  0.00  0.00    -0.230 NA
ATOM      2  N   UNL     1      33.587 -15.447 -26.400  0.00  0.00    -0.230 NA
ATOM      3  N   UNL     1      33.182 -13.494 -25.067  0.00  0.00    -0.247 NA
ATOM      4  N   UNL     1      33.416 -13.629 -22.737  0.00  0.00    -0.282 N 
ATOM      5  N   UNL     1      32.964 -13.421 -27.401  0.00  0.00    -0.282 N 
ATOM      6  C   UNL     1      33.853 -16.083 -25.248  0.00  0.00    +0.332 C 
ATOM      7  C   UNL     1      33.475 -14.256 -24.001  0.00  0.00    +0.220 C 
ATOM      8  C   UNL     1      33.258 -14.157 -26.233  0.00  0.00    +0.220 C 
ATOM      9  H   UNL     1      33.622 -14.142 -21.923  0.00  0.00    +0.156 HD
ATOM     10  H   UNL     1      33.170 -12.678 -22.671  0.00  0.00    +0.156 HD
ATOM     11  H   UNL     1      33.005 -13.858 -28.282  0.00  0.00    +0.156 HD
ATOM     12  H   UNL     1      32.718 -12.470 -27.334  0.00  0.00    +0.156 HD
ENDROOT
BRANCH   6  13
ATOM     13  O   UNL     1      34.197 -17.406 -25.340  0.00  0.00    -0.395 OA
BRANCH  13  14
ATOM     14  C   UNL     1      35.122 -17.896 -24.378  0.00  0.00    +0.270 C 
BRANCH  14  15
ATOM     15  C   UNL     1      34.487 -19.049 -23.622  0.00  0.00    +0.254 C 
BRANCH  15  16
ATOM     16  O   UNL     1      34.214 -18.635 -22.285  0.00  0.00    -0.471 OA
BRANCH  16  17
ATOM     17  C   UNL     1      34.274 -19.589 -21.317  0.00  0.00    +0.139 C 
ATOM     18  C   UNL     1      35.508 -20.097 -20.912  0.00  0.00    +0.037 C 
ATOM     19  C   UNL     1      33.099 -20.060 -20.729  0.00  0.00    +0.037 C 
ATOM     20  C   UNL     1      35.568 -21.077 -19.920  0.00  0.00    +0.003 C 
ATOM     21  C   UNL     1      33.160 -21.040 -19.738  0.00  0.00    +0.003 C 
ATOM     22  C   UNL     1      34.394 -21.547 -19.332  0.00  0.00    +0.000 C 
ENDBRANCH  16  17
ENDBRANCH  15  16
ENDBRANCH  14  15
ENDBRANCH  13  14
ENDBRANCH   6  13
TORSDOF 5
ENDMDL
MODEL 9
REMARK VINA RESULT:      -8.5      8.600     11.439
REMARK  Name = 25271557
REMARK  5 active torsions:
REMARK  status: ('A' for Active; 'I' for Inactive)
REMARK    1  A    between atoms: C_6  and  O_13
REMARK    2  A    between atoms: O_13  and  C_14
REMARK    3  A    between atoms: C_14  and  C_15
REMARK    4  A    between atoms: C_15  and  O_16
REMARK    5  A    between atoms: O_16  and  C_17
REMARK                            x       y       z     vdW  Elec       q    Type
REMARK                         _______ _______ _______ _____ _____    ______ ____
ROOT
ATOM      1  N   UNL     1      33.386 -15.799 -26.224  0.00  0.00    -0.230 NA
ATOM      2  N   UNL     1      34.390 -15.628 -24.052  0.00  0.00    -0.230 NA
ATOM      3  N   UNL     1      33.228 -13.749 -24.988  0.00  0.00    -0.247 NA
ATOM      4  N   UNL     1      32.257 -13.947 -27.114  0.00  0.00    -0.282 N 
ATOM      5  N   UNL     1      34.219 -13.611 -22.867  0.00  0.00    -0.282 N 
ATOM      6  C   UNL     1      34.080 -16.284 -25.182  0.00  0.00    +0.332 C 
ATOM      7  C   UNL     1      32.993 -14.526 -26.058  0.00  0.00    +0.220 C 
ATOM      8  C   UNL     1      33.932 -14.366 -24.025  0.00  0.00    +0.220 C 
ATOM      9  H   UNL     1      32.057 -14.473 -27.921  0.00  0.00    +0.156 HD
ATOM     10  H   UNL     1      31.944 -13.016 -27.043  0.00  0.00    +0.156 HD
ATOM     11  H   UNL     1      34.732 -14.016 -22.131  0.00  0.00    +0.156 HD
ATOM     12  H   UNL     1      33.906 -12.681 -22.796  0.00  0.00    +0.156 HD
ENDROOT
BRANCH   6  13
ATOM     13  O   UNL     1      34.515 -17.579 -25.281  0.00  0.00    -0.395 OA
BRANCH  13  14
ATOM     14  C   UNL     1      35.301 -18.075 -24.204  0.00  0.00    +0.270 C 
BRANCH  14  15
ATOM     15  C   UNL     1      34.534 -19.176 -23.497  0.00  0.00    +0.254 C 
BRANCH  15  16
ATOM     16  O   UNL     1      34.264 -18.769 -22.157  0.00  0.00    -0.471 OA
BRANCH  16  17
ATOM     17  C   UNL     1      34.347 -19.724 -21.191  0.00  0.00    +0.139 C 
ATOM     18  C   UNL     1      33.183 -20.266 -20.643  0.00  0.00    +0.037 C 
ATOM     19  C   UNL     1      35.595 -20.160 -20.747  0.00  0.00    +0.037 C 
ATOM     20  C   UNL     1      33.269 -21.244 -19.652  0.00  0.00    +0.003 C 
ATOM     21  C   UNL     1      35.680 -21.139 -19.756  0.00  0.00    +0.003 C 
ATOM     22  C   UNL     1      34.517 -21.681 -19.209  0.00  0.00    +0.000 C 
ENDBRANCH  16  17
ENDBRANCH  15  16
ENDBRANCH  14  15
ENDBRANCH  13  14
ENDBRANCH   6  13
TORSDOF 5
ENDMDL
