MODEL 1
REMARK VINA RESULT:      -8.6      0.000      0.000
REMARK  Name = 5351387
REMARK  10 active torsions:
REMARK  status: ('A' for Active; 'I' for Inactive)
REMARK    1  A    between atoms: C_1  and  C_10
REMARK    2  A    between atoms: C_3  and  O_23
REMARK    3  A    between atoms: C_5  and  O_7
REMARK    4  A    between atoms: C_9  and  C_11
REMARK    5  A    between atoms: C_14  and  O_17
REMARK    6  A    between atoms: C_15  and  O_19
REMARK    7  A    between atoms: C_16  and  O_21
REMARK    8  A    between atoms: O_23  and  P_24
REMARK    9  A    between atoms: P_24  and  O_26
REMARK   10  A    between atoms: P_24  and  O_28
REMARK                            x       y       z     vdW  Elec       q    Type
REMARK                         _______ _______ _______ _____ _____    ______ ____
ROOT
ATOM      1  C   UNL     1      33.685 -12.116 -26.029  0.00  0.00    +0.003 C 
ATOM      2  C   UNL     1      33.123 -11.827 -24.786  0.00  0.00    +0.041 C 
ATOM      3  C   UNL     1      33.660 -10.810 -23.995  0.00  0.00    +0.183 C 
ATOM      4  C   UNL     1      34.785 -11.387 -26.482  0.00  0.00    +0.003 C 
ATOM      5  C   UNL     1      34.759 -10.083 -24.449  0.00  0.00    +0.173 C 
ATOM      6  C   UNL     1      35.322 -10.371 -25.693  0.00  0.00    +0.040 C 
ENDROOT
BRANCH   5   7
ATOM      7  O   UNL     1      35.294  -9.088 -23.687  0.00  0.00    -0.468 OA
ATOM      8  C   UNL     1      34.754  -7.779 -23.860  0.00  0.00    +0.253 C 
ENDBRANCH   5   7
BRANCH   1  10
ATOM      9  C   UNL     1      33.100 -14.488 -26.526  0.00  0.00    +0.000 C 
ATOM     10  C   UNL     1      33.124 -13.174 -26.853  0.00  0.00    +0.000 C 
BRANCH   9  11
ATOM     11  C   UNL     1      33.638 -15.064 -25.281  0.00  0.00    +0.006 C 
ATOM     12  C   UNL     1      34.294 -16.284 -25.325  0.00  0.00    +0.040 C 
ATOM     13  C   UNL     1      33.480 -14.373 -24.090  0.00  0.00    +0.040 C 
ATOM     14  C   UNL     1      33.990 -14.918 -22.911  0.00  0.00    +0.175 C 
ATOM     15  C   UNL     1      34.803 -16.829 -24.146  0.00  0.00    +0.175 C 
ATOM     16  C   UNL     1      34.652 -16.145 -22.940  0.00  0.00    +0.206 C 
BRANCH  14  17
ATOM     17  O   UNL     1      33.835 -14.241 -21.740  0.00  0.00    -0.468 OA
ATOM     18  C   UNL     1      32.516 -13.806 -21.412  0.00  0.00    +0.253 C 
ENDBRANCH  14  17
BRANCH  15  19
ATOM     19  O   UNL     1      35.448 -18.027 -24.188  0.00  0.00    -0.468 OA
ATOM     20  C   UNL     1      34.658 -19.179 -24.478  0.00  0.00    +0.253 C 
ENDBRANCH  15  19
BRANCH  16  21
ATOM     21  O   UNL     1      35.150 -16.678 -21.788  0.00  0.00    -0.465 OA
ATOM     22  C   UNL     1      34.320 -17.605 -21.093  0.00  0.00    +0.253 C 
ENDBRANCH  16  21
ENDBRANCH   9  11
ENDBRANCH   1  10
BRANCH   3  23
ATOM     23  O   UNL     1      33.102 -10.539 -22.782  0.00  0.00    -0.400 OA
BRANCH  23  24
ATOM     24  P   UNL     1      31.694  -9.776 -22.554  0.00  0.00    +0.528 P 
ATOM     25  O   UNL     1      31.323  -8.781 -23.615  0.00  0.00    -0.216 OA
BRANCH  24  26
ATOM     26  O   UNL     1      31.868  -9.143 -21.075  0.00  0.00    -0.293 OA
ATOM     27  H   UNL     1      32.188  -8.230 -21.148  0.00  0.00    +0.223 HD
ENDBRANCH  24  26
BRANCH  24  28
ATOM     28  O   UNL     1      30.631 -10.972 -22.314  0.00  0.00    -0.293 OA
ATOM     29  H   UNL     1      30.726 -11.311 -21.409  0.00  0.00    +0.223 HD
ENDBRANCH  24  28
ENDBRANCH  23  24
ENDBRANCH   3  23
TORSDOF 10
ENDMDL
MODEL 2
REMARK VINA RESULT:      -8.6      0.035      2.397
REMARK  Name = 5351387
REMARK  10 active torsions:
REMARK  status: ('A' for Active; 'I' for Inactive)
REMARK    1  A    between atoms: C_1  and  C_10
REMARK    2  A    between atoms: C_3  and  O_23
REMARK    3  A    between atoms: C_5  and  O_7
REMARK    4  A    between atoms: C_9  and  C_11
REMARK    5  A    between atoms: C_14  and  O_17
REMARK    6  A    between atoms: C_15  and  O_19
REMARK    7  A    between atoms: C_16  and  O_21
REMARK    8  A    between atoms: O_23  and  P_24
REMARK    9  A    between atoms: P_24  and  O_26
REMARK   10  A    between atoms: P_24  and  O_28
REMARK                            x       y       z     vdW  Elec       q    Type
REMARK                         _______ _______ _______ _____ _____    ______ ____
ROOT
ATOM      1  C   UNL     1      33.661 -12.126 -26.005  0.00  0.00    +0.003 C 
ATOM      2  C   UNL     1      33.096 -11.829 -24.764  0.00  0.00    +0.041 C 
ATOM      3  C   UNL     1      33.635 -10.811 -23.977  0.00  0.00    +0.183 C 
ATOM      4  C   UNL     1      34.765 -11.404 -26.458  0.00  0.00    +0.003 C 
ATOM      5  C   UNL     1      34.738 -10.090 -24.431  0.00  0.00    +0.173 C 
ATOM      6  C   UNL     1      35.304 -10.386 -25.672  0.00  0.00    +0.040 C 
ENDROOT
BRANCH   5   7
ATOM      7  O   UNL     1      35.275  -9.093 -23.673  0.00  0.00    -0.468 OA
ATOM      8  C   UNL     1      34.744  -7.782 -23.857  0.00  0.00    +0.253 C 
ENDBRANCH   5   7
BRANCH   1  10
ATOM      9  C   UNL     1      33.080 -14.500 -26.497  0.00  0.00    +0.000 C 
ATOM     10  C   UNL     1      33.098 -13.187 -26.825  0.00  0.00    +0.000 C 
BRANCH   9  11
ATOM     11  C   UNL     1      33.627 -15.074 -25.255  0.00  0.00    +0.006 C 
ATOM     12  C   UNL     1      33.464 -14.388 -24.062  0.00  0.00    +0.040 C 
ATOM     13  C   UNL     1      34.291 -16.289 -25.303  0.00  0.00    +0.040 C 
ATOM     14  C   UNL     1      34.809 -16.832 -24.127  0.00  0.00    +0.175 C 
ATOM     15  C   UNL     1      33.982 -14.931 -22.886  0.00  0.00    +0.175 C 
ATOM     16  C   UNL     1      34.653 -16.153 -22.918  0.00  0.00    +0.206 C 
BRANCH  14  17
ATOM     17  O   UNL     1      35.463 -18.025 -24.173  0.00  0.00    -0.468 OA
ATOM     18  C   UNL     1      34.680 -19.183 -24.454  0.00  0.00    +0.253 C 
ENDBRANCH  14  17
BRANCH  15  19
ATOM     19  O   UNL     1      33.823 -14.259 -21.712  0.00  0.00    -0.468 OA
ATOM     20  C   UNL     1      32.511 -13.791 -21.405  0.00  0.00    +0.253 C 
ENDBRANCH  15  19
BRANCH  16  21
ATOM     21  O   UNL     1      35.159 -16.684 -21.769  0.00  0.00    -0.465 OA
ATOM     22  C   UNL     1      34.331 -17.607 -21.065  0.00  0.00    +0.253 C 
ENDBRANCH  16  21
ENDBRANCH   9  11
ENDBRANCH   1  10
BRANCH   3  23
ATOM     23  O   UNL     1      33.074 -10.531 -22.767  0.00  0.00    -0.400 OA
BRANCH  23  24
ATOM     24  P   UNL     1      31.673  -9.753 -22.547  0.00  0.00    +0.528 P 
ATOM     25  O   UNL     1      31.294  -8.792 -23.635  0.00  0.00    -0.216 OA
BRANCH  24  26
ATOM     26  O   UNL     1      31.868  -9.074 -21.091  0.00  0.00    -0.293 OA
ATOM     27  H   UNL     1      31.139  -8.457 -20.921  0.00  0.00    +0.223 HD
ENDBRANCH  24  26
BRANCH  24  28
ATOM     28  O   UNL     1      30.607 -10.935 -22.255  0.00  0.00    -0.293 OA
ATOM     29  H   UNL     1      30.241 -11.255 -23.095  0.00  0.00    +0.223 HD
ENDBRANCH  24  28
ENDBRANCH  23  24
ENDBRANCH   3  23
TORSDOF 10
ENDMDL
MODEL 3
REMARK VINA RESULT:      -8.1      9.462     14.348
REMARK  Name = 5351387
REMARK  10 active torsions:
REMARK  status: ('A' for Active; 'I' for Inactive)
REMARK    1  A    between atoms: C_1  and  C_10
REMARK    2  A    between atoms: C_3  and  O_23
REMARK    3  A    between atoms: C_5  and  O_7
REMARK    4  A    between atoms: C_9  and  C_11
REMARK    5  A    between atoms: C_14  and  O_17
REMARK    6  A    between atoms: C_15  and  O_19
REMARK    7  A    between atoms: C_16  and  O_21
REMARK    8  A    between atoms: O_23  and  P_24
REMARK    9  A    between atoms: P_24  and  O_26
REMARK   10  A    between atoms: P_24  and  O_28
REMARK                            x       y       z     vdW  Elec       q    Type
REMARK                         _______ _______ _______ _____ _____    ______ ____
ROOT
ATOM      1  C   UNL     1      34.555 -24.444 -14.818  0.00  0.00    +0.003 C 
ATOM      2  C   UNL     1      35.444 -23.643 -14.101  0.00  0.00    +0.041 C 
ATOM      3  C   UNL     1      36.770 -24.044 -13.937  0.00  0.00    +0.183 C 
ATOM      4  C   UNL     1      34.993 -25.647 -15.372  0.00  0.00    +0.003 C 
ATOM      5  C   UNL     1      37.207 -25.246 -14.491  0.00  0.00    +0.173 C 
ATOM      6  C   UNL     1      36.319 -26.048 -15.209  0.00  0.00    +0.040 C 
ENDROOT
BRANCH   5   7
ATOM      7  O   UNL     1      38.499 -25.650 -14.339  0.00  0.00    -0.468 OA
ATOM      8  C   UNL     1      39.469 -25.053 -15.198  0.00  0.00    +0.253 C 
ENDBRANCH   5   7
BRANCH   1  10
ATOM      9  C   UNL     1      32.706 -23.278 -16.017  0.00  0.00    +0.000 C 
ATOM     10  C   UNL     1      33.173 -24.025 -14.989  0.00  0.00    +0.000 C 
BRANCH   9  11
ATOM     11  C   UNL     1      33.520 -22.766 -17.134  0.00  0.00    +0.006 C 
ATOM     12  C   UNL     1      32.890 -22.339 -18.293  0.00  0.00    +0.040 C 
ATOM     13  C   UNL     1      34.899 -22.720 -17.004  0.00  0.00    +0.040 C 
ATOM     14  C   UNL     1      35.669 -22.235 -18.061  0.00  0.00    +0.175 C 
ATOM     15  C   UNL     1      33.660 -21.854 -19.350  0.00  0.00    +0.175 C 
ATOM     16  C   UNL     1      35.049 -21.802 -19.233  0.00  0.00    +0.206 C 
BRANCH  14  17
ATOM     17  O   UNL     1      37.024 -22.190 -17.936  0.00  0.00    -0.468 OA
ATOM     18  C   UNL     1      37.544 -21.818 -16.660  0.00  0.00    +0.253 C 
ENDBRANCH  14  17
BRANCH  15  19
ATOM     19  O   UNL     1      33.043 -21.434 -20.488  0.00  0.00    -0.468 OA
ATOM     20  C   UNL     1      32.656 -20.062 -20.549  0.00  0.00    +0.253 C 
ENDBRANCH  15  19
BRANCH  16  21
ATOM     21  O   UNL     1      35.802 -21.327 -20.267  0.00  0.00    -0.465 OA
ATOM     22  C   UNL     1      36.205 -19.962 -20.198  0.00  0.00    +0.253 C 
ENDBRANCH  16  21
ENDBRANCH   9  11
ENDBRANCH   1  10
BRANCH   3  23
ATOM     23  O   UNL     1      37.627 -23.253 -13.234  0.00  0.00    -0.400 OA
BRANCH  23  24
ATOM     24  P   UNL     1      37.870 -23.331 -11.636  0.00  0.00    +0.528 P 
ATOM     25  O   UNL     1      36.989 -22.442 -10.809  0.00  0.00    -0.216 OA
BRANCH  24  26
ATOM     26  O   UNL     1      39.452 -23.018 -11.501  0.00  0.00    -0.293 OA
ATOM     27  H   UNL     1      39.780 -23.364 -10.656  0.00  0.00    +0.223 HD
ENDBRANCH  24  26
BRANCH  24  28
ATOM     28  O   UNL     1      37.784 -24.911 -11.300  0.00  0.00    -0.293 OA
ATOM     29  H   UNL     1      36.943 -25.266 -11.630  0.00  0.00    +0.223 HD
ENDBRANCH  24  28
ENDBRANCH  23  24
ENDBRANCH   3  23
TORSDOF 10
ENDMDL
MODEL 4
REMARK VINA RESULT:      -8.0      9.934     14.701
REMARK  Name = 5351387
REMARK  10 active torsions:
REMARK  status: ('A' for Active; 'I' for Inactive)
REMARK    1  A    between atoms: C_1  and  C_10
REMARK    2  A    between atoms: C_3  and  O_23
REMARK    3  A    between atoms: C_5  and  O_7
REMARK    4  A    between atoms: C_9  and  C_11
REMARK    5  A    between atoms: C_14  and  O_17
REMARK    6  A    between atoms: C_15  and  O_19
REMARK    7  A    between atoms: C_16  and  O_21
REMARK    8  A    between atoms: O_23  and  P_24
REMARK    9  A    between atoms: P_24  and  O_26
REMARK   10  A    between atoms: P_24  and  O_28
REMARK                            x       y       z     vdW  Elec       q    Type
REMARK                         _______ _______ _______ _____ _____    ______ ____
ROOT
ATOM      1  C   UNL     1      34.630 -24.813 -14.418  0.00  0.00    +0.003 C 
ATOM      2  C   UNL     1      35.453 -24.491 -13.338  0.00  0.00    +0.041 C 
ATOM      3  C   UNL     1      36.735 -25.036 -13.250  0.00  0.00    +0.183 C 
ATOM      4  C   UNL     1      35.089 -25.681 -15.409  0.00  0.00    +0.003 C 
ATOM      5  C   UNL     1      37.192 -25.903 -14.241  0.00  0.00    +0.173 C 
ATOM      6  C   UNL     1      36.370 -26.226 -15.321  0.00  0.00    +0.040 C 
ENDROOT
BRANCH   5   7
ATOM      7  O   UNL     1      38.441 -26.443 -14.166  0.00  0.00    -0.468 OA
ATOM      8  C   UNL     1      39.508 -25.686 -14.736  0.00  0.00    +0.253 C 
ENDBRANCH   5   7
BRANCH   1  10
ATOM      9  C   UNL     1      32.866 -23.417 -15.493  0.00  0.00    +0.000 C 
ATOM     10  C   UNL     1      33.296 -24.244 -14.510  0.00  0.00    +0.000 C 
BRANCH   9  11
ATOM     11  C   UNL     1      33.680 -22.956 -16.632  0.00  0.00    +0.006 C 
ATOM     12  C   UNL     1      35.043 -22.772 -16.461  0.00  0.00    +0.040 C 
ATOM     13  C   UNL     1      33.068 -22.718 -17.852  0.00  0.00    +0.040 C 
ATOM     14  C   UNL     1      33.838 -22.283 -18.930  0.00  0.00    +0.175 C 
ATOM     15  C   UNL     1      35.814 -22.336 -17.539  0.00  0.00    +0.175 C 
ATOM     16  C   UNL     1      35.212 -22.092 -18.774  0.00  0.00    +0.206 C 
BRANCH  14  17
ATOM     17  O   UNL     1      33.238 -22.048 -20.129  0.00  0.00    -0.468 OA
ATOM     18  C   UNL     1      32.758 -20.725 -20.365  0.00  0.00    +0.253 C 
ENDBRANCH  14  17
BRANCH  15  19
ATOM     19  O   UNL     1      37.153 -22.154 -17.373  0.00  0.00    -0.468 OA
ATOM     20  C   UNL     1      37.733 -22.655 -16.170  0.00  0.00    +0.253 C 
ENDBRANCH  15  19
BRANCH  16  21
ATOM     21  O   UNL     1      35.965 -21.666 -19.827  0.00  0.00    -0.465 OA
ATOM     22  C   UNL     1      36.203 -20.264 -19.926  0.00  0.00    +0.253 C 
ENDBRANCH  16  21
ENDBRANCH   9  11
ENDBRANCH   1  10
BRANCH   3  23
ATOM     23  O   UNL     1      37.528 -24.714 -12.190  0.00  0.00    -0.400 OA
BRANCH  23  24
ATOM     24  P   UNL     1      37.785 -23.214 -11.641  0.00  0.00    +0.528 P 
ATOM     25  O   UNL     1      37.025 -22.845 -10.401  0.00  0.00    -0.216 OA
BRANCH  24  26
ATOM     26  O   UNL     1      37.445 -22.299 -12.932  0.00  0.00    -0.293 OA
ATOM     27  H   UNL     1      38.067 -21.556 -12.975  0.00  0.00    +0.223 HD
ENDBRANCH  24  26
BRANCH  24  28
ATOM     28  O   UNL     1      39.396 -23.104 -11.534  0.00  0.00    -0.293 OA
ATOM     29  H   UNL     1      39.792 -23.968 -11.728  0.00  0.00    +0.223 HD
ENDBRANCH  24  28
ENDBRANCH  23  24
ENDBRANCH   3  23
TORSDOF 10
ENDMDL
MODEL 5
REMARK VINA RESULT:      -7.4     10.863     14.222
REMARK  Name = 5351387
REMARK  10 active torsions:
REMARK  status: ('A' for Active; 'I' for Inactive)
REMARK    1  A    between atoms: C_1  and  C_10
REMARK    2  A    between atoms: C_3  and  O_23
REMARK    3  A    between atoms: C_5  and  O_7
REMARK    4  A    between atoms: C_9  and  C_11
REMARK    5  A    between atoms: C_14  and  O_17
REMARK    6  A    between atoms: C_15  and  O_19
REMARK    7  A    between atoms: C_16  and  O_21
REMARK    8  A    between atoms: O_23  and  P_24
REMARK    9  A    between atoms: P_24  and  O_26
REMARK   10  A    between atoms: P_24  and  O_28
REMARK                            x       y       z     vdW  Elec       q    Type
REMARK                         _______ _______ _______ _____ _____    ______ ____
ROOT
ATOM      1  C   UNL     1      32.893 -23.475 -14.769  0.00  0.00    +0.003 C 
ATOM      2  C   UNL     1      31.633 -23.130 -15.260  0.00  0.00    +0.041 C 
ATOM      3  C   UNL     1      31.475 -22.802 -16.607  0.00  0.00    +0.183 C 
ATOM      4  C   UNL     1      33.994 -23.492 -15.625  0.00  0.00    +0.003 C 
ATOM      5  C   UNL     1      32.577 -22.819 -17.462  0.00  0.00    +0.173 C 
ATOM      6  C   UNL     1      33.836 -23.164 -16.971  0.00  0.00    +0.040 C 
ENDROOT
BRANCH   5   7
ATOM      7  O   UNL     1      32.436 -22.500 -18.779  0.00  0.00    -0.468 OA
ATOM      8  C   UNL     1      33.512 -21.791 -19.392  0.00  0.00    +0.253 C 
ENDBRANCH   5   7
BRANCH   1  10
ATOM      9  C   UNL     1      34.228 -24.160 -12.778  0.00  0.00    +0.000 C 
ATOM     10  C   UNL     1      33.057 -23.818 -13.366  0.00  0.00    +0.000 C 
BRANCH   9  11
ATOM     11  C   UNL     1      35.531 -24.241 -13.462  0.00  0.00    +0.006 C 
ATOM     12  C   UNL     1      36.180 -25.463 -13.543  0.00  0.00    +0.040 C 
ATOM     13  C   UNL     1      36.080 -23.095 -14.013  0.00  0.00    +0.040 C 
ATOM     14  C   UNL     1      37.313 -23.171 -14.661  0.00  0.00    +0.175 C 
ATOM     15  C   UNL     1      37.413 -25.540 -14.191  0.00  0.00    +0.175 C 
ATOM     16  C   UNL     1      37.979 -24.394 -14.750  0.00  0.00    +0.206 C 
BRANCH  14  17
ATOM     17  O   UNL     1      37.856 -22.046 -15.202  0.00  0.00    -0.468 OA
ATOM     18  C   UNL     1      37.385 -21.655 -16.490  0.00  0.00    +0.253 C 
ENDBRANCH  14  17
BRANCH  15  19
ATOM     19  O   UNL     1      38.052 -26.739 -14.272  0.00  0.00    -0.468 OA
ATOM     20  C   UNL     1      37.505 -27.707 -15.165  0.00  0.00    +0.253 C 
ENDBRANCH  15  19
BRANCH  16  21
ATOM     21  O   UNL     1      39.184 -24.469 -15.384  0.00  0.00    -0.465 OA
ATOM     22  C   UNL     1      40.264 -25.042 -14.651  0.00  0.00    +0.253 C 
ENDBRANCH  16  21
ENDBRANCH   9  11
ENDBRANCH   1  10
BRANCH   3  23
ATOM     23  O   UNL     1      30.240 -22.466 -17.074  0.00  0.00    -0.400 OA
BRANCH  23  24
ATOM     24  P   UNL     1      28.847 -23.123 -16.580  0.00  0.00    +0.528 P 
ATOM     25  O   UNL     1      28.969 -24.461 -15.912  0.00  0.00    -0.216 OA
BRANCH  24  26
ATOM     26  O   UNL     1      27.958 -23.130 -17.932  0.00  0.00    -0.293 OA
ATOM     27  H   UNL     1      27.393 -22.341 -17.953  0.00  0.00    +0.223 HD
ENDBRANCH  24  26
BRANCH  24  28
ATOM     28  O   UNL     1      28.153 -21.960 -15.697  0.00  0.00    -0.293 OA
ATOM     29  H   UNL     1      27.357 -22.311 -15.267  0.00  0.00    +0.223 HD
ENDBRANCH  24  28
ENDBRANCH  23  24
ENDBRANCH   3  23
TORSDOF 10
ENDMDL
MODEL 6
REMARK VINA RESULT:      -7.4     10.977     14.398
REMARK  Name = 5351387
REMARK  10 active torsions:
REMARK  status: ('A' for Active; 'I' for Inactive)
REMARK    1  A    between atoms: C_1  and  C_10
REMARK    2  A    between atoms: C_3  and  O_23
REMARK    3  A    between atoms: C_5  and  O_7
REMARK    4  A    between atoms: C_9  and  C_11
REMARK    5  A    between atoms: C_14  and  O_17
REMARK    6  A    between atoms: C_15  and  O_19
REMARK    7  A    between atoms: C_16  and  O_21
REMARK    8  A    between atoms: O_23  and  P_24
REMARK    9  A    between atoms: P_24  and  O_26
REMARK   10  A    between atoms: P_24  and  O_28
REMARK                            x       y       z     vdW  Elec       q    Type
REMARK                         _______ _______ _______ _____ _____    ______ ____
ROOT
ATOM      1  C   UNL     1      32.851 -23.500 -14.718  0.00  0.00    +0.003 C 
ATOM      2  C   UNL     1      31.601 -23.120 -15.208  0.00  0.00    +0.041 C 
ATOM      3  C   UNL     1      31.448 -22.798 -16.557  0.00  0.00    +0.183 C 
ATOM      4  C   UNL     1      33.947 -23.558 -15.578  0.00  0.00    +0.003 C 
ATOM      5  C   UNL     1      32.545 -22.856 -17.416  0.00  0.00    +0.173 C 
ATOM      6  C   UNL     1      33.795 -23.236 -16.926  0.00  0.00    +0.040 C 
ENDROOT
BRANCH   5   7
ATOM      7  O   UNL     1      32.409 -22.544 -18.735  0.00  0.00    -0.468 OA
ATOM      8  C   UNL     1      33.547 -21.984 -19.388  0.00  0.00    +0.253 C 
ENDBRANCH   5   7
BRANCH   1  10
ATOM      9  C   UNL     1      34.178 -24.173 -12.718  0.00  0.00    +0.000 C 
ATOM     10  C   UNL     1      33.009 -23.836 -13.313  0.00  0.00    +0.000 C 
BRANCH   9  11
ATOM     11  C   UNL     1      35.484 -24.255 -13.397  0.00  0.00    +0.006 C 
ATOM     12  C   UNL     1      36.035 -23.108 -13.948  0.00  0.00    +0.040 C 
ATOM     13  C   UNL     1      36.137 -25.475 -13.469  0.00  0.00    +0.040 C 
ATOM     14  C   UNL     1      37.373 -25.552 -14.111  0.00  0.00    +0.175 C 
ATOM     15  C   UNL     1      37.271 -23.185 -14.589  0.00  0.00    +0.175 C 
ATOM     16  C   UNL     1      37.940 -24.407 -14.670  0.00  0.00    +0.206 C 
BRANCH  14  17
ATOM     17  O   UNL     1      38.015 -26.750 -14.183  0.00  0.00    -0.468 OA
ATOM     18  C   UNL     1      37.564 -27.668 -15.178  0.00  0.00    +0.253 C 
ENDBRANCH  14  17
BRANCH  15  19
ATOM     19  O   UNL     1      37.814 -22.061 -15.131  0.00  0.00    -0.468 OA
ATOM     20  C   UNL     1      37.346 -21.670 -16.420  0.00  0.00    +0.253 C 
ENDBRANCH  15  19
BRANCH  16  21
ATOM     21  O   UNL     1      39.148 -24.482 -15.297  0.00  0.00    -0.465 OA
ATOM     22  C   UNL     1      40.237 -25.009 -14.542  0.00  0.00    +0.253 C 
ENDBRANCH  16  21
ENDBRANCH   9  11
ENDBRANCH   1  10
BRANCH   3  23
ATOM     23  O   UNL     1      30.222 -22.428 -17.023  0.00  0.00    -0.400 OA
BRANCH  23  24
ATOM     24  P   UNL     1      28.814 -23.077 -16.560  0.00  0.00    +0.528 P 
ATOM     25  O   UNL     1      28.916 -24.406 -15.870  0.00  0.00    -0.216 OA
BRANCH  24  26
ATOM     26  O   UNL     1      27.963 -23.100 -17.936  0.00  0.00    -0.293 OA
ATOM     27  H   UNL     1      27.098 -23.508 -17.775  0.00  0.00    +0.223 HD
ENDBRANCH  24  26
BRANCH  24  28
ATOM     28  O   UNL     1      28.098 -21.901 -15.711  0.00  0.00    -0.293 OA
ATOM     29  H   UNL     1      28.772 -21.294 -15.367  0.00  0.00    +0.223 HD
ENDBRANCH  24  28
ENDBRANCH  23  24
ENDBRANCH   3  23
TORSDOF 10
ENDMDL
MODEL 7
REMARK VINA RESULT:      -7.3      2.749      7.353
REMARK  Name = 5351387
REMARK  10 active torsions:
REMARK  status: ('A' for Active; 'I' for Inactive)
REMARK    1  A    between atoms: C_1  and  C_10
REMARK    2  A    between atoms: C_3  and  O_23
REMARK    3  A    between atoms: C_5  and  O_7
REMARK    4  A    between atoms: C_9  and  C_11
REMARK    5  A    between atoms: C_14  and  O_17
REMARK    6  A    between atoms: C_15  and  O_19
REMARK    7  A    between atoms: C_16  and  O_21
REMARK    8  A    between atoms: O_23  and  P_24
REMARK    9  A    between atoms: P_24  and  O_26
REMARK   10  A    between atoms: P_24  and  O_28
REMARK                            x       y       z     vdW  Elec       q    Type
REMARK                         _______ _______ _______ _____ _____    ______ ____
ROOT
ATOM      1  C   UNL     1      32.123 -13.101 -21.969  0.00  0.00    +0.003 C 
ATOM      2  C   UNL     1      32.513 -13.116 -23.308  0.00  0.00    +0.041 C 
ATOM      3  C   UNL     1      33.608 -13.882 -23.709  0.00  0.00    +0.183 C 
ATOM      4  C   UNL     1      32.828 -13.854 -21.030  0.00  0.00    +0.003 C 
ATOM      5  C   UNL     1      34.311 -14.634 -22.769  0.00  0.00    +0.173 C 
ATOM      6  C   UNL     1      33.921 -14.621 -21.430  0.00  0.00    +0.040 C 
ENDROOT
BRANCH   5   7
ATOM      7  O   UNL     1      35.382 -15.387 -23.147  0.00  0.00    -0.468 OA
ATOM      8  C   UNL     1      35.277 -16.799 -22.966  0.00  0.00    +0.253 C 
ENDBRANCH   5   7
BRANCH   1  10
ATOM      9  C   UNL     1      30.900 -10.953 -21.636  0.00  0.00    +0.000 C 
ATOM     10  C   UNL     1      30.981 -12.303 -21.553  0.00  0.00    +0.000 C 
BRANCH   9  11
ATOM     11  C   UNL     1      31.955 -10.070 -22.163  0.00  0.00    +0.006 C 
ATOM     12  C   UNL     1      32.008  -8.750 -21.743  0.00  0.00    +0.040 C 
ATOM     13  C   UNL     1      32.876 -10.576 -23.067  0.00  0.00    +0.040 C 
ATOM     14  C   UNL     1      33.875  -9.739 -23.565  0.00  0.00    +0.175 C 
ATOM     15  C   UNL     1      33.007  -7.914 -22.241  0.00  0.00    +0.175 C 
ATOM     16  C   UNL     1      33.940  -8.409 -23.152  0.00  0.00    +0.206 C 
BRANCH  14  17
ATOM     17  O   UNL     1      34.780 -10.234 -24.454  0.00  0.00    -0.468 OA
ATOM     18  C   UNL     1      34.262 -10.824 -25.645  0.00  0.00    +0.253 C 
ENDBRANCH  14  17
BRANCH  15  19
ATOM     19  O   UNL     1      33.060  -6.617 -21.830  0.00  0.00    -0.468 OA
ATOM     20  C   UNL     1      31.821  -5.919 -21.722  0.00  0.00    +0.253 C 
ENDBRANCH  15  19
BRANCH  16  21
ATOM     21  O   UNL     1      34.917  -7.591 -23.638  0.00  0.00    -0.465 OA
ATOM     22  C   UNL     1      34.577  -6.773 -24.755  0.00  0.00    +0.253 C 
ENDBRANCH  16  21
ENDBRANCH   9  11
ENDBRANCH   1  10
BRANCH   3  23
ATOM     23  O   UNL     1      33.978 -13.887 -25.019  0.00  0.00    -0.400 OA
BRANCH  23  24
ATOM     24  P   UNL     1      33.263 -14.749 -26.187  0.00  0.00    +0.528 P 
ATOM     25  O   UNL     1      33.357 -16.239 -26.035  0.00  0.00    -0.216 OA
BRANCH  24  26
ATOM     26  O   UNL     1      33.954 -14.169 -27.531  0.00  0.00    -0.293 OA
ATOM     27  H   UNL     1      34.773 -14.657 -27.711  0.00  0.00    +0.223 HD
ENDBRANCH  24  26
BRANCH  24  28
ATOM     28  O   UNL     1      31.764 -14.145 -26.262  0.00  0.00    -0.293 OA
ATOM     29  H   UNL     1      31.486 -13.861 -25.376  0.00  0.00    +0.223 HD
ENDBRANCH  24  28
ENDBRANCH  23  24
ENDBRANCH   3  23
TORSDOF 10
ENDMDL
MODEL 8
REMARK VINA RESULT:      -7.3      2.662      7.723
REMARK  Name = 5351387
REMARK  10 active torsions:
REMARK  status: ('A' for Active; 'I' for Inactive)
REMARK    1  A    between atoms: C_1  and  C_10
REMARK    2  A    between atoms: C_3  and  O_23
REMARK    3  A    between atoms: C_5  and  O_7
REMARK    4  A    between atoms: C_9  and  C_11
REMARK    5  A    between atoms: C_14  and  O_17
REMARK    6  A    between atoms: C_15  and  O_19
REMARK    7  A    between atoms: C_16  and  O_21
REMARK    8  A    between atoms: O_23  and  P_24
REMARK    9  A    between atoms: P_24  and  O_26
REMARK   10  A    between atoms: P_24  and  O_28
REMARK                            x       y       z     vdW  Elec       q    Type
REMARK                         _______ _______ _______ _____ _____    ______ ____
ROOT
ATOM      1  C   UNL     1      32.303 -13.277 -21.255  0.00  0.00    +0.003 C 
ATOM      2  C   UNL     1      33.343 -14.160 -20.962  0.00  0.00    +0.041 C 
ATOM      3  C   UNL     1      33.987 -14.846 -21.993  0.00  0.00    +0.183 C 
ATOM      4  C   UNL     1      31.907 -13.080 -22.578  0.00  0.00    +0.003 C 
ATOM      5  C   UNL     1      33.591 -14.648 -23.315  0.00  0.00    +0.173 C 
ATOM      6  C   UNL     1      32.551 -13.765 -23.608  0.00  0.00    +0.040 C 
ENDROOT
BRANCH   5   7
ATOM      7  O   UNL     1      34.211 -15.312 -24.330  0.00  0.00    -0.468 OA
ATOM      8  C   UNL     1      33.496 -15.430 -25.559  0.00  0.00    +0.253 C 
ENDBRANCH   5   7
BRANCH   1  10
ATOM      9  C   UNL     1      31.481 -11.218 -20.114  0.00  0.00    +0.000 C 
ATOM     10  C   UNL     1      31.633 -12.562 -20.181  0.00  0.00    +0.000 C 
BRANCH   9  11
ATOM     11  C   UNL     1      31.970 -10.257 -21.119  0.00  0.00    +0.006 C 
ATOM     12  C   UNL     1      32.061  -8.914 -20.786  0.00  0.00    +0.040 C 
ATOM     13  C   UNL     1      32.330 -10.714 -22.377  0.00  0.00    +0.040 C 
ATOM     14  C   UNL     1      32.792  -9.804 -23.328  0.00  0.00    +0.175 C 
ATOM     15  C   UNL     1      32.524  -8.005 -21.737  0.00  0.00    +0.175 C 
ATOM     16  C   UNL     1      32.890  -8.450 -23.008  0.00  0.00    +0.206 C 
BRANCH  14  17
ATOM     17  O   UNL     1      33.146 -10.251 -24.564  0.00  0.00    -0.468 OA
ATOM     18  C   UNL     1      34.426 -10.868 -24.689  0.00  0.00    +0.253 C 
ENDBRANCH  14  17
BRANCH  15  19
ATOM     19  O   UNL     1      32.614  -6.686 -21.412  0.00  0.00    -0.468 OA
ATOM     20  C   UNL     1      31.442  -5.892 -21.585  0.00  0.00    +0.253 C 
ENDBRANCH  15  19
BRANCH  16  21
ATOM     21  O   UNL     1      33.342  -7.561 -23.937  0.00  0.00    -0.465 OA
ATOM     22  C   UNL     1      34.739  -7.272 -23.929  0.00  0.00    +0.253 C 
ENDBRANCH  16  21
ENDBRANCH   9  11
ENDBRANCH   1  10
BRANCH   3  23
ATOM     23  O   UNL     1      35.000 -15.706 -21.694  0.00  0.00    -0.400 OA
BRANCH  23  24
ATOM     24  P   UNL     1      34.842 -17.306 -21.514  0.00  0.00    +0.528 P 
ATOM     25  O   UNL     1      35.835 -17.949 -20.590  0.00  0.00    -0.216 OA
BRANCH  24  26
ATOM     26  O   UNL     1      34.902 -17.843 -23.039  0.00  0.00    -0.293 OA
ATOM     27  H   UNL     1      35.414 -18.667 -23.073  0.00  0.00    +0.223 HD
ENDBRANCH  24  26
BRANCH  24  28
ATOM     28  O   UNL     1      33.287 -17.507 -21.120  0.00  0.00    -0.293 OA
ATOM     29  H   UNL     1      32.725 -17.157 -21.830  0.00  0.00    +0.223 HD
ENDBRANCH  24  28
ENDBRANCH  23  24
ENDBRANCH   3  23
TORSDOF 10
ENDMDL
MODEL 9
REMARK VINA RESULT:      -7.3      2.664      7.351
REMARK  Name = 5351387
REMARK  10 active torsions:
REMARK  status: ('A' for Active; 'I' for Inactive)
REMARK    1  A    between atoms: C_1  and  C_10
REMARK    2  A    between atoms: C_3  and  O_23
REMARK    3  A    between atoms: C_5  and  O_7
REMARK    4  A    between atoms: C_9  and  C_11
REMARK    5  A    between atoms: C_14  and  O_17
REMARK    6  A    between atoms: C_15  and  O_19
REMARK    7  A    between atoms: C_16  and  O_21
REMARK    8  A    between atoms: O_23  and  P_24
REMARK    9  A    between atoms: P_24  and  O_26
REMARK   10  A    between atoms: P_24  and  O_28
REMARK                            x       y       z     vdW  Elec       q    Type
REMARK                         _______ _______ _______ _____ _____    ______ ____
ROOT
ATOM      1  C   UNL     1      32.305 -13.267 -21.264  0.00  0.00    +0.003 C 
ATOM      2  C   UNL     1      33.342 -14.154 -20.971  0.00  0.00    +0.041 C 
ATOM      3  C   UNL     1      33.989 -14.837 -22.001  0.00  0.00    +0.183 C 
ATOM      4  C   UNL     1      31.916 -13.063 -22.588  0.00  0.00    +0.003 C 
ATOM      5  C   UNL     1      33.599 -14.632 -23.324  0.00  0.00    +0.173 C 
ATOM      6  C   UNL     1      32.563 -13.745 -23.618  0.00  0.00    +0.040 C 
ENDROOT
BRANCH   5   7
ATOM      7  O   UNL     1      34.223 -15.292 -24.340  0.00  0.00    -0.468 OA
ATOM      8  C   UNL     1      33.493 -15.448 -25.555  0.00  0.00    +0.253 C 
ENDBRANCH   5   7
BRANCH   1  10
ATOM      9  C   UNL     1      31.477 -11.211 -20.121  0.00  0.00    +0.000 C 
ATOM     10  C   UNL     1      31.632 -12.555 -20.190  0.00  0.00    +0.000 C 
BRANCH   9  11
ATOM     11  C   UNL     1      31.965 -10.248 -21.124  0.00  0.00    +0.006 C 
ATOM     12  C   UNL     1      32.323 -10.701 -22.383  0.00  0.00    +0.040 C 
ATOM     13  C   UNL     1      32.055  -8.906 -20.788  0.00  0.00    +0.040 C 
ATOM     14  C   UNL     1      32.517  -7.994 -21.737  0.00  0.00    +0.175 C 
ATOM     15  C   UNL     1      32.784  -9.789 -23.332  0.00  0.00    +0.175 C 
ATOM     16  C   UNL     1      32.881  -8.436 -23.009  0.00  0.00    +0.206 C 
BRANCH  14  17
ATOM     17  O   UNL     1      32.607  -6.676 -21.409  0.00  0.00    -0.468 OA
ATOM     18  C   UNL     1      31.432  -5.885 -21.576  0.00  0.00    +0.253 C 
ENDBRANCH  14  17
BRANCH  15  19
ATOM     19  O   UNL     1      33.136 -10.233 -24.571  0.00  0.00    -0.468 OA
ATOM     20  C   UNL     1      34.413 -10.855 -24.699  0.00  0.00    +0.253 C 
ENDBRANCH  15  19
BRANCH  16  21
ATOM     21  O   UNL     1      33.331  -7.544 -23.937  0.00  0.00    -0.465 OA
ATOM     22  C   UNL     1      34.730  -7.266 -23.940  0.00  0.00    +0.253 C 
ENDBRANCH  16  21
ENDBRANCH   9  11
ENDBRANCH   1  10
BRANCH   3  23
ATOM     23  O   UNL     1      34.999 -15.700 -21.702  0.00  0.00    -0.400 OA
BRANCH  23  24
ATOM     24  P   UNL     1      34.834 -17.300 -21.519  0.00  0.00    +0.528 P 
ATOM     25  O   UNL     1      35.825 -17.946 -20.596  0.00  0.00    -0.216 OA
BRANCH  24  26
ATOM     26  O   UNL     1      34.890 -17.839 -23.044  0.00  0.00    -0.293 OA
ATOM     27  H   UNL     1      34.120 -17.509 -23.533  0.00  0.00    +0.223 HD
ENDBRANCH  24  26
BRANCH  24  28
ATOM     28  O   UNL     1      33.278 -17.494 -21.123  0.00  0.00    -0.293 OA
ATOM     29  H   UNL     1      33.216 -17.874 -20.232  0.00  0.00    +0.223 HD
ENDBRANCH  24  28
ENDBRANCH  23  24
ENDBRANCH   3  23
TORSDOF 10
ENDMDL
