MODEL 1
REMARK VINA RESULT:      -7.0      0.000      0.000
REMARK  Name = 4947
REMARK  7 active torsions:
REMARK  status: ('A' for Active; 'I' for Inactive)
REMARK    1  A    between atoms: C_1  and  C_14
REMARK    2  A    between atoms: C_4  and  O_7
REMARK    3  A    between atoms: C_5  and  O_9
REMARK    4  A    between atoms: C_6  and  O_11
REMARK    5  A    between atoms: C_14  and  O_15
REMARK    6  A    between atoms: O_15  and  C_16
REMARK    7  A    between atoms: C_16  and  C_17
REMARK                            x       y       z     vdW  Elec       q    Type
REMARK                         _______ _______ _______ _____ _____    ______ ____
ROOT
ATOM      1  C   UNL     1      34.415 -19.968 -20.797  0.00  0.00    +0.082 C 
ATOM      2  C   UNL     1      33.304 -20.562 -20.200  0.00  0.00    +0.046 C 
ATOM      3  C   UNL     1      35.700 -20.362 -20.427  0.00  0.00    +0.046 C 
ATOM      4  C   UNL     1      35.874 -21.350 -19.459  0.00  0.00    +0.171 C 
ATOM      5  C   UNL     1      33.478 -21.551 -19.232  0.00  0.00    +0.171 C 
ATOM      6  C   UNL     1      34.763 -21.946 -18.861  0.00  0.00    +0.202 C 
ENDROOT
BRANCH   4   7
ATOM      7  O   UNL     1      37.136 -21.726 -19.104  0.00  0.00    -0.503 OA
ATOM      8  H   UNL     1      37.286 -22.576 -18.740  0.00  0.00    +0.292 HD
ENDBRANCH   4   7
BRANCH   5   9
ATOM      9  O   UNL     1      32.384 -22.122 -18.654  0.00  0.00    -0.503 OA
ATOM     10  H   UNL     1      32.102 -22.974 -18.923  0.00  0.00    +0.292 HD
ENDBRANCH   5   9
BRANCH   6  11
ATOM     11  O   UNL     1      34.934 -22.913 -17.915  0.00  0.00    -0.501 OA
ATOM     12  H   UNL     1      34.713 -23.802 -18.109  0.00  0.00    +0.292 HD
ENDBRANCH   6  11
BRANCH   1  14
ATOM     13  O   UNL     1      34.367 -19.112 -23.022  0.00  0.00    -0.245 OA
ATOM     14  C   UNL     1      34.232 -18.934 -21.805  0.00  0.00    +0.341 C 
BRANCH  14  15
ATOM     15  O   UNL     1      33.890 -17.736 -21.240  0.00  0.00    -0.445 OA
BRANCH  15  16
ATOM     16  C   UNL     1      34.925 -16.755 -21.126  0.00  0.00    +0.209 C 
BRANCH  16  17
ATOM     17  C   UNL     1      34.326 -15.469 -20.576  0.00  0.00    +0.047 C 
ATOM     18  C   UNL     1      32.828 -15.398 -20.811  0.00  0.00    +0.004 C 
ENDBRANCH  16  17
ENDBRANCH  15  16
ENDBRANCH  14  15
ENDBRANCH   1  14
TORSDOF 7
ENDMDL
MODEL 2
REMARK VINA RESULT:      -7.0      0.107      2.150
REMARK  Name = 4947
REMARK  7 active torsions:
REMARK  status: ('A' for Active; 'I' for Inactive)
REMARK    1  A    between atoms: C_1  and  C_14
REMARK    2  A    between atoms: C_4  and  O_7
REMARK    3  A    between atoms: C_5  and  O_9
REMARK    4  A    between atoms: C_6  and  O_11
REMARK    5  A    between atoms: C_14  and  O_15
REMARK    6  A    between atoms: O_15  and  C_16
REMARK    7  A    between atoms: C_16  and  C_17
REMARK                            x       y       z     vdW  Elec       q    Type
REMARK                         _______ _______ _______ _____ _____    ______ ____
ROOT
ATOM      1  C   UNL     1      34.461 -19.997 -20.759  0.00  0.00    +0.082 C 
ATOM      2  C   UNL     1      35.737 -20.381 -20.348  0.00  0.00    +0.046 C 
ATOM      3  C   UNL     1      33.336 -20.590 -20.188  0.00  0.00    +0.046 C 
ATOM      4  C   UNL     1      33.486 -21.569 -19.206  0.00  0.00    +0.171 C 
ATOM      5  C   UNL     1      35.887 -21.359 -19.365  0.00  0.00    +0.171 C 
ATOM      6  C   UNL     1      34.763 -21.953 -18.794  0.00  0.00    +0.202 C 
ENDROOT
BRANCH   4   7
ATOM      7  O   UNL     1      32.379 -22.144 -18.657  0.00  0.00    -0.503 OA
ATOM      8  H   UNL     1      31.864 -21.668 -18.035  0.00  0.00    +0.292 HD
ENDBRANCH   4   7
BRANCH   5   9
ATOM      9  O   UNL     1      37.140 -21.727 -18.974  0.00  0.00    -0.503 OA
ATOM     10  H   UNL     1      37.594 -21.229 -18.324  0.00  0.00    +0.292 HD
ENDBRANCH   5   9
BRANCH   6  11
ATOM     11  O   UNL     1      34.910 -22.910 -17.833  0.00  0.00    -0.501 OA
ATOM     12  H   UNL     1      35.469 -23.646 -17.986  0.00  0.00    +0.292 HD
ENDBRANCH   6  11
BRANCH   1  14
ATOM     13  O   UNL     1      34.457 -19.176 -22.998  0.00  0.00    -0.245 OA
ATOM     14  C   UNL     1      34.304 -18.978 -21.786  0.00  0.00    +0.341 C 
BRANCH  14  15
ATOM     15  O   UNL     1      33.963 -17.768 -21.246  0.00  0.00    -0.445 OA
BRANCH  15  16
ATOM     16  C   UNL     1      34.929 -16.718 -21.348  0.00  0.00    +0.209 C 
BRANCH  16  17
ATOM     17  C   UNL     1      34.432 -15.513 -20.564  0.00  0.00    +0.047 C 
ATOM     18  C   UNL     1      32.931 -15.331 -20.701  0.00  0.00    +0.004 C 
ENDBRANCH  16  17
ENDBRANCH  15  16
ENDBRANCH  14  15
ENDBRANCH   1  14
TORSDOF 7
ENDMDL
MODEL 3
REMARK VINA RESULT:      -7.0      4.117      6.086
REMARK  Name = 4947
REMARK  7 active torsions:
REMARK  status: ('A' for Active; 'I' for Inactive)
REMARK    1  A    between atoms: C_1  and  C_14
REMARK    2  A    between atoms: C_4  and  O_7
REMARK    3  A    between atoms: C_5  and  O_9
REMARK    4  A    between atoms: C_6  and  O_11
REMARK    5  A    between atoms: C_14  and  O_15
REMARK    6  A    between atoms: O_15  and  C_16
REMARK    7  A    between atoms: C_16  and  C_17
REMARK                            x       y       z     vdW  Elec       q    Type
REMARK                         _______ _______ _______ _____ _____    ______ ____
ROOT
ATOM      1  C   UNL     1      32.902 -23.452 -16.212  0.00  0.00    +0.082 C 
ATOM      2  C   UNL     1      31.509 -23.432 -16.270  0.00  0.00    +0.046 C 
ATOM      3  C   UNL     1      33.546 -23.915 -15.066  0.00  0.00    +0.046 C 
ATOM      4  C   UNL     1      32.797 -24.356 -13.975  0.00  0.00    +0.171 C 
ATOM      5  C   UNL     1      30.760 -23.874 -15.179  0.00  0.00    +0.171 C 
ATOM      6  C   UNL     1      31.403 -24.336 -14.032  0.00  0.00    +0.202 C 
ENDROOT
BRANCH   4   7
ATOM      7  O   UNL     1      33.438 -24.803 -12.859  0.00  0.00    -0.503 OA
ATOM      8  H   UNL     1      34.156 -24.317 -12.505  0.00  0.00    +0.292 HD
ENDBRANCH   4   7
BRANCH   5   9
ATOM      9  O   UNL     1      29.399 -23.846 -15.247  0.00  0.00    -0.503 OA
ATOM     10  H   UNL     1      28.947 -23.027 -15.278  0.00  0.00    +0.292 HD
ENDBRANCH   5   9
BRANCH   6  11
ATOM     11  O   UNL     1      30.671 -24.768 -12.966  0.00  0.00    -0.501 OA
ATOM     12  H   UNL     1      30.012 -25.423 -13.085  0.00  0.00    +0.292 HD
ENDBRANCH   6  11
BRANCH   1  14
ATOM     13  O   UNL     1      34.920 -23.009 -17.404  0.00  0.00    -0.245 OA
ATOM     14  C   UNL     1      33.683 -22.989 -17.349  0.00  0.00    +0.341 C 
BRANCH  14  15
ATOM     15  O   UNL     1      32.880 -22.528 -18.357  0.00  0.00    -0.445 OA
BRANCH  15  16
ATOM     16  C   UNL     1      33.533 -21.947 -19.490  0.00  0.00    +0.209 C 
BRANCH  16  17
ATOM     17  C   UNL     1      32.855 -20.626 -19.824  0.00  0.00    +0.047 C 
ATOM     18  C   UNL     1      33.625 -19.848 -20.876  0.00  0.00    +0.004 C 
ENDBRANCH  16  17
ENDBRANCH  15  16
ENDBRANCH  14  15
ENDBRANCH   1  14
TORSDOF 7
ENDMDL
MODEL 4
REMARK VINA RESULT:      -7.0      2.531      6.074
REMARK  Name = 4947
REMARK  7 active torsions:
REMARK  status: ('A' for Active; 'I' for Inactive)
REMARK    1  A    between atoms: C_1  and  C_14
REMARK    2  A    between atoms: C_4  and  O_7
REMARK    3  A    between atoms: C_5  and  O_9
REMARK    4  A    between atoms: C_6  and  O_11
REMARK    5  A    between atoms: C_14  and  O_15
REMARK    6  A    between atoms: O_15  and  C_16
REMARK    7  A    between atoms: C_16  and  C_17
REMARK                            x       y       z     vdW  Elec       q    Type
REMARK                         _______ _______ _______ _____ _____    ______ ____
ROOT
ATOM      1  C   UNL     1      35.497 -17.747 -22.272  0.00  0.00    +0.082 C 
ATOM      2  C   UNL     1      35.313 -18.110 -23.605  0.00  0.00    +0.046 C 
ATOM      3  C   UNL     1      35.075 -16.496 -21.824  0.00  0.00    +0.046 C 
ATOM      4  C   UNL     1      34.470 -15.606 -22.712  0.00  0.00    +0.171 C 
ATOM      5  C   UNL     1      34.708 -17.220 -24.492  0.00  0.00    +0.171 C 
ATOM      6  C   UNL     1      34.287 -15.968 -24.046  0.00  0.00    +0.202 C 
ENDROOT
BRANCH   4   7
ATOM      7  O   UNL     1      34.065 -14.384 -22.263  0.00  0.00    -0.503 OA
ATOM      8  H   UNL     1      33.549 -13.830 -22.816  0.00  0.00    +0.292 HD
ENDBRANCH   4   7
BRANCH   5   9
ATOM      9  O   UNL     1      34.537 -17.586 -25.794  0.00  0.00    -0.503 OA
ATOM     10  H   UNL     1      35.125 -17.270 -26.451  0.00  0.00    +0.292 HD
ENDBRANCH   5   9
BRANCH   6  11
ATOM     11  O   UNL     1      33.695 -15.098 -24.914  0.00  0.00    -0.501 OA
ATOM     12  H   UNL     1      32.775 -15.157 -25.082  0.00  0.00    +0.292 HD
ENDBRANCH   6  11
BRANCH   1  14
ATOM     13  O   UNL     1      37.328 -18.985 -21.377  0.00  0.00    -0.245 OA
ATOM     14  C   UNL     1      36.130 -18.675 -21.346  0.00  0.00    +0.341 C 
BRANCH  14  15
ATOM     15  O   UNL     1      35.237 -19.163 -20.433  0.00  0.00    -0.445 OA
BRANCH  15  16
ATOM     16  C   UNL     1      35.229 -20.579 -20.229  0.00  0.00    +0.209 C 
BRANCH  16  17
ATOM     17  C   UNL     1      33.805 -21.026 -19.930  0.00  0.00    +0.047 C 
ATOM     18  C   UNL     1      32.780 -20.054 -20.487  0.00  0.00    +0.004 C 
ENDBRANCH  16  17
ENDBRANCH  15  16
ENDBRANCH  14  15
ENDBRANCH   1  14
TORSDOF 7
ENDMDL
MODEL 5
REMARK VINA RESULT:      -7.0      3.182      6.706
REMARK  Name = 4947
REMARK  7 active torsions:
REMARK  status: ('A' for Active; 'I' for Inactive)
REMARK    1  A    between atoms: C_1  and  C_14
REMARK    2  A    between atoms: C_4  and  O_7
REMARK    3  A    between atoms: C_5  and  O_9
REMARK    4  A    between atoms: C_6  and  O_11
REMARK    5  A    between atoms: C_14  and  O_15
REMARK    6  A    between atoms: O_15  and  C_16
REMARK    7  A    between atoms: C_16  and  C_17
REMARK                            x       y       z     vdW  Elec       q    Type
REMARK                         _______ _______ _______ _____ _____    ______ ____
ROOT
ATOM      1  C   UNL     1      34.730 -17.370 -23.851  0.00  0.00    +0.082 C 
ATOM      2  C   UNL     1      34.199 -17.115 -25.115  0.00  0.00    +0.046 C 
ATOM      3  C   UNL     1      34.855 -16.336 -22.925  0.00  0.00    +0.046 C 
ATOM      4  C   UNL     1      34.451 -15.044 -23.263  0.00  0.00    +0.171 C 
ATOM      5  C   UNL     1      33.794 -15.824 -25.453  0.00  0.00    +0.171 C 
ATOM      6  C   UNL     1      33.919 -14.788 -24.527  0.00  0.00    +0.202 C 
ENDROOT
BRANCH   4   7
ATOM      7  O   UNL     1      34.581 -14.041 -22.350  0.00  0.00    -0.503 OA
ATOM      8  H   UNL     1      34.419 -13.153 -22.604  0.00  0.00    +0.292 HD
ENDBRANCH   4   7
BRANCH   5   9
ATOM      9  O   UNL     1      33.279 -15.587 -26.692  0.00  0.00    -0.503 OA
ATOM     10  H   UNL     1      33.486 -14.792 -27.142  0.00  0.00    +0.292 HD
ENDBRANCH   5   9
BRANCH   6  11
ATOM     11  O   UNL     1      33.523 -13.526 -24.857  0.00  0.00    -0.501 OA
ATOM     12  H   UNL     1      33.231 -12.937 -24.190  0.00  0.00    +0.292 HD
ENDBRANCH   6  11
BRANCH   1  14
ATOM     13  O   UNL     1      35.027 -19.705 -24.234  0.00  0.00    -0.245 OA
ATOM     14  C   UNL     1      35.155 -18.717 -23.500  0.00  0.00    +0.341 C 
BRANCH  14  15
ATOM     15  O   UNL     1      35.719 -18.757 -22.254  0.00  0.00    -0.445 OA
BRANCH  15  16
ATOM     16  C   UNL     1      35.240 -19.767 -21.360  0.00  0.00    +0.209 C 
BRANCH  16  17
ATOM     17  C   UNL     1      33.815 -19.427 -20.951  0.00  0.00    +0.047 C 
ATOM     18  C   UNL     1      33.174 -20.549 -20.153  0.00  0.00    +0.004 C 
ENDBRANCH  16  17
ENDBRANCH  15  16
ENDBRANCH  14  15
ENDBRANCH   1  14
TORSDOF 7
ENDMDL
MODEL 6
REMARK VINA RESULT:      -7.0      3.192      6.788
REMARK  Name = 4947
REMARK  7 active torsions:
REMARK  status: ('A' for Active; 'I' for Inactive)
REMARK    1  A    between atoms: C_1  and  C_14
REMARK    2  A    between atoms: C_4  and  O_7
REMARK    3  A    between atoms: C_5  and  O_9
REMARK    4  A    between atoms: C_6  and  O_11
REMARK    5  A    between atoms: C_14  and  O_15
REMARK    6  A    between atoms: O_15  and  C_16
REMARK    7  A    between atoms: C_16  and  C_17
REMARK                            x       y       z     vdW  Elec       q    Type
REMARK                         _______ _______ _______ _____ _____    ______ ____
ROOT
ATOM      1  C   UNL     1      34.725 -17.360 -23.853  0.00  0.00    +0.082 C 
ATOM      2  C   UNL     1      34.859 -16.314 -22.940  0.00  0.00    +0.046 C 
ATOM      3  C   UNL     1      34.186 -17.119 -25.115  0.00  0.00    +0.046 C 
ATOM      4  C   UNL     1      33.777 -15.833 -25.465  0.00  0.00    +0.171 C 
ATOM      5  C   UNL     1      34.451 -15.027 -23.290  0.00  0.00    +0.171 C 
ATOM      6  C   UNL     1      33.910 -14.786 -24.552  0.00  0.00    +0.202 C 
ENDROOT
BRANCH   4   7
ATOM      7  O   UNL     1      33.247 -15.611 -26.701  0.00  0.00    -0.503 OA
ATOM      8  H   UNL     1      33.343 -14.772 -27.107  0.00  0.00    +0.292 HD
ENDBRANCH   4   7
BRANCH   5   9
ATOM      9  O   UNL     1      34.583 -14.015 -22.388  0.00  0.00    -0.503 OA
ATOM     10  H   UNL     1      34.675 -13.131 -22.684  0.00  0.00    +0.292 HD
ENDBRANCH   5   9
BRANCH   6  11
ATOM     11  O   UNL     1      33.510 -13.528 -24.895  0.00  0.00    -0.501 OA
ATOM     12  H   UNL     1      32.598 -13.330 -24.970  0.00  0.00    +0.292 HD
ENDBRANCH   6  11
BRANCH   1  14
ATOM     13  O   UNL     1      35.028 -19.698 -24.213  0.00  0.00    -0.245 OA
ATOM     14  C   UNL     1      35.150 -18.703 -23.486  0.00  0.00    +0.341 C 
BRANCH  14  15
ATOM     15  O   UNL     1      35.704 -18.732 -22.236  0.00  0.00    -0.445 OA
BRANCH  15  16
ATOM     16  C   UNL     1      35.227 -19.740 -21.340  0.00  0.00    +0.209 C 
BRANCH  16  17
ATOM     17  C   UNL     1      33.792 -19.417 -20.952  0.00  0.00    +0.047 C 
ATOM     18  C   UNL     1      33.154 -20.543 -20.159  0.00  0.00    +0.004 C 
ENDBRANCH  16  17
ENDBRANCH  15  16
ENDBRANCH  14  15
ENDBRANCH   1  14
TORSDOF 7
ENDMDL
MODEL 7
REMARK VINA RESULT:      -7.0      2.985      6.686
REMARK  Name = 4947
REMARK  7 active torsions:
REMARK  status: ('A' for Active; 'I' for Inactive)
REMARK    1  A    between atoms: C_1  and  C_14
REMARK    2  A    between atoms: C_4  and  O_7
REMARK    3  A    between atoms: C_5  and  O_9
REMARK    4  A    between atoms: C_6  and  O_11
REMARK    5  A    between atoms: C_14  and  O_15
REMARK    6  A    between atoms: O_15  and  C_16
REMARK    7  A    between atoms: C_16  and  C_17
REMARK                            x       y       z     vdW  Elec       q    Type
REMARK                         _______ _______ _______ _____ _____    ______ ____
ROOT
ATOM      1  C   UNL     1      34.512 -16.223 -22.545  0.00  0.00    +0.082 C 
ATOM      2  C   UNL     1      33.791 -15.064 -22.830  0.00  0.00    +0.046 C 
ATOM      3  C   UNL     1      34.892 -17.080 -23.577  0.00  0.00    +0.046 C 
ATOM      4  C   UNL     1      34.548 -16.779 -24.895  0.00  0.00    +0.171 C 
ATOM      5  C   UNL     1      33.448 -14.763 -24.148  0.00  0.00    +0.171 C 
ATOM      6  C   UNL     1      33.826 -15.619 -25.181  0.00  0.00    +0.202 C 
ENDROOT
BRANCH   4   7
ATOM      7  O   UNL     1      34.923 -17.626 -25.896  0.00  0.00    -0.503 OA
ATOM      8  H   UNL     1      35.827 -17.705 -26.128  0.00  0.00    +0.292 HD
ENDBRANCH   4   7
BRANCH   5   9
ATOM      9  O   UNL     1      32.740 -13.629 -24.412  0.00  0.00    -0.503 OA
ATOM     10  H   UNL     1      33.162 -12.895 -24.812  0.00  0.00    +0.292 HD
ENDBRANCH   5   9
BRANCH   6  11
ATOM     11  O   UNL     1      33.491 -15.325 -26.470  0.00  0.00    -0.501 OA
ATOM     12  H   UNL     1      33.542 -15.988 -27.130  0.00  0.00    +0.292 HD
ENDBRANCH   6  11
BRANCH   1  14
ATOM     13  O   UNL     1      34.958 -15.703 -20.261  0.00  0.00    -0.245 OA
ATOM     14  C   UNL     1      34.868 -16.538 -21.170  0.00  0.00    +0.341 C 
BRANCH  14  15
ATOM     15  O   UNL     1      35.089 -17.878 -21.002  0.00  0.00    -0.445 OA
BRANCH  15  16
ATOM     16  C   UNL     1      33.939 -18.729 -21.006  0.00  0.00    +0.209 C 
BRANCH  16  17
ATOM     17  C   UNL     1      34.367 -20.138 -20.624  0.00  0.00    +0.047 C 
ATOM     18  C   UNL     1      33.275 -20.876 -19.872  0.00  0.00    +0.004 C 
ENDBRANCH  16  17
ENDBRANCH  15  16
ENDBRANCH  14  15
ENDBRANCH   1  14
TORSDOF 7
ENDMDL
MODEL 8
REMARK VINA RESULT:      -7.0      2.987      6.827
REMARK  Name = 4947
REMARK  7 active torsions:
REMARK  status: ('A' for Active; 'I' for Inactive)
REMARK    1  A    between atoms: C_1  and  C_14
REMARK    2  A    between atoms: C_4  and  O_7
REMARK    3  A    between atoms: C_5  and  O_9
REMARK    4  A    between atoms: C_6  and  O_11
REMARK    5  A    between atoms: C_14  and  O_15
REMARK    6  A    between atoms: O_15  and  C_16
REMARK    7  A    between atoms: C_16  and  C_17
REMARK                            x       y       z     vdW  Elec       q    Type
REMARK                         _______ _______ _______ _____ _____    ______ ____
ROOT
ATOM      1  C   UNL     1      34.509 -16.218 -22.545  0.00  0.00    +0.082 C 
ATOM      2  C   UNL     1      34.884 -17.081 -23.574  0.00  0.00    +0.046 C 
ATOM      3  C   UNL     1      33.795 -15.057 -22.834  0.00  0.00    +0.046 C 
ATOM      4  C   UNL     1      33.456 -14.757 -24.153  0.00  0.00    +0.171 C 
ATOM      5  C   UNL     1      34.544 -16.782 -24.893  0.00  0.00    +0.171 C 
ATOM      6  C   UNL     1      33.830 -15.621 -25.183  0.00  0.00    +0.202 C 
ENDROOT
BRANCH   4   7
ATOM      7  O   UNL     1      32.759 -13.617 -24.424  0.00  0.00    -0.503 OA
ATOM      8  H   UNL     1      32.017 -13.646 -24.994  0.00  0.00    +0.292 HD
ENDBRANCH   4   7
BRANCH   5   9
ATOM      9  O   UNL     1      34.918 -17.633 -25.890  0.00  0.00    -0.503 OA
ATOM     10  H   UNL     1      35.525 -18.324 -25.713  0.00  0.00    +0.292 HD
ENDBRANCH   5   9
BRANCH   6  11
ATOM     11  O   UNL     1      33.497 -15.328 -26.473  0.00  0.00    -0.501 OA
ATOM     12  H   UNL     1      33.416 -16.016 -27.103  0.00  0.00    +0.292 HD
ENDBRANCH   6  11
BRANCH   1  14
ATOM     13  O   UNL     1      34.959 -15.691 -20.263  0.00  0.00    -0.245 OA
ATOM     14  C   UNL     1      34.866 -16.529 -21.169  0.00  0.00    +0.341 C 
BRANCH  14  15
ATOM     15  O   UNL     1      35.085 -17.869 -20.997  0.00  0.00    -0.445 OA
BRANCH  15  16
ATOM     16  C   UNL     1      33.934 -18.718 -21.003  0.00  0.00    +0.209 C 
BRANCH  16  17
ATOM     17  C   UNL     1      34.362 -20.132 -20.637  0.00  0.00    +0.047 C 
ATOM     18  C   UNL     1      33.279 -20.869 -19.871  0.00  0.00    +0.004 C 
ENDBRANCH  16  17
ENDBRANCH  15  16
ENDBRANCH  14  15
ENDBRANCH   1  14
TORSDOF 7
ENDMDL
MODEL 9
REMARK VINA RESULT:      -6.9      3.890      6.081
REMARK  Name = 4947
REMARK  7 active torsions:
REMARK  status: ('A' for Active; 'I' for Inactive)
REMARK    1  A    between atoms: C_1  and  C_14
REMARK    2  A    between atoms: C_4  and  O_7
REMARK    3  A    between atoms: C_5  and  O_9
REMARK    4  A    between atoms: C_6  and  O_11
REMARK    5  A    between atoms: C_14  and  O_15
REMARK    6  A    between atoms: O_15  and  C_16
REMARK    7  A    between atoms: C_16  and  C_17
REMARK                            x       y       z     vdW  Elec       q    Type
REMARK                         _______ _______ _______ _____ _____    ______ ____
ROOT
ATOM      1  C   UNL     1      32.505 -23.213 -16.613  0.00  0.00    +0.082 C 
ATOM      2  C   UNL     1      33.331 -23.451 -15.515  0.00  0.00    +0.046 C 
ATOM      3  C   UNL     1      31.132 -23.054 -16.431  0.00  0.00    +0.046 C 
ATOM      4  C   UNL     1      30.585 -23.135 -15.151  0.00  0.00    +0.171 C 
ATOM      5  C   UNL     1      32.784 -23.531 -14.235  0.00  0.00    +0.171 C 
ATOM      6  C   UNL     1      31.411 -23.373 -14.052  0.00  0.00    +0.202 C 
ENDROOT
BRANCH   4   7
ATOM      7  O   UNL     1      29.240 -22.981 -14.986  0.00  0.00    -0.503 OA
ATOM      8  H   UNL     1      28.887 -22.136 -14.789  0.00  0.00    +0.292 HD
ENDBRANCH   4   7
BRANCH   5   9
ATOM      9  O   UNL     1      33.602 -23.768 -13.171  0.00  0.00    -0.503 OA
ATOM     10  H   UNL     1      33.286 -23.639 -12.299  0.00  0.00    +0.292 HD
ENDBRANCH   5   9
BRANCH   6  11
ATOM     11  O   UNL     1      30.874 -23.452 -12.801  0.00  0.00    -0.501 OA
ATOM     12  H   UNL     1      30.247 -22.815 -12.519  0.00  0.00    +0.292 HD
ENDBRANCH   6  11
BRANCH   1  14
ATOM     13  O   UNL     1      33.840 -23.976 -18.436  0.00  0.00    -0.245 OA
ATOM     14  C   UNL     1      33.077 -23.132 -17.948  0.00  0.00    +0.341 C 
BRANCH  14  15
ATOM     15  O   UNL     1      32.665 -22.004 -18.604  0.00  0.00    -0.445 OA
BRANCH  15  16
ATOM     16  C   UNL     1      33.575 -21.437 -19.552  0.00  0.00    +0.209 C 
BRANCH  16  17
ATOM     17  C   UNL     1      32.884 -20.291 -20.274  0.00  0.00    +0.047 C 
ATOM     18  C   UNL     1      33.855 -19.493 -21.126  0.00  0.00    +0.004 C 
ENDBRANCH  16  17
ENDBRANCH  15  16
ENDBRANCH  14  15
ENDBRANCH   1  14
TORSDOF 7
ENDMDL
