MODEL 1
REMARK VINA RESULT:     -10.8      0.000      0.000
REMARK  Name = 68548
REMARK  3 active torsions:
REMARK  status: ('A' for Active; 'I' for Inactive)
REMARK    1  A    between atoms: C_5  and  C_15
REMARK    2  A    between atoms: C_10  and  S_21
REMARK    3  A    between atoms: S_21  and  N_24
REMARK                            x       y       z     vdW  Elec       q    Type
REMARK                         _______ _______ _______ _____ _____    ______ ____
ROOT
ATOM      1 CL   UNL     1      32.912 -25.067 -13.664  0.00  0.00    -0.081 Cl
ATOM      2  O   UNL     1      38.014 -21.537 -16.211  0.00  0.00    -0.270 OA
ATOM      3  N   UNL     1      34.355 -22.420 -17.776  0.00  0.00    -0.315 N 
ATOM      4  N   UNL     1      36.552 -21.464 -17.984  0.00  0.00    -0.283 N 
ATOM      5  C   UNL     1      35.413 -22.034 -18.692  0.00  0.00    +0.170 C 
ATOM      6  C   UNL     1      34.707 -22.936 -16.536  0.00  0.00    +0.051 C 
ATOM      7  C   UNL     1      35.979 -22.712 -15.987  0.00  0.00    +0.068 C 
ATOM      8  C   UNL     1      36.950 -21.868 -16.724  0.00  0.00    +0.248 C 
ATOM      9  C   UNL     1      36.321 -23.224 -14.729  0.00  0.00    +0.027 C 
ATOM     10  C   UNL     1      35.385 -23.961 -14.006  0.00  0.00    +0.132 C 
ATOM     11  C   UNL     1      33.774 -23.658 -15.781  0.00  0.00    +0.027 C 
ATOM     12  C   UNL     1      34.112 -24.173 -14.527  0.00  0.00    +0.077 C 
ATOM     13  H   UNL     1      33.408 -22.319 -18.029  0.00  0.00    +0.149 HD
ATOM     14  H   UNL     1      37.065 -20.751 -18.427  0.00  0.00    +0.152 HD
ENDROOT
BRANCH   5  15
ATOM     15  C   UNL     1      34.879 -21.081 -19.737  0.00  0.00    +0.014 C 
ATOM     16  C   UNL     1      35.762 -20.365 -20.546  0.00  0.00    -0.001 C 
ATOM     17  C   UNL     1      33.502 -20.916 -19.894  0.00  0.00    -0.001 C 
ATOM     18  C   UNL     1      35.270 -19.485 -21.510  0.00  0.00    -0.000 C 
ATOM     19  C   UNL     1      33.010 -20.035 -20.858  0.00  0.00    -0.000 C 
ATOM     20  C   UNL     1      33.893 -19.321 -21.666  0.00  0.00    -0.000 C 
ENDBRANCH   5  15
BRANCH  10  21
ATOM     21  S   UNL     1      35.863 -24.581 -12.438  0.00  0.00    +0.058 S 
ATOM     22  O   UNL     1      36.887 -23.668 -11.936  0.00  0.00    -0.153 OA
ATOM     23  O   UNL     1      34.617 -24.768 -11.702  0.00  0.00    -0.153 OA
BRANCH  21  24
ATOM     24  N   UNL     1      36.598 -26.121 -12.650  0.00  0.00    -0.203 NA
ATOM     25  H   UNL     1      37.405 -26.201 -12.031  0.00  0.00    +0.144 HD
ATOM     26  H   UNL     1      36.903 -26.221 -13.618  0.00  0.00    +0.144 HD
ENDBRANCH  21  24
ENDBRANCH  10  21
TORSDOF 3
ENDMDL
MODEL 2
REMARK VINA RESULT:     -10.5      2.812      3.356
REMARK  Name = 68548
REMARK  3 active torsions:
REMARK  status: ('A' for Active; 'I' for Inactive)
REMARK    1  A    between atoms: C_5  and  C_15
REMARK    2  A    between atoms: C_10  and  S_21
REMARK    3  A    between atoms: S_21  and  N_24
REMARK                            x       y       z     vdW  Elec       q    Type
REMARK                         _______ _______ _______ _____ _____    ______ ____
ROOT
ATOM      1 CL   UNL     1      28.877 -23.120 -15.746  0.00  0.00    -0.081 Cl
ATOM      2  O   UNL     1      35.552 -23.508 -16.269  0.00  0.00    -0.270 OA
ATOM      3  N   UNL     1      32.803 -21.693 -18.671  0.00  0.00    -0.315 N 
ATOM      4  N   UNL     1      35.065 -22.363 -18.202  0.00  0.00    -0.283 N 
ATOM      5  C   UNL     1      34.103 -22.005 -19.237  0.00  0.00    +0.170 C 
ATOM      6  C   UNL     1      32.371 -22.416 -17.567  0.00  0.00    +0.051 C 
ATOM      7  C   UNL     1      33.276 -23.110 -16.749  0.00  0.00    +0.068 C 
ATOM      8  C   UNL     1      34.727 -23.032 -17.042  0.00  0.00    +0.248 C 
ATOM      9  C   UNL     1      32.832 -23.825 -15.629  0.00  0.00    +0.027 C 
ATOM     10  C   UNL     1      31.475 -23.842 -15.314  0.00  0.00    +0.132 C 
ATOM     11  C   UNL     1      31.013 -22.428 -17.217  0.00  0.00    +0.027 C 
ATOM     12  C   UNL     1      30.567 -23.141 -16.102  0.00  0.00    +0.077 C 
ATOM     13  H   UNL     1      32.240 -20.986 -19.061  0.00  0.00    +0.149 HD
ATOM     14  H   UNL     1      36.007 -22.115 -18.338  0.00  0.00    +0.152 HD
ENDROOT
BRANCH   5  15
ATOM     15  C   UNL     1      34.600 -20.849 -20.076  0.00  0.00    +0.014 C 
ATOM     16  C   UNL     1      35.961 -20.548 -20.114  0.00  0.00    -0.001 C 
ATOM     17  C   UNL     1      33.696 -20.082 -20.813  0.00  0.00    -0.001 C 
ATOM     18  C   UNL     1      36.419 -19.481 -20.888  0.00  0.00    -0.000 C 
ATOM     19  C   UNL     1      34.154 -19.015 -21.586  0.00  0.00    -0.000 C 
ATOM     20  C   UNL     1      35.515 -18.715 -21.624  0.00  0.00    -0.000 C 
ENDBRANCH   5  15
BRANCH  10  21
ATOM     21  S   UNL     1      30.972 -24.752 -13.903  0.00  0.00    +0.058 S 
ATOM     22  O   UNL     1      30.440 -23.774 -12.958  0.00  0.00    -0.153 OA
ATOM     23  O   UNL     1      30.119 -25.819 -14.417  0.00  0.00    -0.153 OA
BRANCH  21  24
ATOM     24  N   UNL     1      32.357 -25.472 -13.183  0.00  0.00    -0.203 NA
ATOM     25  H   UNL     1      32.691 -24.880 -12.422  0.00  0.00    +0.144 HD
ATOM     26  H   UNL     1      33.092 -25.570 -13.883  0.00  0.00    +0.144 HD
ENDBRANCH  21  24
ENDBRANCH  10  21
TORSDOF 3
ENDMDL
MODEL 3
REMARK VINA RESULT:     -10.2      8.490     11.545
REMARK  Name = 68548
REMARK  3 active torsions:
REMARK  status: ('A' for Active; 'I' for Inactive)
REMARK    1  A    between atoms: C_5  and  C_15
REMARK    2  A    between atoms: C_10  and  S_21
REMARK    3  A    between atoms: S_21  and  N_24
REMARK                            x       y       z     vdW  Elec       q    Type
REMARK                         _______ _______ _______ _____ _____    ______ ____
ROOT
ATOM      1 CL   UNL     1      32.845 -12.427 -23.275  0.00  0.00    -0.081 Cl
ATOM      2  O   UNL     1      34.587 -18.348 -25.900  0.00  0.00    -0.270 OA
ATOM      3  N   UNL     1      34.287 -17.153 -22.014  0.00  0.00    -0.315 N 
ATOM      4  N   UNL     1      34.873 -18.802 -23.665  0.00  0.00    -0.283 N 
ATOM      5  C   UNL     1      35.100 -18.319 -22.308  0.00  0.00    +0.170 C 
ATOM      6  C   UNL     1      34.057 -16.233 -23.029  0.00  0.00    +0.051 C 
ATOM      7  C   UNL     1      34.211 -16.583 -24.379  0.00  0.00    +0.068 C 
ATOM      8  C   UNL     1      34.582 -17.974 -24.732  0.00  0.00    +0.248 C 
ATOM      9  C   UNL     1      33.963 -15.653 -25.397  0.00  0.00    +0.027 C 
ATOM     10  C   UNL     1      33.549 -14.363 -25.068  0.00  0.00    +0.132 C 
ATOM     11  C   UNL     1      33.616 -14.939 -22.722  0.00  0.00    +0.027 C 
ATOM     12  C   UNL     1      33.370 -14.007 -23.734  0.00  0.00    +0.077 C 
ATOM     13  H   UNL     1      33.909 -17.016 -21.116  0.00  0.00    +0.149 HD
ATOM     14  H   UNL     1      34.930 -19.770 -23.829  0.00  0.00    +0.152 HD
ENDROOT
BRANCH   5  15
ATOM     15  C   UNL     1      34.846 -19.405 -21.286  0.00  0.00    +0.014 C 
ATOM     16  C   UNL     1      35.919 -20.055 -20.676  0.00  0.00    -0.001 C 
ATOM     17  C   UNL     1      33.537 -19.758 -20.953  0.00  0.00    -0.001 C 
ATOM     18  C   UNL     1      35.685 -21.057 -19.734  0.00  0.00    -0.000 C 
ATOM     19  C   UNL     1      33.303 -20.760 -20.011  0.00  0.00    -0.000 C 
ATOM     20  C   UNL     1      34.376 -21.409 -19.402  0.00  0.00    -0.000 C 
ENDBRANCH   5  15
BRANCH  10  21
ATOM     21  S   UNL     1      33.252 -13.237 -26.378  0.00  0.00    +0.058 S 
ATOM     22  O   UNL     1      31.843 -13.387 -26.730  0.00  0.00    -0.153 OA
ATOM     23  O   UNL     1      33.762 -11.954 -25.905  0.00  0.00    -0.153 OA
BRANCH  21  24
ATOM     24  N   UNL     1      34.183 -13.715 -27.742  0.00  0.00    -0.203 NA
ATOM     25  H   UNL     1      34.911 -13.022 -27.917  0.00  0.00    +0.144 HD
ATOM     26  H   UNL     1      33.578 -13.785 -28.559  0.00  0.00    +0.144 HD
ENDBRANCH  21  24
ENDBRANCH  10  21
TORSDOF 3
ENDMDL
MODEL 4
REMARK VINA RESULT:     -10.1      7.838     10.630
REMARK  Name = 68548
REMARK  3 active torsions:
REMARK  status: ('A' for Active; 'I' for Inactive)
REMARK    1  A    between atoms: C_5  and  C_15
REMARK    2  A    between atoms: C_10  and  S_21
REMARK    3  A    between atoms: S_21  and  N_24
REMARK                            x       y       z     vdW  Elec       q    Type
REMARK                         _______ _______ _______ _____ _____    ______ ____
ROOT
ATOM      1 CL   UNL     1      32.508 -12.805 -20.985  0.00  0.00    -0.081 Cl
ATOM      2  O   UNL     1      35.020 -17.712 -24.805  0.00  0.00    -0.270 OA
ATOM      3  N   UNL     1      34.342 -17.559 -20.789  0.00  0.00    -0.315 N 
ATOM      4  N   UNL     1      35.202 -18.686 -22.731  0.00  0.00    -0.283 N 
ATOM      5  C   UNL     1      35.288 -18.543 -21.284  0.00  0.00    +0.170 C 
ATOM      6  C   UNL     1      34.086 -16.437 -21.565  0.00  0.00    +0.051 C 
ATOM      7  C   UNL     1      34.365 -16.422 -22.940  0.00  0.00    +0.068 C 
ATOM      8  C   UNL     1      34.899 -17.644 -23.586  0.00  0.00    +0.248 C 
ATOM      9  C   UNL     1      34.090 -15.290 -23.719  0.00  0.00    +0.027 C 
ATOM     10  C   UNL     1      33.525 -14.164 -23.125  0.00  0.00    +0.132 C 
ATOM     11  C   UNL     1      33.495 -15.302 -20.993  0.00  0.00    +0.027 C 
ATOM     12  C   UNL     1      33.222 -14.170 -21.766  0.00  0.00    +0.077 C 
ATOM     13  H   UNL     1      33.892 -17.684 -19.921  0.00  0.00    +0.149 HD
ATOM     14  H   UNL     1      35.369 -19.574 -23.121  0.00  0.00    +0.152 HD
ENDROOT
BRANCH   5  15
ATOM     15  C   UNL     1      35.079 -19.867 -20.584  0.00  0.00    +0.014 C 
ATOM     16  C   UNL     1      33.787 -20.320 -20.317  0.00  0.00    -0.001 C 
ATOM     17  C   UNL     1      36.180 -20.638 -20.206  0.00  0.00    -0.001 C 
ATOM     18  C   UNL     1      33.595 -21.542 -19.672  0.00  0.00    -0.000 C 
ATOM     19  C   UNL     1      35.987 -21.860 -19.560  0.00  0.00    -0.000 C 
ATOM     20  C   UNL     1      34.695 -22.312 -19.294  0.00  0.00    -0.000 C 
ENDBRANCH   5  15
BRANCH  10  21
ATOM     21  S   UNL     1      33.202 -12.774 -24.142  0.00  0.00    +0.058 S 
ATOM     22  O   UNL     1      33.312 -13.245 -25.520  0.00  0.00    -0.153 OA
ATOM     23  O   UNL     1      31.945 -12.221 -23.650  0.00  0.00    -0.153 OA
BRANCH  21  24
ATOM     24  N   UNL     1      34.438 -11.604 -23.892  0.00  0.00    -0.203 NA
ATOM     25  H   UNL     1      34.187 -11.007 -23.104  0.00  0.00    +0.144 HD
ATOM     26  H   UNL     1      34.540 -11.033 -24.731  0.00  0.00    +0.144 HD
ENDBRANCH  21  24
ENDBRANCH  10  21
TORSDOF 3
ENDMDL
MODEL 5
REMARK VINA RESULT:      -9.9      3.560      5.088
REMARK  Name = 68548
REMARK  3 active torsions:
REMARK  status: ('A' for Active; 'I' for Inactive)
REMARK    1  A    between atoms: C_5  and  C_15
REMARK    2  A    between atoms: C_10  and  S_21
REMARK    3  A    between atoms: S_21  and  N_24
REMARK                            x       y       z     vdW  Elec       q    Type
REMARK                         _______ _______ _______ _____ _____    ______ ____
ROOT
ATOM      1 CL   UNL     1      35.748 -24.698 -11.505  0.00  0.00    -0.081 Cl
ATOM      2  O   UNL     1      34.261 -22.945 -17.806  0.00  0.00    -0.270 OA
ATOM      3  N   UNL     1      31.832 -23.846 -14.658  0.00  0.00    -0.315 N 
ATOM      4  N   UNL     1      32.146 -23.307 -16.981  0.00  0.00    -0.283 N 
ATOM      5  C   UNL     1      31.277 -23.939 -15.996  0.00  0.00    +0.170 C 
ATOM      6  C   UNL     1      33.209 -23.940 -14.504  0.00  0.00    +0.051 C 
ATOM      7  C   UNL     1      34.081 -23.702 -15.577  0.00  0.00    +0.068 C 
ATOM      8  C   UNL     1      33.524 -23.296 -16.890  0.00  0.00    +0.248 C 
ATOM      9  C   UNL     1      35.469 -23.785 -15.409  0.00  0.00    +0.027 C 
ATOM     10  C   UNL     1      35.996 -24.101 -14.158  0.00  0.00    +0.132 C 
ATOM     11  C   UNL     1      33.761 -24.232 -13.249  0.00  0.00    +0.027 C 
ATOM     12  C   UNL     1      35.145 -24.318 -13.078  0.00  0.00    +0.077 C 
ATOM     13  H   UNL     1      31.246 -23.720 -13.877  0.00  0.00    +0.149 HD
ATOM     14  H   UNL     1      31.727 -22.863 -17.753  0.00  0.00    +0.152 HD
ENDROOT
BRANCH   5  15
ATOM     15  C   UNL     1      29.885 -23.348 -16.028  0.00  0.00    +0.014 C 
ATOM     16  C   UNL     1      29.434 -22.565 -14.964  0.00  0.00    -0.001 C 
ATOM     17  C   UNL     1      29.051 -23.584 -17.121  0.00  0.00    -0.001 C 
ATOM     18  C   UNL     1      28.151 -22.020 -14.993  0.00  0.00    -0.000 C 
ATOM     19  C   UNL     1      27.767 -23.039 -17.150  0.00  0.00    -0.000 C 
ATOM     20  C   UNL     1      27.317 -22.257 -16.086  0.00  0.00    -0.000 C 
ENDBRANCH   5  15
BRANCH  10  21
ATOM     21  S   UNL     1      37.739 -24.193 -14.001  0.00  0.00    +0.058 S 
ATOM     22  O   UNL     1      38.109 -23.201 -12.996  0.00  0.00    -0.153 OA
ATOM     23  O   UNL     1      38.031 -25.607 -13.785  0.00  0.00    -0.153 OA
BRANCH  21  24
ATOM     24  N   UNL     1      38.456 -23.719 -15.490  0.00  0.00    -0.203 NA
ATOM     25  H   UNL     1      39.180 -23.022 -15.312  0.00  0.00    +0.144 HD
ATOM     26  H   UNL     1      37.743 -23.320 -16.099  0.00  0.00    +0.144 HD
ENDBRANCH  21  24
ENDBRANCH  10  21
TORSDOF 3
ENDMDL
MODEL 6
REMARK VINA RESULT:      -9.8     11.883     14.964
REMARK  Name = 68548
REMARK  3 active torsions:
REMARK  status: ('A' for Active; 'I' for Inactive)
REMARK    1  A    between atoms: C_5  and  C_15
REMARK    2  A    between atoms: C_10  and  S_21
REMARK    3  A    between atoms: S_21  and  N_24
REMARK                            x       y       z     vdW  Elec       q    Type
REMARK                         _______ _______ _______ _____ _____    ______ ____
ROOT
ATOM      1 CL   UNL     1      34.638  -7.040 -24.404  0.00  0.00    -0.081 Cl
ATOM      2  O   UNL     1      30.477 -11.370 -21.419  0.00  0.00    -0.270 OA
ATOM      3  N   UNL     1      33.877 -12.013 -23.573  0.00  0.00    -0.315 N 
ATOM      4  N   UNL     1      31.947 -12.840 -22.400  0.00  0.00    -0.283 N 
ATOM      5  C   UNL     1      32.944 -13.115 -23.427  0.00  0.00    +0.170 C 
ATOM      6  C   UNL     1      33.401 -10.717 -23.425  0.00  0.00    +0.051 C 
ATOM      7  C   UNL     1      32.201 -10.455 -22.746  0.00  0.00    +0.068 C 
ATOM      8  C   UNL     1      31.450 -11.578 -22.136  0.00  0.00    +0.248 C 
ATOM      9  C   UNL     1      31.734  -9.143 -22.589  0.00  0.00    +0.027 C 
ATOM     10  C   UNL     1      32.474  -8.081 -23.104  0.00  0.00    +0.132 C 
ATOM     11  C   UNL     1      34.141  -9.632 -23.914  0.00  0.00    +0.027 C 
ATOM     12  C   UNL     1      33.678  -8.323 -23.760  0.00  0.00    +0.077 C 
ATOM     13  H   UNL     1      34.826 -12.180 -23.775  0.00  0.00    +0.149 HD
ATOM     14  H   UNL     1      31.610 -13.593 -21.866  0.00  0.00    +0.152 HD
ENDROOT
BRANCH   5  15
ATOM     15  C   UNL     1      33.691 -14.399 -23.141  0.00  0.00    +0.014 C 
ATOM     16  C   UNL     1      33.999 -15.275 -24.182  0.00  0.00    -0.001 C 
ATOM     17  C   UNL     1      34.072 -14.708 -21.834  0.00  0.00    -0.001 C 
ATOM     18  C   UNL     1      34.687 -16.459 -23.918  0.00  0.00    -0.000 C 
ATOM     19  C   UNL     1      34.761 -15.893 -21.571  0.00  0.00    -0.000 C 
ATOM     20  C   UNL     1      35.069 -16.768 -22.612  0.00  0.00    -0.000 C 
ENDBRANCH   5  15
BRANCH  10  21
ATOM     21  S   UNL     1      31.847  -6.459 -22.881  0.00  0.00    +0.058 S 
ATOM     22  O   UNL     1      30.395  -6.592 -22.813  0.00  0.00    -0.153 OA
ATOM     23  O   UNL     1      32.592  -5.911 -21.753  0.00  0.00    -0.153 OA
BRANCH  21  24
ATOM     24  N   UNL     1      32.219  -5.524 -24.275  0.00  0.00    -0.203 NA
ATOM     25  H   UNL     1      31.435  -5.560 -24.928  0.00  0.00    +0.144 HD
ATOM     26  H   UNL     1      33.052  -5.901 -24.725  0.00  0.00    +0.144 HD
ENDBRANCH  21  24
ENDBRANCH  10  21
TORSDOF 3
ENDMDL
MODEL 7
REMARK VINA RESULT:      -9.7      4.055      6.531
REMARK  Name = 68548
REMARK  3 active torsions:
REMARK  status: ('A' for Active; 'I' for Inactive)
REMARK    1  A    between atoms: C_5  and  C_15
REMARK    2  A    between atoms: C_10  and  S_21
REMARK    3  A    between atoms: S_21  and  N_24
REMARK                            x       y       z     vdW  Elec       q    Type
REMARK                         _______ _______ _______ _____ _____    ______ ____
ROOT
ATOM      1 CL   UNL     1      30.071 -24.472 -13.093  0.00  0.00    -0.081 Cl
ATOM      2  O   UNL     1      34.553 -22.757 -17.778  0.00  0.00    -0.270 OA
ATOM      3  N   UNL     1      35.081 -24.216 -14.009  0.00  0.00    -0.315 N 
ATOM      4  N   UNL     1      35.969 -23.327 -16.059  0.00  0.00    -0.283 N 
ATOM      5  C   UNL     1      36.192 -23.520 -14.632  0.00  0.00    +0.170 C 
ATOM      6  C   UNL     1      33.795 -23.953 -14.463  0.00  0.00    +0.051 C 
ATOM      7  C   UNL     1      33.570 -23.390 -15.728  0.00  0.00    +0.068 C 
ATOM      8  C   UNL     1      34.723 -23.114 -16.617  0.00  0.00    +0.248 C 
ATOM      9  C   UNL     1      32.269 -23.141 -16.184  0.00  0.00    +0.027 C 
ATOM     10  C   UNL     1      31.180 -23.463 -15.376  0.00  0.00    +0.132 C 
ATOM     11  C   UNL     1      32.685 -24.291 -13.677  0.00  0.00    +0.027 C 
ATOM     12  C   UNL     1      31.387 -24.042 -14.126  0.00  0.00    +0.077 C 
ATOM     13  H   UNL     1      35.235 -24.860 -13.279  0.00  0.00    +0.149 HD
ATOM     14  H   UNL     1      36.749 -23.350 -16.658  0.00  0.00    +0.152 HD
ENDROOT
BRANCH   5  15
ATOM     15  C   UNL     1      37.486 -24.258 -14.370  0.00  0.00    +0.014 C 
ATOM     16  C   UNL     1      38.519 -24.210 -15.305  0.00  0.00    -0.001 C 
ATOM     17  C   UNL     1      37.647 -24.988 -13.191  0.00  0.00    -0.001 C 
ATOM     18  C   UNL     1      39.712 -24.891 -15.064  0.00  0.00    -0.000 C 
ATOM     19  C   UNL     1      38.840 -25.670 -12.950  0.00  0.00    -0.000 C 
ATOM     20  C   UNL     1      39.873 -25.621 -13.886  0.00  0.00    -0.000 C 
ENDBRANCH   5  15
BRANCH  10  21
ATOM     21  S   UNL     1      29.574 -23.130 -15.992  0.00  0.00    +0.058 S 
ATOM     22  O   UNL     1      29.762 -22.429 -17.259  0.00  0.00    -0.153 OA
ATOM     23  O   UNL     1      28.874 -24.410 -15.954  0.00  0.00    -0.153 OA
BRANCH  21  24
ATOM     24  N   UNL     1      28.778 -22.052 -14.914  0.00  0.00    -0.203 NA
ATOM     25  H   UNL     1      29.469 -21.593 -14.321  0.00  0.00    +0.144 HD
ATOM     26  H   UNL     1      28.124 -22.574 -14.332  0.00  0.00    +0.144 HD
ENDBRANCH  21  24
ENDBRANCH  10  21
TORSDOF 3
ENDMDL
MODEL 8
REMARK VINA RESULT:      -9.5      8.946     11.885
REMARK  Name = 68548
REMARK  3 active torsions:
REMARK  status: ('A' for Active; 'I' for Inactive)
REMARK    1  A    between atoms: C_5  and  C_15
REMARK    2  A    between atoms: C_10  and  S_21
REMARK    3  A    between atoms: S_21  and  N_24
REMARK                            x       y       z     vdW  Elec       q    Type
REMARK                         _______ _______ _______ _____ _____    ______ ____
ROOT
ATOM      1 CL   UNL     1      35.288 -17.157 -20.704  0.00  0.00    -0.081 Cl
ATOM      2  O   UNL     1      33.606 -14.430 -26.596  0.00  0.00    -0.270 OA
ATOM      3  N   UNL     1      33.947 -12.753 -22.897  0.00  0.00    -0.315 N 
ATOM      4  N   UNL     1      33.364 -12.601 -25.225  0.00  0.00    -0.283 N 
ATOM      5  C   UNL     1      33.150 -12.056 -23.890  0.00  0.00    +0.170 C 
ATOM      6  C   UNL     1      34.145 -14.119 -23.045  0.00  0.00    +0.051 C 
ATOM      7  C   UNL     1      33.976 -14.750 -24.287  0.00  0.00    +0.068 C 
ATOM      8  C   UNL     1      33.623 -13.935 -25.474  0.00  0.00    +0.248 C 
ATOM      9  C   UNL     1      34.192 -16.126 -24.431  0.00  0.00    +0.027 C 
ATOM     10  C   UNL     1      34.589 -16.882 -23.329  0.00  0.00    +0.132 C 
ATOM     11  C   UNL     1      34.568 -14.894 -21.957  0.00  0.00    +0.027 C 
ATOM     12  C   UNL     1      34.783 -16.267 -22.095  0.00  0.00    +0.077 C 
ATOM     13  H   UNL     1      34.337 -12.268 -22.133  0.00  0.00    +0.149 HD
ATOM     14  H   UNL     1      33.321 -11.985 -25.991  0.00  0.00    +0.152 HD
ENDROOT
BRANCH   5  15
ATOM     15  C   UNL     1      33.439 -10.572 -23.847  0.00  0.00    +0.014 C 
ATOM     16  C   UNL     1      32.506  -9.695 -23.294  0.00  0.00    -0.001 C 
ATOM     17  C   UNL     1      34.639 -10.079 -24.360  0.00  0.00    -0.001 C 
ATOM     18  C   UNL     1      32.772  -8.326 -23.255  0.00  0.00    -0.000 C 
ATOM     19  C   UNL     1      34.905  -8.711 -24.320  0.00  0.00    -0.000 C 
ATOM     20  C   UNL     1      33.972  -7.834 -23.768  0.00  0.00    -0.000 C 
ENDBRANCH   5  15
BRANCH  10  21
ATOM     21  S   UNL     1      34.845 -18.600 -23.562  0.00  0.00    +0.058 S 
ATOM     22  O   UNL     1      34.200 -18.938 -24.828  0.00  0.00    -0.153 OA
ATOM     23  O   UNL     1      36.279 -18.802 -23.387  0.00  0.00    -0.153 OA
BRANCH  21  24
ATOM     24  N   UNL     1      34.026 -19.457 -22.316  0.00  0.00    -0.203 NA
ATOM     25  H   UNL     1      33.252 -19.985 -22.719  0.00  0.00    +0.144 HD
ATOM     26  H   UNL     1      33.665 -18.795 -21.629  0.00  0.00    +0.144 HD
ENDBRANCH  21  24
ENDBRANCH  10  21
TORSDOF 3
ENDMDL
MODEL 9
REMARK VINA RESULT:      -9.5      8.882     11.615
REMARK  Name = 68548
REMARK  3 active torsions:
REMARK  status: ('A' for Active; 'I' for Inactive)
REMARK    1  A    between atoms: C_5  and  C_15
REMARK    2  A    between atoms: C_10  and  S_21
REMARK    3  A    between atoms: S_21  and  N_24
REMARK                            x       y       z     vdW  Elec       q    Type
REMARK                         _______ _______ _______ _____ _____    ______ ____
ROOT
ATOM      1 CL   UNL     1      34.090 -18.164 -20.961  0.00  0.00    -0.081 Cl
ATOM      2  O   UNL     1      33.698 -12.863 -25.050  0.00  0.00    -0.270 OA
ATOM      3  N   UNL     1      32.497 -13.325 -21.182  0.00  0.00    -0.315 N 
ATOM      4  N   UNL     1      32.632 -12.018 -23.197  0.00  0.00    -0.283 N 
ATOM      5  C   UNL     1      31.902 -12.252 -21.958  0.00  0.00    +0.170 C 
ATOM      6  C   UNL     1      33.042 -14.408 -21.860  0.00  0.00    +0.051 C 
ATOM      7  C   UNL     1      33.411 -14.313 -23.210  0.00  0.00    +0.068 C 
ATOM      8  C   UNL     1      33.257 -13.018 -23.916  0.00  0.00    +0.248 C 
ATOM      9  C   UNL     1      33.973 -15.406 -23.882  0.00  0.00    +0.027 C 
ATOM     10  C   UNL     1      34.180 -16.603 -23.200  0.00  0.00    +0.132 C 
ATOM     11  C   UNL     1      33.282 -15.614 -21.187  0.00  0.00    +0.027 C 
ATOM     12  C   UNL     1      33.841 -16.707 -21.854  0.00  0.00    +0.077 C 
ATOM     13  H   UNL     1      32.513 -13.288 -20.199  0.00  0.00    +0.149 HD
ATOM     14  H   UNL     1      32.683 -11.098 -23.540  0.00  0.00    +0.152 HD
ENDROOT
BRANCH   5  15
ATOM     15  C   UNL     1      31.811 -10.993 -21.125  0.00  0.00    +0.014 C 
ATOM     16  C   UNL     1      32.059  -9.750 -21.708  0.00  0.00    -0.001 C 
ATOM     17  C   UNL     1      31.479 -11.073 -19.771  0.00  0.00    -0.001 C 
ATOM     18  C   UNL     1      31.976  -8.588 -20.940  0.00  0.00    -0.000 C 
ATOM     19  C   UNL     1      31.396  -9.911 -19.003  0.00  0.00    -0.000 C 
ATOM     20  C   UNL     1      31.644  -8.669 -19.587  0.00  0.00    -0.000 C 
ENDBRANCH   5  15
BRANCH  10  21
ATOM     21  S   UNL     1      34.886 -17.941 -24.086  0.00  0.00    +0.058 S 
ATOM     22  O   UNL     1      34.011 -19.087 -23.856  0.00  0.00    -0.153 OA
ATOM     23  O   UNL     1      35.101 -17.436 -25.438  0.00  0.00    -0.153 OA
BRANCH  21  24
ATOM     24  N   UNL     1      36.420 -18.312 -23.402  0.00  0.00    -0.203 NA
ATOM     25  H   UNL     1      36.932 -18.930 -24.031  0.00  0.00    +0.144 HD
ATOM     26  H   UNL     1      36.287 -18.776 -22.503  0.00  0.00    +0.144 HD
ENDBRANCH  21  24
ENDBRANCH  10  21
TORSDOF 3
ENDMDL
