MODEL 1
REMARK VINA RESULT:     -11.2      0.000      0.000
REMARK  Name = 9547915
REMARK  9 active torsions:
REMARK  status: ('A' for Active; 'I' for Inactive)
REMARK    1  A    between atoms: C_1  and  C_4
REMARK    2  A    between atoms: C_1  and  N_8
REMARK    3  A    between atoms: C_1  and  C_24
REMARK    4  A    between atoms: C_9  and  C_11
REMARK    5  A    between atoms: C_11  and  N_13
REMARK    6  A    between atoms: C_11  and  C_17
REMARK    7  A    between atoms: C_17  and  C_18
REMARK    8  A    between atoms: C_24  and  C_28
REMARK    9  A    between atoms: C_25  and  C_36
REMARK                            x       y       z     vdW  Elec       q    Type
REMARK                         _______ _______ _______ _____ _____    ______ ____
ROOT
ATOM      1  C   UNL     1      35.036 -18.509 -21.030  0.00  0.00    +0.153 C 
ENDROOT
BRANCH   1   4
ATOM      2  O   UNL     1      37.397 -19.083 -20.996  0.00  0.00    -0.274 OA
ATOM      3  N   UNL     1      36.511 -18.194 -22.919  0.00  0.00    -0.327 N 
ATOM      4  C   UNL     1      36.438 -18.621 -21.610  0.00  0.00    +0.238 C 
ATOM      5  H   UNL     1      37.370 -18.221 -23.399  0.00  0.00    +0.145 HD
ATOM      6  H   UNL     1      35.703 -17.863 -23.375  0.00  0.00    +0.145 HD
ENDBRANCH   1   4
BRANCH   1   8
ATOM      7  O   UNL     1      35.046 -15.843 -19.907  0.00  0.00    -0.273 OA
ATOM      8  N   UNL     1      34.437 -17.320 -21.592  0.00  0.00    -0.297 N 
ATOM      9  C   UNL     1      34.493 -16.076 -20.979  0.00  0.00    +0.241 C 
ATOM     10  H   UNL     1      33.966 -17.396 -22.453  0.00  0.00    +0.150 HD
BRANCH   9  11
ATOM     11  C   UNL     1      33.729 -15.018 -21.767  0.00  0.00    +0.153 C 
BRANCH  11  13
ATOM     12  O   UNL     1      34.141 -13.588 -24.260  0.00  0.00    -0.275 OA
ATOM     13  N   UNL     1      33.557 -15.524 -23.105  0.00  0.00    -0.298 N 
ATOM     14  C   UNL     1      33.779 -14.761 -24.241  0.00  0.00    +0.223 C 
ATOM     15  C   UNL     1      33.551 -15.541 -25.509  0.00  0.00    +0.095 C 
ATOM     16  H   UNL     1      33.267 -16.458 -23.219  0.00  0.00    +0.150 HD
ENDBRANCH  11  13
BRANCH  11  17
ATOM     17  C   UNL     1      32.389 -14.712 -21.087  0.00  0.00    +0.055 C 
BRANCH  17  18
ATOM     18  C   UNL     1      32.092 -13.234 -21.022  0.00  0.00    -0.020 C 
ATOM     19  C   UNL     1      32.004 -12.612 -19.786  0.00  0.00    -0.004 C 
ATOM     20  C   UNL     1      31.911 -12.524 -22.199  0.00  0.00    -0.004 C 
ATOM     21  C   UNL     1      31.728 -11.246 -19.726  0.00  0.00    -0.000 C 
ATOM     22  C   UNL     1      31.635 -11.158 -22.138  0.00  0.00    -0.000 C 
ATOM     23  C   UNL     1      31.544 -10.519 -20.902  0.00  0.00    -0.000 C 
ENDBRANCH  17  18
ENDBRANCH  11  17
ENDBRANCH   9  11
ENDBRANCH   1   8
BRANCH   1  24
ATOM     24  C   UNL     1      34.225 -19.771 -21.344  0.00  0.00    +0.055 C 
BRANCH  24  28
ATOM     25  C   UNL     1      34.015 -22.476 -18.033  0.00  0.00    +0.002 C 
ATOM     26  C   UNL     1      32.848 -21.912 -18.548  0.00  0.00    -0.003 C 
ATOM     27  C   UNL     1      35.251 -22.158 -18.597  0.00  0.00    -0.003 C 
ATOM     28  C   UNL     1      34.152 -20.724 -20.176  0.00  0.00    -0.020 C 
ATOM     29  C   UNL     1      32.917 -21.031 -19.627  0.00  0.00    -0.004 C 
ATOM     30  C   UNL     1      35.319 -21.276 -19.675  0.00  0.00    -0.004 C 
BRANCH  25  36
ATOM     31  S   UNL     1      35.335 -23.123 -15.783  0.00  0.00    +0.059 S 
ATOM     32  O   UNL     1      36.452 -23.951 -16.188  0.00  0.00    -0.154 OA
ATOM     33  O   UNL     1      35.472 -21.706 -15.518  0.00  0.00    -0.154 OA
ATOM     34  O   UNL     1      32.383 -24.721 -13.941  0.00  0.00    -0.273 OA
ATOM     35  N   UNL     1      34.514 -23.865 -14.453  0.00  0.00    -0.188 N 
ATOM     36  C   UNL     1      33.941 -23.426 -16.869  0.00  0.00    +0.180 C 
ATOM     37  C   UNL     1      32.698 -23.395 -15.960  0.00  0.00    +0.117 C 
ATOM     38  C   UNL     1      33.119 -24.083 -14.677  0.00  0.00    +0.243 C 
ATOM     39  H   UNL     1      34.968 -24.115 -13.614  0.00  0.00    +0.176 HD
ENDBRANCH  25  36
ENDBRANCH  24  28
ENDBRANCH   1  24
TORSDOF 9
ENDMDL
MODEL 2
REMARK VINA RESULT:     -11.1      5.065     11.141
REMARK  Name = 9547915
REMARK  9 active torsions:
REMARK  status: ('A' for Active; 'I' for Inactive)
REMARK    1  A    between atoms: C_1  and  C_4
REMARK    2  A    between atoms: C_1  and  N_8
REMARK    3  A    between atoms: C_1  and  C_24
REMARK    4  A    between atoms: C_9  and  C_11
REMARK    5  A    between atoms: C_11  and  N_13
REMARK    6  A    between atoms: C_11  and  C_17
REMARK    7  A    between atoms: C_17  and  C_18
REMARK    8  A    between atoms: C_24  and  C_28
REMARK    9  A    between atoms: C_25  and  C_36
REMARK                            x       y       z     vdW  Elec       q    Type
REMARK                         _______ _______ _______ _____ _____    ______ ____
ROOT
ATOM      1  C   UNL     1      33.122 -14.407 -24.526  0.00  0.00    +0.153 C 
ENDROOT
BRANCH   1   4
ATOM      2  O   UNL     1      33.247 -16.376 -25.946  0.00  0.00    -0.274 OA
ATOM      3  N   UNL     1      33.439 -14.306 -26.921  0.00  0.00    -0.327 N 
ATOM      4  C   UNL     1      33.288 -15.152 -25.843  0.00  0.00    +0.238 C 
ATOM      5  H   UNL     1      33.554 -14.676 -27.826  0.00  0.00    +0.145 HD
ATOM      6  H   UNL     1      33.432 -13.330 -26.786  0.00  0.00    +0.145 HD
ENDBRANCH   1   4
BRANCH   1   8
ATOM      7  O   UNL     1      35.636 -15.721 -23.958  0.00  0.00    -0.273 OA
ATOM      8  N   UNL     1      33.397 -15.350 -23.467  0.00  0.00    -0.297 N 
ATOM      9  C   UNL     1      34.641 -15.933 -23.269  0.00  0.00    +0.241 C 
ATOM     10  H   UNL     1      32.665 -15.591 -22.854  0.00  0.00    +0.150 HD
BRANCH   9  11
ATOM     11  C   UNL     1      34.627 -16.930 -22.116  0.00  0.00    +0.153 C 
BRANCH  11  13
ATOM     12  O   UNL     1      34.417 -14.466 -20.594  0.00  0.00    -0.275 OA
ATOM     13  N   UNL     1      33.562 -16.538 -21.227  0.00  0.00    -0.298 N 
ATOM     14  C   UNL     1      33.549 -15.333 -20.540  0.00  0.00    +0.223 C 
ATOM     15  C   UNL     1      32.310 -15.165 -19.701  0.00  0.00    +0.095 C 
ATOM     16  H   UNL     1      32.806 -17.156 -21.101  0.00  0.00    +0.150 HD
ENDBRANCH  11  13
BRANCH  11  17
ATOM     17  C   UNL     1      34.442 -18.356 -22.647  0.00  0.00    +0.055 C 
BRANCH  17  18
ATOM     18  C   UNL     1      34.453 -19.393 -21.551  0.00  0.00    -0.020 C 
ATOM     19  C   UNL     1      35.666 -19.861 -21.070  0.00  0.00    -0.004 C 
ATOM     20  C   UNL     1      33.250 -19.860 -21.044  0.00  0.00    -0.004 C 
ATOM     21  C   UNL     1      35.677 -20.820 -20.058  0.00  0.00    -0.000 C 
ATOM     22  C   UNL     1      33.261 -20.819 -20.032  0.00  0.00    -0.000 C 
ATOM     23  C   UNL     1      34.474 -21.299 -19.539  0.00  0.00    -0.000 C 
ENDBRANCH  17  18
ENDBRANCH  11  17
ENDBRANCH   9  11
ENDBRANCH   1   8
BRANCH   1  24
ATOM     24  C   UNL     1      34.056 -13.193 -24.478  0.00  0.00    +0.055 C 
BRANCH  24  28
ATOM     25  C   UNL     1      32.191  -9.732 -22.787  0.00  0.00    +0.002 C 
ATOM     26  C   UNL     1      33.089  -9.593 -23.845  0.00  0.00    -0.003 C 
ATOM     27  C   UNL     1      31.901 -10.998 -22.280  0.00  0.00    -0.003 C 
ATOM     28  C   UNL     1      33.399 -11.973 -23.881  0.00  0.00    -0.020 C 
ATOM     29  C   UNL     1      33.696 -10.721 -24.396  0.00  0.00    -0.004 C 
ATOM     30  C   UNL     1      32.509 -12.126 -22.831  0.00  0.00    -0.004 C 
BRANCH  25  36
ATOM     31  S   UNL     1      32.620  -7.824 -20.942  0.00  0.00    +0.059 S 
ATOM     32  O   UNL     1      32.320  -8.422 -19.658  0.00  0.00    -0.154 OA
ATOM     33  O   UNL     1      33.971  -7.709 -21.451  0.00  0.00    -0.154 OA
ATOM     34  O   UNL     1      30.234  -5.207 -22.399  0.00  0.00    -0.273 OA
ATOM     35  N   UNL     1      31.844  -6.282 -21.061  0.00  0.00    -0.188 N 
ATOM     36  C   UNL     1      31.535  -8.514 -22.191  0.00  0.00    +0.180 C 
ATOM     37  C   UNL     1      31.172  -7.338 -23.116  0.00  0.00    +0.117 C 
ATOM     38  C   UNL     1      30.989  -6.146 -22.199  0.00  0.00    +0.243 C 
ATOM     39  H   UNL     1      31.979  -5.562 -20.402  0.00  0.00    +0.176 HD
ENDBRANCH  25  36
ENDBRANCH  24  28
ENDBRANCH   1  24
TORSDOF 9
ENDMDL
MODEL 3
REMARK VINA RESULT:     -10.9      0.971      3.031
REMARK  Name = 9547915
REMARK  9 active torsions:
REMARK  status: ('A' for Active; 'I' for Inactive)
REMARK    1  A    between atoms: C_1  and  C_4
REMARK    2  A    between atoms: C_1  and  N_8
REMARK    3  A    between atoms: C_1  and  C_24
REMARK    4  A    between atoms: C_9  and  C_11
REMARK    5  A    between atoms: C_11  and  N_13
REMARK    6  A    between atoms: C_11  and  C_17
REMARK    7  A    between atoms: C_17  and  C_18
REMARK    8  A    between atoms: C_24  and  C_28
REMARK    9  A    between atoms: C_25  and  C_36
REMARK                            x       y       z     vdW  Elec       q    Type
REMARK                         _______ _______ _______ _____ _____    ______ ____
ROOT
ATOM      1  C   UNL     1      34.969 -18.529 -20.997  0.00  0.00    +0.153 C 
ENDROOT
BRANCH   1   4
ATOM      2  O   UNL     1      37.340 -19.065 -20.976  0.00  0.00    -0.274 OA
ATOM      3  N   UNL     1      36.424 -18.212 -22.902  0.00  0.00    -0.327 N 
ATOM      4  C   UNL     1      36.369 -18.625 -21.588  0.00  0.00    +0.238 C 
ATOM      5  H   UNL     1      37.280 -18.231 -23.388  0.00  0.00    +0.145 HD
ATOM      6  H   UNL     1      35.607 -17.899 -23.354  0.00  0.00    +0.145 HD
ENDBRANCH   1   4
BRANCH   1   8
ATOM      7  O   UNL     1      34.930 -15.881 -19.832  0.00  0.00    -0.273 OA
ATOM      8  N   UNL     1      34.357 -17.341 -21.546  0.00  0.00    -0.297 N 
ATOM      9  C   UNL     1      34.389 -16.106 -20.913  0.00  0.00    +0.241 C 
ATOM     10  H   UNL     1      33.895 -17.411 -22.412  0.00  0.00    +0.150 HD
BRANCH   9  11
ATOM     11  C   UNL     1      33.616 -15.047 -21.690  0.00  0.00    +0.153 C 
BRANCH  11  13
ATOM     12  O   UNL     1      31.740 -12.882 -22.165  0.00  0.00    -0.275 OA
ATOM     13  N   UNL     1      33.122 -14.090 -20.732  0.00  0.00    -0.298 N 
ATOM     14  C   UNL     1      32.222 -13.086 -21.054  0.00  0.00    +0.223 C 
ATOM     15  C   UNL     1      31.853 -12.243 -19.862  0.00  0.00    +0.095 C 
ATOM     16  H   UNL     1      33.440 -14.153 -19.802  0.00  0.00    +0.150 HD
ENDBRANCH  11  13
BRANCH  11  17
ATOM     17  C   UNL     1      34.519 -14.396 -22.745  0.00  0.00    +0.055 C 
BRANCH  17  18
ATOM     18  C   UNL     1      33.955 -14.502 -24.141  0.00  0.00    -0.020 C 
ATOM     19  C   UNL     1      33.815 -15.752 -24.724  0.00  0.00    -0.004 C 
ATOM     20  C   UNL     1      33.589 -13.348 -24.816  0.00  0.00    -0.004 C 
ATOM     21  C   UNL     1      33.295 -15.851 -26.014  0.00  0.00    -0.000 C 
ATOM     22  C   UNL     1      33.069 -13.447 -26.106  0.00  0.00    -0.000 C 
ATOM     23  C   UNL     1      32.922 -14.698 -26.705  0.00  0.00    -0.000 C 
ENDBRANCH  17  18
ENDBRANCH  11  17
ENDBRANCH   9  11
ENDBRANCH   1   8
BRANCH   1  24
ATOM     24  C   UNL     1      34.167 -19.795 -21.316  0.00  0.00    +0.055 C 
BRANCH  24  28
ATOM     25  C   UNL     1      33.958 -22.500 -18.005  0.00  0.00    +0.002 C 
ATOM     26  C   UNL     1      35.191 -22.199 -18.583  0.00  0.00    -0.003 C 
ATOM     27  C   UNL     1      32.793 -21.919 -18.506  0.00  0.00    -0.003 C 
ATOM     28  C   UNL     1      34.093 -20.749 -20.149  0.00  0.00    -0.020 C 
ATOM     29  C   UNL     1      35.259 -21.318 -19.662  0.00  0.00    -0.004 C 
ATOM     30  C   UNL     1      32.861 -21.038 -19.585  0.00  0.00    -0.004 C 
BRANCH  25  36
ATOM     31  S   UNL     1      35.282 -23.152 -15.758  0.00  0.00    +0.059 S 
ATOM     32  O   UNL     1      36.395 -23.982 -16.166  0.00  0.00    -0.154 OA
ATOM     33  O   UNL     1      35.423 -21.735 -15.492  0.00  0.00    -0.154 OA
ATOM     34  O   UNL     1      32.330 -24.744 -13.911  0.00  0.00    -0.273 OA
ATOM     35  N   UNL     1      34.462 -23.892 -14.427  0.00  0.00    -0.188 N 
ATOM     36  C   UNL     1      33.885 -23.451 -16.841  0.00  0.00    +0.180 C 
ATOM     37  C   UNL     1      32.644 -23.418 -15.930  0.00  0.00    +0.117 C 
ATOM     38  C   UNL     1      33.066 -24.107 -14.648  0.00  0.00    +0.243 C 
ATOM     39  H   UNL     1      34.917 -24.144 -13.589  0.00  0.00    +0.176 HD
ENDBRANCH  25  36
ENDBRANCH  24  28
ENDBRANCH   1  24
TORSDOF 9
ENDMDL
MODEL 4
REMARK VINA RESULT:     -10.6      4.231      7.567
REMARK  Name = 9547915
REMARK  9 active torsions:
REMARK  status: ('A' for Active; 'I' for Inactive)
REMARK    1  A    between atoms: C_1  and  C_4
REMARK    2  A    between atoms: C_1  and  N_8
REMARK    3  A    between atoms: C_1  and  C_24
REMARK    4  A    between atoms: C_9  and  C_11
REMARK    5  A    between atoms: C_11  and  N_13
REMARK    6  A    between atoms: C_11  and  C_17
REMARK    7  A    between atoms: C_17  and  C_18
REMARK    8  A    between atoms: C_24  and  C_28
REMARK    9  A    between atoms: C_25  and  C_36
REMARK                            x       y       z     vdW  Elec       q    Type
REMARK                         _______ _______ _______ _____ _____    ______ ____
ROOT
ATOM      1  C   UNL     1      33.661 -12.315 -24.547  0.00  0.00    +0.153 C 
ENDROOT
BRANCH   1   4
ATOM      2  O   UNL     1      34.617 -11.659 -26.683  0.00  0.00    -0.274 OA
ATOM      3  N   UNL     1      33.076 -13.362 -26.647  0.00  0.00    -0.327 N 
ATOM      4  C   UNL     1      33.841 -12.377 -26.058  0.00  0.00    +0.238 C 
ATOM      5  H   UNL     1      33.112 -13.496 -27.621  0.00  0.00    +0.145 HD
ATOM      6  H   UNL     1      32.495 -13.932 -26.092  0.00  0.00    +0.145 HD
ENDBRANCH   1   4
BRANCH   1   8
ATOM      7  O   UNL     1      35.449 -10.105 -24.012  0.00  0.00    -0.273 OA
ATOM      8  N   UNL     1      33.298 -10.956 -24.219  0.00  0.00    -0.297 N 
ATOM      9  C   UNL     1      34.229  -9.955 -23.977  0.00  0.00    +0.241 C 
ATOM     10  H   UNL     1      32.342 -10.727 -24.164  0.00  0.00    +0.150 HD
BRANCH   9  11
ATOM     11  C   UNL     1      33.565  -8.637 -23.599  0.00  0.00    +0.153 C 
BRANCH  11  13
ATOM     12  O   UNL     1      31.190  -9.778 -22.381  0.00  0.00    -0.275 OA
ATOM     13  N   UNL     1      33.249  -8.706 -22.194  0.00  0.00    -0.298 N 
ATOM     14  C   UNL     1      32.082  -9.274 -21.705  0.00  0.00    +0.223 C 
ATOM     15  C   UNL     1      32.014  -9.239 -20.201  0.00  0.00    +0.095 C 
ATOM     16  H   UNL     1      33.892  -8.332 -21.550  0.00  0.00    +0.150 HD
ENDBRANCH  11  13
BRANCH  11  17
ATOM     17  C   UNL     1      34.494  -7.460 -23.925  0.00  0.00    +0.055 C 
BRANCH  17  18
ATOM     18  C   UNL     1      33.825  -6.408 -24.775  0.00  0.00    -0.020 C 
ATOM     19  C   UNL     1      32.574  -5.935 -24.411  0.00  0.00    -0.004 C 
ATOM     20  C   UNL     1      34.473  -5.934 -25.905  0.00  0.00    -0.004 C 
ATOM     21  C   UNL     1      31.955  -4.963 -25.197  0.00  0.00    -0.000 C 
ATOM     22  C   UNL     1      33.854  -4.962 -26.691  0.00  0.00    -0.000 C 
ATOM     23  C   UNL     1      32.596  -4.477 -26.337  0.00  0.00    -0.000 C 
ENDBRANCH  17  18
ENDBRANCH  11  17
ENDBRANCH   9  11
ENDBRANCH   1   8
BRANCH   1  24
ATOM     24  C   UNL     1      32.601 -13.324 -24.093  0.00  0.00    +0.055 C 
BRANCH  24  28
ATOM     25  C   UNL     1      34.257 -16.578 -21.859  0.00  0.00    +0.002 C 
ATOM     26  C   UNL     1      33.252 -15.789 -21.301  0.00  0.00    -0.003 C 
ATOM     27  C   UNL     1      34.723 -16.307 -23.146  0.00  0.00    -0.003 C 
ATOM     28  C   UNL     1      33.186 -14.471 -23.306  0.00  0.00    -0.020 C 
ATOM     29  C   UNL     1      32.713 -14.729 -22.029  0.00  0.00    -0.004 C 
ATOM     30  C   UNL     1      34.183 -15.247 -23.874  0.00  0.00    -0.004 C 
BRANCH  25  36
ATOM     31  S   UNL     1      33.928 -19.216 -21.461  0.00  0.00    +0.059 S 
ATOM     32  O   UNL     1      32.817 -19.355 -20.543  0.00  0.00    -0.154 OA
ATOM     33  O   UNL     1      33.776 -19.360 -22.894  0.00  0.00    -0.154 OA
ATOM     34  O   UNL     1      37.478 -19.961 -20.238  0.00  0.00    -0.273 OA
ATOM     35  N   UNL     1      35.244 -20.207 -20.934  0.00  0.00    -0.188 N 
ATOM     36  C   UNL     1      34.839 -17.722 -21.073  0.00  0.00    +0.180 C 
ATOM     37  C   UNL     1      36.323 -18.083 -21.273  0.00  0.00    +0.117 C 
ATOM     38  C   UNL     1      36.470 -19.495 -20.744  0.00  0.00    +0.243 C 
ATOM     39  H   UNL     1      35.157 -21.176 -20.778  0.00  0.00    +0.176 HD
ENDBRANCH  25  36
ENDBRANCH  24  28
ENDBRANCH   1  24
TORSDOF 9
ENDMDL
MODEL 5
REMARK VINA RESULT:     -10.4      4.121      7.051
REMARK  Name = 9547915
REMARK  9 active torsions:
REMARK  status: ('A' for Active; 'I' for Inactive)
REMARK    1  A    between atoms: C_1  and  C_4
REMARK    2  A    between atoms: C_1  and  N_8
REMARK    3  A    between atoms: C_1  and  C_24
REMARK    4  A    between atoms: C_9  and  C_11
REMARK    5  A    between atoms: C_11  and  N_13
REMARK    6  A    between atoms: C_11  and  C_17
REMARK    7  A    between atoms: C_17  and  C_18
REMARK    8  A    between atoms: C_24  and  C_28
REMARK    9  A    between atoms: C_25  and  C_36
REMARK                            x       y       z     vdW  Elec       q    Type
REMARK                         _______ _______ _______ _____ _____    ______ ____
ROOT
ATOM      1  C   UNL     1      33.785 -12.318 -24.704  0.00  0.00    +0.153 C 
ENDROOT
BRANCH   1   4
ATOM      2  O   UNL     1      34.945 -11.335 -26.600  0.00  0.00    -0.274 OA
ATOM      3  N   UNL     1      33.343 -12.932 -27.000  0.00  0.00    -0.327 N 
ATOM      4  C   UNL     1      34.091 -12.113 -26.181  0.00  0.00    +0.238 C 
ATOM      5  H   UNL     1      33.457 -12.887 -27.977  0.00  0.00    +0.145 HD
ATOM      6  H   UNL     1      32.696 -13.562 -26.608  0.00  0.00    +0.145 HD
ENDBRANCH   1   4
BRANCH   1   8
ATOM      7  O   UNL     1      35.305  -9.971 -23.962  0.00  0.00    -0.273 OA
ATOM      8  N   UNL     1      33.271 -11.066 -24.199  0.00  0.00    -0.297 N 
ATOM      9  C   UNL     1      34.080  -9.987 -23.868  0.00  0.00    +0.241 C 
ATOM     10  H   UNL     1      32.297 -10.972 -24.085  0.00  0.00    +0.150 HD
BRANCH   9  11
ATOM     11  C   UNL     1      33.275  -8.820 -23.309  0.00  0.00    +0.153 C 
BRANCH  11  13
ATOM     12  O   UNL     1      32.459  -6.054 -22.977  0.00  0.00    -0.275 OA
ATOM     13  N   UNL     1      33.285  -7.779 -24.305  0.00  0.00    -0.298 N 
ATOM     14  C   UNL     1      32.875  -6.479 -24.051  0.00  0.00    +0.223 C 
ATOM     15  C   UNL     1      33.012  -5.588 -25.258  0.00  0.00    +0.095 C 
ATOM     16  H   UNL     1      33.600  -8.001 -25.211  0.00  0.00    +0.150 HD
ENDBRANCH  11  13
BRANCH  11  17
ATOM     17  C   UNL     1      31.851  -9.274 -22.961  0.00  0.00    +0.055 C 
BRANCH  17  18
ATOM     18  C   UNL     1      31.746  -9.849 -21.570  0.00  0.00    -0.020 C 
ATOM     19  C   UNL     1      31.345 -11.166 -21.408  0.00  0.00    -0.004 C 
ATOM     20  C   UNL     1      32.051  -9.051 -20.479  0.00  0.00    -0.004 C 
ATOM     21  C   UNL     1      31.246 -11.698 -20.123  0.00  0.00    -0.000 C 
ATOM     22  C   UNL     1      31.953  -9.583 -19.194  0.00  0.00    -0.000 C 
ATOM     23  C   UNL     1      31.550 -10.906 -19.016  0.00  0.00    -0.000 C 
ENDBRANCH  17  18
ENDBRANCH  11  17
ENDBRANCH   9  11
ENDBRANCH   1   8
BRANCH   1  24
ATOM     24  C   UNL     1      32.792 -13.470 -24.519  0.00  0.00    +0.055 C 
BRANCH  24  28
ATOM     25  C   UNL     1      34.333 -16.611 -22.053  0.00  0.00    +0.002 C 
ATOM     26  C   UNL     1      33.403 -15.711 -21.535  0.00  0.00    -0.003 C 
ATOM     27  C   UNL     1      34.762 -16.487 -23.374  0.00  0.00    -0.003 C 
ATOM     28  C   UNL     1      33.336 -14.577 -23.649  0.00  0.00    -0.020 C 
ATOM     29  C   UNL     1      32.900 -14.687 -22.339  0.00  0.00    -0.004 C 
ATOM     30  C   UNL     1      34.260 -15.464 -24.178  0.00  0.00    -0.004 C 
BRANCH  25  36
ATOM     31  S   UNL     1      33.930 -19.207 -21.487  0.00  0.00    +0.059 S 
ATOM     32  O   UNL     1      32.804 -19.257 -20.578  0.00  0.00    -0.154 OA
ATOM     33  O   UNL     1      33.793 -19.441 -22.909  0.00  0.00    -0.154 OA
ATOM     34  O   UNL     1      37.444 -19.960 -20.168  0.00  0.00    -0.273 OA
ATOM     35  N   UNL     1      35.213 -20.194 -20.878  0.00  0.00    -0.188 N 
ATOM     36  C   UNL     1      34.876 -17.715 -21.186  0.00  0.00    +0.180 C 
ATOM     37  C   UNL     1      36.352 -18.126 -21.340  0.00  0.00    +0.117 C 
ATOM     38  C   UNL     1      36.455 -19.503 -20.718  0.00  0.00    +0.243 C 
ATOM     39  H   UNL     1      35.099 -21.149 -20.660  0.00  0.00    +0.176 HD
ENDBRANCH  25  36
ENDBRANCH  24  28
ENDBRANCH   1  24
TORSDOF 9
ENDMDL
MODEL 6
REMARK VINA RESULT:     -10.3      5.254     11.178
REMARK  Name = 9547915
REMARK  9 active torsions:
REMARK  status: ('A' for Active; 'I' for Inactive)
REMARK    1  A    between atoms: C_1  and  C_4
REMARK    2  A    between atoms: C_1  and  N_8
REMARK    3  A    between atoms: C_1  and  C_24
REMARK    4  A    between atoms: C_9  and  C_11
REMARK    5  A    between atoms: C_11  and  N_13
REMARK    6  A    between atoms: C_11  and  C_17
REMARK    7  A    between atoms: C_17  and  C_18
REMARK    8  A    between atoms: C_24  and  C_28
REMARK    9  A    between atoms: C_25  and  C_36
REMARK                            x       y       z     vdW  Elec       q    Type
REMARK                         _______ _______ _______ _____ _____    ______ ____
ROOT
ATOM      1  C   UNL     1      33.134 -14.560 -24.459  0.00  0.00    +0.153 C 
ENDROOT
BRANCH   1   4
ATOM      2  O   UNL     1      33.858 -15.884 -26.364  0.00  0.00    -0.274 OA
ATOM      3  N   UNL     1      32.919 -13.825 -26.753  0.00  0.00    -0.327 N 
ATOM      4  C   UNL     1      33.366 -14.842 -25.937  0.00  0.00    +0.238 C 
ATOM      5  H   UNL     1      33.017 -13.898 -27.729  0.00  0.00    +0.145 HD
ATOM      6  H   UNL     1      32.502 -13.025 -26.358  0.00  0.00    +0.145 HD
ENDBRANCH   1   4
BRANCH   1   8
ATOM      7  O   UNL     1      35.591 -15.809 -23.582  0.00  0.00    -0.273 OA
ATOM      8  N   UNL     1      33.275 -15.815 -23.759  0.00  0.00    -0.297 N 
ATOM      9  C   UNL     1      34.502 -16.340 -23.375  0.00  0.00    +0.241 C 
ATOM     10  H   UNL     1      32.461 -16.324 -23.542  0.00  0.00    +0.150 HD
BRANCH   9  11
ATOM     11  C   UNL     1      34.356 -17.701 -22.705  0.00  0.00    +0.153 C 
BRANCH  11  13
ATOM     12  O   UNL     1      33.232 -18.733 -25.175  0.00  0.00    -0.275 OA
ATOM     13  N   UNL     1      34.938 -18.677 -23.591  0.00  0.00    -0.298 N 
ATOM     14  C   UNL     1      34.323 -19.110 -24.756  0.00  0.00    +0.223 C 
ATOM     15  C   UNL     1      35.159 -20.112 -25.507  0.00  0.00    +0.095 C 
ATOM     16  H   UNL     1      35.817 -19.055 -23.359  0.00  0.00    +0.150 HD
ENDBRANCH  11  13
BRANCH  11  17
ATOM     17  C   UNL     1      35.032 -17.692 -21.329  0.00  0.00    +0.055 C 
BRANCH  17  18
ATOM     18  C   UNL     1      35.168 -19.073 -20.737  0.00  0.00    -0.020 C 
ATOM     19  C   UNL     1      36.432 -19.578 -20.472  0.00  0.00    -0.004 C 
ATOM     20  C   UNL     1      34.028 -19.814 -20.469  0.00  0.00    -0.004 C 
ATOM     21  C   UNL     1      36.558 -20.854 -19.925  0.00  0.00    -0.000 C 
ATOM     22  C   UNL     1      34.154 -21.091 -19.923  0.00  0.00    -0.000 C 
ATOM     23  C   UNL     1      35.419 -21.611 -19.651  0.00  0.00    -0.000 C 
ENDBRANCH  17  18
ENDBRANCH  11  17
ENDBRANCH   9  11
ENDBRANCH   1   8
BRANCH   1  24
ATOM     24  C   UNL     1      34.121 -13.501 -23.956  0.00  0.00    +0.055 C 
BRANCH  24  28
ATOM     25  C   UNL     1      32.189  -9.878 -22.746  0.00  0.00    +0.002 C 
ATOM     26  C   UNL     1      33.207  -9.841 -23.698  0.00  0.00    -0.003 C 
ATOM     27  C   UNL     1      31.801 -11.095 -22.187  0.00  0.00    -0.003 C 
ATOM     28  C   UNL     1      33.440 -12.223 -23.528  0.00  0.00    -0.020 C 
ATOM     29  C   UNL     1      33.836 -11.021 -24.093  0.00  0.00    -0.004 C 
ATOM     30  C   UNL     1      32.430 -12.276 -22.581  0.00  0.00    -0.004 C 
BRANCH  25  36
ATOM     31  S   UNL     1      32.466  -7.850 -21.003  0.00  0.00    +0.059 S 
ATOM     32  O   UNL     1      31.999  -8.343 -19.724  0.00  0.00    -0.154 OA
ATOM     33  O   UNL     1      33.869  -7.807 -21.356  0.00  0.00    -0.154 OA
ATOM     34  O   UNL     1      30.354  -5.289 -22.912  0.00  0.00    -0.273 OA
ATOM     35  N   UNL     1      31.761  -6.302 -21.321  0.00  0.00    -0.188 N 
ATOM     36  C   UNL     1      31.511  -8.604 -22.319  0.00  0.00    +0.180 C 
ATOM     37  C   UNL     1      31.296  -7.490 -23.361  0.00  0.00    +0.117 C 
ATOM     38  C   UNL     1      31.049  -6.229 -22.559  0.00  0.00    +0.243 C 
ATOM     39  H   UNL     1      31.843  -5.538 -20.703  0.00  0.00    +0.176 HD
ENDBRANCH  25  36
ENDBRANCH  24  28
ENDBRANCH   1  24
TORSDOF 9
ENDMDL
MODEL 7
REMARK VINA RESULT:      -9.9      5.347     10.994
REMARK  Name = 9547915
REMARK  9 active torsions:
REMARK  status: ('A' for Active; 'I' for Inactive)
REMARK    1  A    between atoms: C_1  and  C_4
REMARK    2  A    between atoms: C_1  and  N_8
REMARK    3  A    between atoms: C_1  and  C_24
REMARK    4  A    between atoms: C_9  and  C_11
REMARK    5  A    between atoms: C_11  and  N_13
REMARK    6  A    between atoms: C_11  and  C_17
REMARK    7  A    between atoms: C_17  and  C_18
REMARK    8  A    between atoms: C_24  and  C_28
REMARK    9  A    between atoms: C_25  and  C_36
REMARK                            x       y       z     vdW  Elec       q    Type
REMARK                         _______ _______ _______ _____ _____    ______ ____
ROOT
ATOM      1  C   UNL     1      33.499 -14.344 -21.619  0.00  0.00    +0.153 C 
ENDROOT
BRANCH   1   4
ATOM      2  O   UNL     1      35.167 -14.648 -19.877  0.00  0.00    -0.274 OA
ATOM      3  N   UNL     1      33.716 -16.372 -20.321  0.00  0.00    -0.327 N 
ATOM      4  C   UNL     1      34.236 -15.113 -20.531  0.00  0.00    +0.238 C 
ATOM      5  H   UNL     1      34.113 -16.961 -19.640  0.00  0.00    +0.145 HD
ATOM      6  H   UNL     1      32.947 -16.682 -20.852  0.00  0.00    +0.145 HD
ENDBRANCH   1   4
BRANCH   1   8
ATOM      7  O   UNL     1      35.500 -15.180 -23.535  0.00  0.00    -0.273 OA
ATOM      8  N   UNL     1      33.321 -15.248 -22.732  0.00  0.00    -0.297 N 
ATOM      9  C   UNL     1      34.344 -15.594 -23.604  0.00  0.00    +0.241 C 
ATOM     10  H   UNL     1      32.430 -15.639 -22.879  0.00  0.00    +0.150 HD
BRANCH   9  11
ATOM     11  C   UNL     1      33.859 -16.518 -24.715  0.00  0.00    +0.153 C 
BRANCH  11  13
ATOM     12  O   UNL     1      32.396 -14.083 -25.313  0.00  0.00    -0.275 OA
ATOM     13  N   UNL     1      33.884 -15.760 -25.941  0.00  0.00    -0.298 N 
ATOM     14  C   UNL     1      33.147 -14.602 -26.134  0.00  0.00    +0.223 C 
ATOM     15  C   UNL     1      33.376 -13.996 -27.494  0.00  0.00    +0.095 C 
ATOM     16  H   UNL     1      34.453 -16.080 -26.678  0.00  0.00    +0.150 HD
ENDBRANCH  11  13
BRANCH  11  17
ATOM     17  C   UNL     1      34.742 -17.769 -24.790  0.00  0.00    +0.055 C 
BRANCH  17  18
ATOM     18  C   UNL     1      34.984 -18.394 -23.438  0.00  0.00    -0.020 C 
ATOM     19  C   UNL     1      33.969 -19.119 -22.833  0.00  0.00    -0.004 C 
ATOM     20  C   UNL     1      36.217 -18.232 -22.824  0.00  0.00    -0.004 C 
ATOM     21  C   UNL     1      34.192 -19.697 -21.583  0.00  0.00    -0.000 C 
ATOM     22  C   UNL     1      36.439 -18.810 -21.575  0.00  0.00    -0.000 C 
ATOM     23  C   UNL     1      35.427 -19.541 -20.954  0.00  0.00    -0.000 C 
ENDBRANCH  17  18
ENDBRANCH  11  17
ENDBRANCH   9  11
ENDBRANCH   1   8
BRANCH   1  24
ATOM     24  C   UNL     1      32.166 -13.810 -21.086  0.00  0.00    +0.055 C 
BRANCH  24  28
ATOM     25  C   UNL     1      31.555  -9.672 -21.994  0.00  0.00    +0.002 C 
ATOM     26  C   UNL     1      32.009 -10.543 -22.983  0.00  0.00    -0.003 C 
ATOM     27  C   UNL     1      31.300 -10.149 -20.708  0.00  0.00    -0.003 C 
ATOM     28  C   UNL     1      31.951 -12.350 -21.405  0.00  0.00    -0.020 C 
ATOM     29  C   UNL     1      32.208 -11.891 -22.687  0.00  0.00    -0.004 C 
ATOM     30  C   UNL     1      31.499 -11.497 -20.412  0.00  0.00    -0.004 C 
BRANCH  25  36
ATOM     31  S   UNL     1      32.736  -7.276 -21.694  0.00  0.00    +0.059 S 
ATOM     32  O   UNL     1      32.470  -6.856 -20.334  0.00  0.00    -0.154 OA
ATOM     33  O   UNL     1      33.982  -7.899 -22.087  0.00  0.00    -0.154 OA
ATOM     34  O   UNL     1      30.959  -5.503 -24.585  0.00  0.00    -0.273 OA
ATOM     35  N   UNL     1      32.393  -5.974 -22.780  0.00  0.00    -0.188 N 
ATOM     36  C   UNL     1      31.341  -8.216 -22.312  0.00  0.00    +0.180 C 
ATOM     37  C   UNL     1      31.179  -7.793 -23.784  0.00  0.00    +0.117 C 
ATOM     38  C   UNL     1      31.455  -6.303 -23.808  0.00  0.00    +0.243 C 
ATOM     39  H   UNL     1      32.808  -5.083 -22.698  0.00  0.00    +0.176 HD
ENDBRANCH  25  36
ENDBRANCH  24  28
ENDBRANCH   1  24
TORSDOF 9
ENDMDL
MODEL 8
REMARK VINA RESULT:      -9.9      2.668      4.392
REMARK  Name = 9547915
REMARK  9 active torsions:
REMARK  status: ('A' for Active; 'I' for Inactive)
REMARK    1  A    between atoms: C_1  and  C_4
REMARK    2  A    between atoms: C_1  and  N_8
REMARK    3  A    between atoms: C_1  and  C_24
REMARK    4  A    between atoms: C_9  and  C_11
REMARK    5  A    between atoms: C_11  and  N_13
REMARK    6  A    between atoms: C_11  and  C_17
REMARK    7  A    between atoms: C_17  and  C_18
REMARK    8  A    between atoms: C_24  and  C_28
REMARK    9  A    between atoms: C_25  and  C_36
REMARK                            x       y       z     vdW  Elec       q    Type
REMARK                         _______ _______ _______ _____ _____    ______ ____
ROOT
ATOM      1  C   UNL     1      33.952 -14.834 -22.411  0.00  0.00    +0.153 C 
ENDROOT
BRANCH   1   4
ATOM      2  O   UNL     1      35.054 -14.718 -20.248  0.00  0.00    -0.274 OA
ATOM      3  N   UNL     1      32.759 -14.691 -20.312  0.00  0.00    -0.327 N 
ATOM      4  C   UNL     1      34.009 -14.759 -20.891  0.00  0.00    +0.238 C 
ATOM      5  H   UNL     1      32.672 -14.638 -19.333  0.00  0.00    +0.145 HD
ATOM      6  H   UNL     1      31.953 -14.695 -20.879  0.00  0.00    +0.145 HD
ENDBRANCH   1   4
BRANCH   1   8
ATOM      7  O   UNL     1      31.923 -12.820 -22.854  0.00  0.00    -0.273 OA
ATOM      8  N   UNL     1      34.146 -13.492 -22.910  0.00  0.00    -0.297 N 
ATOM      9  C   UNL     1      33.107 -12.589 -23.091  0.00  0.00    +0.241 C 
ATOM     10  H   UNL     1      35.060 -13.204 -23.132  0.00  0.00    +0.150 HD
BRANCH   9  11
ATOM     11  C   UNL     1      33.593 -11.271 -23.682  0.00  0.00    +0.153 C 
BRANCH  11  13
ATOM     12  O   UNL     1      35.492  -9.722 -25.240  0.00  0.00    -0.275 OA
ATOM     13  N   UNL     1      34.067 -11.551 -25.014  0.00  0.00    -0.298 N 
ATOM     14  C   UNL     1      34.981 -10.748 -25.681  0.00  0.00    +0.223 C 
ATOM     15  C   UNL     1      35.324 -11.282 -27.046  0.00  0.00    +0.095 C 
ATOM     16  H   UNL     1      33.727 -12.352 -25.474  0.00  0.00    +0.150 HD
ENDBRANCH  11  13
BRANCH  11  17
ATOM     17  C   UNL     1      32.462 -10.236 -23.676  0.00  0.00    +0.055 C 
BRANCH  17  18
ATOM     18  C   UNL     1      32.529  -9.307 -22.489  0.00  0.00    -0.020 C 
ATOM     19  C   UNL     1      33.136  -8.068 -22.629  0.00  0.00    -0.004 C 
ATOM     20  C   UNL     1      31.982  -9.707 -21.280  0.00  0.00    -0.004 C 
ATOM     21  C   UNL     1      33.198  -7.209 -21.532  0.00  0.00    -0.000 C 
ATOM     22  C   UNL     1      32.045  -8.849 -20.183  0.00  0.00    -0.000 C 
ATOM     23  C   UNL     1      32.653  -7.600 -20.309  0.00  0.00    -0.000 C 
ENDBRANCH  17  18
ENDBRANCH  11  17
ENDBRANCH   9  11
ENDBRANCH   1   8
BRANCH   1  24
ATOM     24  C   UNL     1      35.012 -15.807 -22.937  0.00  0.00    +0.055 C 
BRANCH  24  28
ATOM     25  C   UNL     1      34.785 -19.662 -21.088  0.00  0.00    +0.002 C 
ATOM     26  C   UNL     1      33.642 -18.870 -21.192  0.00  0.00    -0.003 C 
ATOM     27  C   UNL     1      36.003 -19.197 -21.587  0.00  0.00    -0.003 C 
ATOM     28  C   UNL     1      34.933 -17.166 -22.285  0.00  0.00    -0.020 C 
ATOM     29  C   UNL     1      33.716 -17.614 -21.795  0.00  0.00    -0.004 C 
ATOM     30  C   UNL     1      36.077 -17.941 -22.189  0.00  0.00    -0.004 C 
BRANCH  25  36
ATOM     31  S   UNL     1      36.228 -21.319 -19.540  0.00  0.00    +0.059 S 
ATOM     32  O   UNL     1      37.183 -21.967 -20.414  0.00  0.00    -0.154 OA
ATOM     33  O   UNL     1      36.571 -20.173 -18.724  0.00  0.00    -0.154 OA
ATOM     34  O   UNL     1      33.293 -23.340 -18.141  0.00  0.00    -0.273 OA
ATOM     35  N   UNL     1      35.455 -22.504 -18.545  0.00  0.00    -0.188 N 
ATOM     36  C   UNL     1      34.706 -21.017 -20.438  0.00  0.00    +0.180 C 
ATOM     37  C   UNL     1      33.573 -21.294 -19.432  0.00  0.00    +0.117 C 
ATOM     38  C   UNL     1      34.028 -22.500 -18.636  0.00  0.00    +0.243 C 
ATOM     39  H   UNL     1      35.954 -23.127 -17.966  0.00  0.00    +0.176 HD
ENDBRANCH  25  36
ENDBRANCH  24  28
ENDBRANCH   1  24
TORSDOF 9
ENDMDL
MODEL 9
REMARK VINA RESULT:      -9.6      4.823     11.340
REMARK  Name = 9547915
REMARK  9 active torsions:
REMARK  status: ('A' for Active; 'I' for Inactive)
REMARK    1  A    between atoms: C_1  and  C_4
REMARK    2  A    between atoms: C_1  and  N_8
REMARK    3  A    between atoms: C_1  and  C_24
REMARK    4  A    between atoms: C_9  and  C_11
REMARK    5  A    between atoms: C_11  and  N_13
REMARK    6  A    between atoms: C_11  and  C_17
REMARK    7  A    between atoms: C_17  and  C_18
REMARK    8  A    between atoms: C_24  and  C_28
REMARK    9  A    between atoms: C_25  and  C_36
REMARK                            x       y       z     vdW  Elec       q    Type
REMARK                         _______ _______ _______ _____ _____    ______ ____
ROOT
ATOM      1  C   UNL     1      33.515 -14.312 -21.974  0.00  0.00    +0.153 C 
ENDROOT
BRANCH   1   4
ATOM      2  O   UNL     1      32.641 -13.482 -19.864  0.00  0.00    -0.274 OA
ATOM      3  N   UNL     1      31.924 -15.528 -20.619  0.00  0.00    -0.327 N 
ATOM      4  C   UNL     1      32.678 -14.377 -20.704  0.00  0.00    +0.238 C 
ATOM      5  H   UNL     1      31.342 -15.680 -19.840  0.00  0.00    +0.145 HD
ATOM      6  H   UNL     1      31.968 -16.199 -21.339  0.00  0.00    +0.145 HD
ENDBRANCH   1   4
BRANCH   1   8
ATOM      7  O   UNL     1      35.043 -16.117 -20.308  0.00  0.00    -0.273 OA
ATOM      8  N   UNL     1      33.917 -15.663 -22.288  0.00  0.00    -0.297 N 
ATOM      9  C   UNL     1      34.653 -16.460 -21.422  0.00  0.00    +0.241 C 
ATOM     10  H   UNL     1      33.655 -16.038 -23.160  0.00  0.00    +0.150 HD
BRANCH   9  11
ATOM     11  C   UNL     1      34.983 -17.816 -22.035  0.00  0.00    +0.153 C 
BRANCH  11  13
ATOM     12  O   UNL     1      33.973 -19.357 -24.279  0.00  0.00    -0.275 OA
ATOM     13  N   UNL     1      35.246 -17.598 -23.435  0.00  0.00    -0.298 N 
ATOM     14  C   UNL     1      34.715 -18.391 -24.441  0.00  0.00    +0.223 C 
ATOM     15  C   UNL     1      35.128 -17.929 -25.814  0.00  0.00    +0.095 C 
ATOM     16  H   UNL     1      35.831 -16.849 -23.691  0.00  0.00    +0.150 HD
ENDBRANCH  11  13
BRANCH  11  17
ATOM     17  C   UNL     1      36.178 -18.450 -21.313  0.00  0.00    +0.055 C 
BRANCH  17  18
ATOM     18  C   UNL     1      35.802 -19.692 -20.542  0.00  0.00    -0.020 C 
ATOM     19  C   UNL     1      34.478 -20.101 -20.517  0.00  0.00    -0.004 C 
ATOM     20  C   UNL     1      36.787 -20.401 -19.872  0.00  0.00    -0.004 C 
ATOM     21  C   UNL     1      34.130 -21.248 -19.804  0.00  0.00    -0.000 C 
ATOM     22  C   UNL     1      36.439 -21.548 -19.159  0.00  0.00    -0.000 C 
ATOM     23  C   UNL     1      35.111 -21.971 -19.125  0.00  0.00    -0.000 C 
ENDBRANCH  17  18
ENDBRANCH  11  17
ENDBRANCH   9  11
ENDBRANCH   1   8
BRANCH   1  24
ATOM     24  C   UNL     1      32.714 -13.666 -23.109  0.00  0.00    +0.055 C 
BRANCH  24  28
ATOM     25  C   UNL     1      31.747  -9.569 -22.332  0.00  0.00    +0.002 C 
ATOM     26  C   UNL     1      31.020 -10.587 -21.714  0.00  0.00    -0.003 C 
ATOM     27  C   UNL     1      32.789  -9.887 -23.203  0.00  0.00    -0.003 C 
ATOM     28  C   UNL     1      32.373 -12.221 -22.836  0.00  0.00    -0.020 C 
ATOM     29  C   UNL     1      31.336 -11.922 -21.968  0.00  0.00    -0.004 C 
ATOM     30  C   UNL     1      33.104 -11.222 -23.456  0.00  0.00    -0.004 C 
BRANCH  25  36
ATOM     31  S   UNL     1      32.776  -7.363 -21.192  0.00  0.00    +0.059 S 
ATOM     32  O   UNL     1      32.590  -7.516 -19.764  0.00  0.00    -0.154 OA
ATOM     33  O   UNL     1      34.028  -7.671 -21.851  0.00  0.00    -0.154 OA
ATOM     34  O   UNL     1      30.657  -4.808 -23.099  0.00  0.00    -0.273 OA
ATOM     35  N   UNL     1      32.259  -5.787 -21.679  0.00  0.00    -0.188 N 
ATOM     36  C   UNL     1      31.407  -8.129 -22.058  0.00  0.00    +0.180 C 
ATOM     37  C   UNL     1      31.101  -7.199 -23.247  0.00  0.00    +0.117 C 
ATOM     38  C   UNL     1      31.268  -5.791 -22.711  0.00  0.00    +0.243 C 
ATOM     39  H   UNL     1      32.615  -4.958 -21.282  0.00  0.00    +0.176 HD
ENDBRANCH  25  36
ENDBRANCH  24  28
ENDBRANCH   1  24
TORSDOF 9
ENDMDL
