MODEL 1
REMARK VINA RESULT:     -10.1      0.000      0.000
REMARK  Name = 5288193
REMARK  3 active torsions:
REMARK  status: ('A' for Active; 'I' for Inactive)
REMARK    1  A    between atoms: C_1  and  C_9
REMARK    2  A    between atoms: C_4  and  C_16
REMARK    3  A    between atoms: C_16  and  O_17
REMARK                            x       y       z     vdW  Elec       q    Type
REMARK                         _______ _______ _______ _____ _____    ______ ____
ROOT
ATOM      1  C   UNL     1      34.559 -19.285 -21.129  0.00  0.00    +0.000 C 
ATOM      2  C   UNL     1      35.726 -19.932 -20.721  0.00  0.00    +0.000 C 
ATOM      3  C   UNL     1      33.314 -19.779 -20.736  0.00  0.00    +0.000 C 
ATOM      4  C   UNL     1      34.404 -21.566 -19.529  0.00  0.00    +0.075 C 
ATOM      5  C   UNL     1      35.648 -21.073 -19.922  0.00  0.00    +0.006 C 
ATOM      6  C   UNL     1      33.238 -20.920 -19.937  0.00  0.00    +0.006 C 
ENDROOT
BRANCH   1   9
ATOM      7  F   UNL     1      34.943 -17.208 -25.472  0.00  0.00    -0.204 F 
ATOM      8  F   UNL     1      34.634 -14.481 -21.613  0.00  0.00    -0.204 F 
ATOM      9  C   UNL     1      34.639 -18.103 -21.959  0.00  0.00    +0.004 C 
ATOM     10  C   UNL     1      34.598 -16.837 -21.374  0.00  0.00    +0.030 C 
ATOM     11  C   UNL     1      34.755 -18.229 -23.343  0.00  0.00    +0.030 C 
ATOM     12  C   UNL     1      34.831 -17.088 -24.143  0.00  0.00    +0.142 C 
ATOM     13  C   UNL     1      34.673 -15.697 -22.174  0.00  0.00    +0.142 C 
ATOM     14  C   UNL     1      34.789 -15.822 -23.557  0.00  0.00    +0.059 C 
ENDBRANCH   1   9
BRANCH   4  16
ATOM     15  O   UNL     1      34.596 -22.806 -17.492  0.00  0.00    -0.245 OA
ATOM     16  C   UNL     1      34.323 -22.755 -18.696  0.00  0.00    +0.338 C 
BRANCH  16  17
ATOM     17  O   UNL     1      33.902 -23.848 -19.389  0.00  0.00    -0.477 OA
ATOM     18  H   UNL     1      33.315 -24.459 -18.989  0.00  0.00    +0.295 HD
ENDBRANCH  16  17
ENDBRANCH   4  16
TORSDOF 3
ENDMDL
MODEL 2
REMARK VINA RESULT:     -10.1      0.028      2.003
REMARK  Name = 5288193
REMARK  3 active torsions:
REMARK  status: ('A' for Active; 'I' for Inactive)
REMARK    1  A    between atoms: C_1  and  C_9
REMARK    2  A    between atoms: C_4  and  C_16
REMARK    3  A    between atoms: C_16  and  O_17
REMARK                            x       y       z     vdW  Elec       q    Type
REMARK                         _______ _______ _______ _____ _____    ______ ____
ROOT
ATOM      1  C   UNL     1      34.566 -19.293 -21.126  0.00  0.00    +0.000 C 
ATOM      2  C   UNL     1      35.727 -19.950 -20.720  0.00  0.00    +0.000 C 
ATOM      3  C   UNL     1      33.317 -19.778 -20.736  0.00  0.00    +0.000 C 
ATOM      4  C   UNL     1      34.392 -21.577 -19.533  0.00  0.00    +0.075 C 
ATOM      5  C   UNL     1      35.641 -21.093 -19.925  0.00  0.00    +0.006 C 
ATOM      6  C   UNL     1      33.231 -20.920 -19.939  0.00  0.00    +0.006 C 
ENDROOT
BRANCH   1   9
ATOM      7  F   UNL     1      34.663 -14.488 -21.603  0.00  0.00    -0.204 F 
ATOM      8  F   UNL     1      34.995 -17.211 -25.463  0.00  0.00    -0.204 F 
ATOM      9  C   UNL     1      34.656 -18.109 -21.953  0.00  0.00    +0.004 C 
ATOM     10  C   UNL     1      34.784 -18.234 -23.336  0.00  0.00    +0.030 C 
ATOM     11  C   UNL     1      34.615 -16.844 -21.367  0.00  0.00    +0.030 C 
ATOM     12  C   UNL     1      34.702 -15.703 -22.165  0.00  0.00    +0.142 C 
ATOM     13  C   UNL     1      34.871 -17.092 -24.134  0.00  0.00    +0.142 C 
ATOM     14  C   UNL     1      34.831 -15.828 -23.548  0.00  0.00    +0.059 C 
ENDBRANCH   1   9
BRANCH   4  16
ATOM     15  O   UNL     1      34.570 -22.823 -17.498  0.00  0.00    -0.245 OA
ATOM     16  C   UNL     1      34.302 -22.768 -18.704  0.00  0.00    +0.338 C 
BRANCH  16  17
ATOM     17  O   UNL     1      33.877 -23.856 -19.401  0.00  0.00    -0.477 OA
ATOM     18  H   UNL     1      32.973 -24.102 -19.381  0.00  0.00    +0.295 HD
ENDBRANCH  16  17
ENDBRANCH   4  16
TORSDOF 3
ENDMDL
MODEL 3
REMARK VINA RESULT:      -9.3      4.595      6.546
REMARK  Name = 5288193
REMARK  3 active torsions:
REMARK  status: ('A' for Active; 'I' for Inactive)
REMARK    1  A    between atoms: C_1  and  C_9
REMARK    2  A    between atoms: C_4  and  C_16
REMARK    3  A    between atoms: C_16  and  O_17
REMARK                            x       y       z     vdW  Elec       q    Type
REMARK                         _______ _______ _______ _____ _____    ______ ____
ROOT
ATOM      1  C   UNL     1      34.672 -19.129 -21.672  0.00  0.00    +0.000 C 
ATOM      2  C   UNL     1      34.478 -17.794 -21.320  0.00  0.00    +0.000 C 
ATOM      3  C   UNL     1      34.784 -19.488 -23.016  0.00  0.00    +0.000 C 
ATOM      4  C   UNL     1      34.504 -17.175 -23.656  0.00  0.00    +0.075 C 
ATOM      5  C   UNL     1      34.392 -16.817 -22.312  0.00  0.00    +0.006 C 
ATOM      6  C   UNL     1      34.699 -18.510 -24.007  0.00  0.00    +0.006 C 
ENDROOT
BRANCH   1   9
ATOM      7  F   UNL     1      37.287 -21.947 -18.747  0.00  0.00    -0.204 F 
ATOM      8  F   UNL     1      32.560 -22.209 -18.610  0.00  0.00    -0.204 F 
ATOM      9  C   UNL     1      34.759 -20.144 -20.643  0.00  0.00    +0.004 C 
ATOM     10  C   UNL     1      33.595 -20.699 -20.112  0.00  0.00    +0.030 C 
ATOM     11  C   UNL     1      36.006 -20.565 -20.182  0.00  0.00    +0.030 C 
ATOM     12  C   UNL     1      36.090 -21.542 -19.190  0.00  0.00    +0.142 C 
ATOM     13  C   UNL     1      33.678 -21.676 -19.120  0.00  0.00    +0.142 C 
ATOM     14  C   UNL     1      34.925 -22.097 -18.659  0.00  0.00    +0.059 C 
ENDBRANCH   1   9
BRANCH   4  16
ATOM     15  O   UNL     1      33.984 -15.010 -24.530  0.00  0.00    -0.245 OA
ATOM     16  C   UNL     1      34.415 -16.157 -24.690  0.00  0.00    +0.338 C 
BRANCH  16  17
ATOM     17  O   UNL     1      34.869 -16.597 -25.894  0.00  0.00    -0.477 OA
ATOM     18  H   UNL     1      35.783 -16.551 -26.096  0.00  0.00    +0.295 HD
ENDBRANCH  16  17
ENDBRANCH   4  16
TORSDOF 3
ENDMDL
MODEL 4
REMARK VINA RESULT:      -9.3      4.593      6.560
REMARK  Name = 5288193
REMARK  3 active torsions:
REMARK  status: ('A' for Active; 'I' for Inactive)
REMARK    1  A    between atoms: C_1  and  C_9
REMARK    2  A    between atoms: C_4  and  C_16
REMARK    3  A    between atoms: C_16  and  O_17
REMARK                            x       y       z     vdW  Elec       q    Type
REMARK                         _______ _______ _______ _____ _____    ______ ____
ROOT
ATOM      1  C   UNL     1      34.693 -19.137 -21.639  0.00  0.00    +0.000 C 
ATOM      2  C   UNL     1      34.531 -17.797 -21.289  0.00  0.00    +0.000 C 
ATOM      3  C   UNL     1      34.770 -19.502 -22.984  0.00  0.00    +0.000 C 
ATOM      4  C   UNL     1      34.524 -17.186 -23.626  0.00  0.00    +0.075 C 
ATOM      5  C   UNL     1      34.445 -16.821 -22.282  0.00  0.00    +0.006 C 
ATOM      6  C   UNL     1      34.685 -18.526 -23.977  0.00  0.00    +0.006 C 
ENDROOT
BRANCH   1   9
ATOM      7  F   UNL     1      32.586 -22.231 -18.588  0.00  0.00    -0.204 F 
ATOM      8  F   UNL     1      37.311 -21.937 -18.703  0.00  0.00    -0.204 F 
ATOM      9  C   UNL     1      34.780 -20.150 -20.609  0.00  0.00    +0.004 C 
ATOM     10  C   UNL     1      36.028 -20.563 -20.143  0.00  0.00    +0.030 C 
ATOM     11  C   UNL     1      33.617 -20.713 -20.085  0.00  0.00    +0.030 C 
ATOM     12  C   UNL     1      33.702 -21.690 -19.093  0.00  0.00    +0.142 C 
ATOM     13  C   UNL     1      36.113 -21.540 -19.151  0.00  0.00    +0.142 C 
ATOM     14  C   UNL     1      34.951 -22.104 -18.627  0.00  0.00    +0.059 C 
ENDBRANCH   1   9
BRANCH   4  16
ATOM     15  O   UNL     1      33.999 -15.023 -24.504  0.00  0.00    -0.245 OA
ATOM     16  C   UNL     1      34.434 -16.169 -24.662  0.00  0.00    +0.338 C 
BRANCH  16  17
ATOM     17  O   UNL     1      34.891 -16.609 -25.865  0.00  0.00    -0.477 OA
ATOM     18  H   UNL     1      34.305 -17.026 -26.465  0.00  0.00    +0.295 HD
ENDBRANCH  16  17
ENDBRANCH   4  16
TORSDOF 3
ENDMDL
MODEL 5
REMARK VINA RESULT:      -8.9      4.680      6.654
REMARK  Name = 5288193
REMARK  3 active torsions:
REMARK  status: ('A' for Active; 'I' for Inactive)
REMARK    1  A    between atoms: C_1  and  C_9
REMARK    2  A    between atoms: C_4  and  C_16
REMARK    3  A    between atoms: C_16  and  O_17
REMARK                            x       y       z     vdW  Elec       q    Type
REMARK                         _______ _______ _______ _____ _____    ______ ____
ROOT
ATOM      1  C   UNL     1      34.430 -17.879 -21.835  0.00  0.00    +0.000 C 
ATOM      2  C   UNL     1      34.752 -17.823 -23.191  0.00  0.00    +0.000 C 
ATOM      3  C   UNL     1      33.920 -16.750 -21.192  0.00  0.00    +0.000 C 
ATOM      4  C   UNL     1      34.057 -15.510 -23.261  0.00  0.00    +0.075 C 
ATOM      5  C   UNL     1      34.567 -16.638 -23.904  0.00  0.00    +0.006 C 
ATOM      6  C   UNL     1      33.734 -15.566 -21.905  0.00  0.00    +0.006 C 
ENDROOT
BRANCH   1   9
ATOM      7  F   UNL     1      37.326 -21.311 -20.058  0.00  0.00    -0.204 F 
ATOM      8  F   UNL     1      32.659 -21.589 -19.302  0.00  0.00    -0.204 F 
ATOM      9  C   UNL     1      34.624 -19.107 -21.095  0.00  0.00    +0.004 C 
ATOM     10  C   UNL     1      33.526 -19.769 -20.545  0.00  0.00    +0.030 C 
ATOM     11  C   UNL     1      35.907 -19.627 -20.930  0.00  0.00    +0.030 C 
ATOM     12  C   UNL     1      36.094 -20.811 -20.216  0.00  0.00    +0.142 C 
ATOM     13  C   UNL     1      33.713 -20.953 -19.831  0.00  0.00    +0.142 C 
ATOM     14  C   UNL     1      34.996 -21.473 -19.665  0.00  0.00    +0.059 C 
ENDBRANCH   1   9
BRANCH   4  16
ATOM     15  O   UNL     1      33.347 -14.186 -25.123  0.00  0.00    -0.245 OA
ATOM     16  C   UNL     1      33.863 -14.275 -24.003  0.00  0.00    +0.338 C 
BRANCH  16  17
ATOM     17  O   UNL     1      34.318 -13.185 -23.328  0.00  0.00    -0.477 OA
ATOM     18  H   UNL     1      35.117 -13.235 -22.841  0.00  0.00    +0.295 HD
ENDBRANCH  16  17
ENDBRANCH   4  16
TORSDOF 3
ENDMDL
MODEL 6
REMARK VINA RESULT:      -8.9      4.678      6.734
REMARK  Name = 5288193
REMARK  3 active torsions:
REMARK  status: ('A' for Active; 'I' for Inactive)
REMARK    1  A    between atoms: C_1  and  C_9
REMARK    2  A    between atoms: C_4  and  C_16
REMARK    3  A    between atoms: C_16  and  O_17
REMARK                            x       y       z     vdW  Elec       q    Type
REMARK                         _______ _______ _______ _____ _____    ______ ____
ROOT
ATOM      1  C   UNL     1      34.418 -17.906 -21.815  0.00  0.00    +0.000 C 
ATOM      2  C   UNL     1      33.873 -16.788 -21.184  0.00  0.00    +0.000 C 
ATOM      3  C   UNL     1      34.777 -17.840 -23.162  0.00  0.00    +0.000 C 
ATOM      4  C   UNL     1      34.044 -15.539 -23.245  0.00  0.00    +0.075 C 
ATOM      5  C   UNL     1      33.685 -15.605 -21.899  0.00  0.00    +0.006 C 
ATOM      6  C   UNL     1      34.590 -16.657 -23.876  0.00  0.00    +0.006 C 
ENDROOT
BRANCH   1   9
ATOM      7  F   UNL     1      32.646 -21.633 -19.306  0.00  0.00    -0.204 F 
ATOM      8  F   UNL     1      37.317 -21.324 -20.018  0.00  0.00    -0.204 F 
ATOM      9  C   UNL     1      34.611 -19.134 -21.074  0.00  0.00    +0.004 C 
ATOM     10  C   UNL     1      35.896 -19.647 -20.900  0.00  0.00    +0.030 C 
ATOM     11  C   UNL     1      33.513 -19.805 -20.536  0.00  0.00    +0.030 C 
ATOM     12  C   UNL     1      33.700 -20.989 -19.823  0.00  0.00    +0.142 C 
ATOM     13  C   UNL     1      36.083 -20.831 -20.186  0.00  0.00    +0.142 C 
ATOM     14  C   UNL     1      34.986 -21.502 -19.649  0.00  0.00    +0.059 C 
ENDBRANCH   1   9
BRANCH   4  16
ATOM     15  O   UNL     1      33.323 -14.220 -25.105  0.00  0.00    -0.245 OA
ATOM     16  C   UNL     1      33.849 -14.307 -23.991  0.00  0.00    +0.338 C 
BRANCH  16  17
ATOM     17  O   UNL     1      34.313 -13.216 -23.323  0.00  0.00    -0.477 OA
ATOM     18  H   UNL     1      34.458 -12.412 -23.782  0.00  0.00    +0.295 HD
ENDBRANCH  16  17
ENDBRANCH   4  16
TORSDOF 3
ENDMDL
MODEL 7
REMARK VINA RESULT:      -8.8      4.929      6.895
REMARK  Name = 5288193
REMARK  3 active torsions:
REMARK  status: ('A' for Active; 'I' for Inactive)
REMARK    1  A    between atoms: C_1  and  C_9
REMARK    2  A    between atoms: C_4  and  C_16
REMARK    3  A    between atoms: C_16  and  O_17
REMARK                            x       y       z     vdW  Elec       q    Type
REMARK                         _______ _______ _______ _____ _____    ______ ____
ROOT
ATOM      1  C   UNL     1      34.041 -16.658 -21.678  0.00  0.00    +0.000 C 
ATOM      2  C   UNL     1      33.082 -15.971 -20.934  0.00  0.00    +0.000 C 
ATOM      3  C   UNL     1      34.572 -16.082 -22.833  0.00  0.00    +0.000 C 
ATOM      4  C   UNL     1      33.184 -14.133 -22.499  0.00  0.00    +0.075 C 
ATOM      5  C   UNL     1      32.653 -14.709 -21.345  0.00  0.00    +0.006 C 
ATOM      6  C   UNL     1      34.143 -14.820 -23.243  0.00  0.00    +0.006 C 
ENDROOT
BRANCH   1   9
ATOM      7  F   UNL     1      37.586 -19.758 -20.604  0.00  0.00    -0.204 F 
ATOM      8  F   UNL     1      33.080 -21.177 -20.274  0.00  0.00    -0.204 F 
ATOM      9  C   UNL     1      34.486 -17.968 -21.253  0.00  0.00    +0.004 C 
ATOM     10  C   UNL     1      33.550 -18.960 -20.963  0.00  0.00    +0.030 C 
ATOM     11  C   UNL     1      35.849 -18.236 -21.131  0.00  0.00    +0.030 C 
ATOM     12  C   UNL     1      36.277 -19.499 -20.720  0.00  0.00    +0.142 C 
ATOM     13  C   UNL     1      33.978 -20.223 -20.552  0.00  0.00    +0.142 C 
ATOM     14  C   UNL     1      35.341 -20.492 -20.430  0.00  0.00    +0.059 C 
ENDBRANCH   1   9
BRANCH   4  16
ATOM     15  O   UNL     1      33.344 -12.073 -23.705  0.00  0.00    -0.245 OA
ATOM     16  C   UNL     1      32.737 -12.818 -22.928  0.00  0.00    +0.338 C 
BRANCH  16  17
ATOM     17  O   UNL     1      31.543 -12.469 -22.377  0.00  0.00    -0.477 OA
ATOM     18  H   UNL     1      30.924 -13.132 -22.142  0.00  0.00    +0.295 HD
ENDBRANCH  16  17
ENDBRANCH   4  16
TORSDOF 3
ENDMDL
MODEL 8
REMARK VINA RESULT:      -8.8      4.924      6.882
REMARK  Name = 5288193
REMARK  3 active torsions:
REMARK  status: ('A' for Active; 'I' for Inactive)
REMARK    1  A    between atoms: C_1  and  C_9
REMARK    2  A    between atoms: C_4  and  C_16
REMARK    3  A    between atoms: C_16  and  O_17
REMARK                            x       y       z     vdW  Elec       q    Type
REMARK                         _______ _______ _______ _____ _____    ______ ____
ROOT
ATOM      1  C   UNL     1      34.078 -16.706 -21.759  0.00  0.00    +0.000 C 
ATOM      2  C   UNL     1      33.100 -16.010 -21.049  0.00  0.00    +0.000 C 
ATOM      3  C   UNL     1      34.642 -16.143 -22.904  0.00  0.00    +0.000 C 
ATOM      4  C   UNL     1      33.249 -14.188 -22.629  0.00  0.00    +0.075 C 
ATOM      5  C   UNL     1      32.684 -14.751 -21.484  0.00  0.00    +0.006 C 
ATOM      6  C   UNL     1      34.227 -14.884 -23.339  0.00  0.00    +0.006 C 
ENDROOT
BRANCH   1   9
ATOM      7  F   UNL     1      33.069 -21.190 -20.274  0.00  0.00    -0.204 F 
ATOM      8  F   UNL     1      37.589 -19.822 -20.627  0.00  0.00    -0.204 F 
ATOM      9  C   UNL     1      34.507 -18.012 -21.308  0.00  0.00    +0.004 C 
ATOM     10  C   UNL     1      35.868 -18.292 -21.182  0.00  0.00    +0.030 C 
ATOM     11  C   UNL     1      33.562 -18.991 -21.002  0.00  0.00    +0.030 C 
ATOM     12  C   UNL     1      33.977 -20.250 -20.569  0.00  0.00    +0.142 C 
ATOM     13  C   UNL     1      36.283 -19.552 -20.748  0.00  0.00    +0.142 C 
ATOM     14  C   UNL     1      35.338 -20.530 -20.443  0.00  0.00    +0.059 C 
ENDBRANCH   1   9
BRANCH   4  16
ATOM     15  O   UNL     1      33.412 -12.170 -23.904  0.00  0.00    -0.245 OA
ATOM     16  C   UNL     1      32.816 -12.876 -23.084  0.00  0.00    +0.338 C 
BRANCH  16  17
ATOM     17  O   UNL     1      31.650 -12.483 -22.503  0.00  0.00    -0.477 OA
ATOM     18  H   UNL     1      31.579 -12.452 -21.569  0.00  0.00    +0.295 HD
ENDBRANCH  16  17
ENDBRANCH   4  16
TORSDOF 3
ENDMDL
MODEL 9
REMARK VINA RESULT:      -8.6      7.493      9.225
REMARK  Name = 5288193
REMARK  3 active torsions:
REMARK  status: ('A' for Active; 'I' for Inactive)
REMARK    1  A    between atoms: C_1  and  C_9
REMARK    2  A    between atoms: C_4  and  C_16
REMARK    3  A    between atoms: C_16  and  O_17
REMARK                            x       y       z     vdW  Elec       q    Type
REMARK                         _______ _______ _______ _____ _____    ______ ____
ROOT
ATOM      1  C   UNL     1      35.837 -24.303 -15.191  0.00  0.00    +0.000 C 
ATOM      2  C   UNL     1      36.260 -25.583 -14.834  0.00  0.00    +0.000 C 
ATOM      3  C   UNL     1      36.777 -23.312 -15.476  0.00  0.00    +0.000 C 
ATOM      4  C   UNL     1      38.562 -24.882 -15.043  0.00  0.00    +0.075 C 
ATOM      5  C   UNL     1      37.622 -25.872 -14.758  0.00  0.00    +0.006 C 
ATOM      6  C   UNL     1      38.140 -23.602 -15.401  0.00  0.00    +0.006 C 
ENDROOT
BRANCH   1   9
ATOM      7  F   UNL     1      31.420 -24.305 -13.237  0.00  0.00    -0.204 F 
ATOM      8  F   UNL     1      32.033 -22.546 -17.591  0.00  0.00    -0.204 F 
ATOM      9  C   UNL     1      34.424 -24.002 -15.268  0.00  0.00    +0.004 C 
ATOM     10  C   UNL     1      33.899 -23.408 -16.415  0.00  0.00    +0.030 C 
ATOM     11  C   UNL     1      33.587 -24.305 -14.194  0.00  0.00    +0.030 C 
ATOM     12  C   UNL     1      32.224 -24.014 -14.267  0.00  0.00    +0.142 C 
ATOM     13  C   UNL     1      32.537 -23.117 -16.489  0.00  0.00    +0.142 C 
ATOM     14  C   UNL     1      31.700 -23.419 -15.416  0.00  0.00    +0.059 C 
ENDBRANCH   1   9
BRANCH   4  16
ATOM     15  O   UNL     1      40.743 -24.817 -14.062  0.00  0.00    -0.245 OA
ATOM     16  C   UNL     1      39.983 -25.183 -14.965  0.00  0.00    +0.338 C 
BRANCH  16  17
ATOM     17  O   UNL     1      40.414 -25.934 -16.014  0.00  0.00    -0.477 OA
ATOM     18  H   UNL     1      41.283 -25.819 -16.347  0.00  0.00    +0.295 HD
ENDBRANCH  16  17
ENDBRANCH   4  16
TORSDOF 3
ENDMDL
