MODEL 1
REMARK VINA RESULT:      -8.6      0.000      0.000
REMARK  Name = 66248
REMARK  8 active torsions:
REMARK  status: ('A' for Active; 'I' for Inactive)
REMARK    1  A    between atoms: C_1  and  C_2
REMARK    2  A    between atoms: C_1  and  C_8
REMARK    3  A    between atoms: C_1  and  C_15
REMARK    4  A    between atoms: C_1  and  O_26
REMARK    5  A    between atoms: C_15  and  O_16
REMARK    6  A    between atoms: O_16  and  C_20
REMARK    7  A    between atoms: N_17  and  C_22
REMARK    8  A    between atoms: N_17  and  C_24
REMARK                            x       y       z     vdW  Elec       q    Type
REMARK                         _______ _______ _______ _____ _____    ______ ____
ROOT
ATOM      1  C   UNL     1      32.853 -13.556 -22.757  0.00  0.00    +0.216 C 
ENDROOT
BRANCH   1   2
ATOM      2  C   UNL     1      32.295 -12.446 -21.864  0.00  0.00    +0.016 C 
ATOM      3  C   UNL     1      32.153 -12.692 -20.518  0.00  0.00    -0.001 C 
ATOM      4  C   UNL     1      31.956 -11.243 -22.441  0.00  0.00    -0.001 C 
ATOM      5  C   UNL     1      31.644 -11.679 -19.704  0.00  0.00    -0.000 C 
ATOM      6  C   UNL     1      31.447 -10.232 -21.627  0.00  0.00    -0.000 C 
ATOM      7  C   UNL     1      31.291 -10.450 -20.258  0.00  0.00    -0.000 C 
ENDBRANCH   1   2
BRANCH   1   8
ATOM      8  C   UNL     1      33.278 -12.999 -24.118  0.00  0.00    +0.016 C 
ATOM      9  C   UNL     1      32.945 -13.703 -25.251  0.00  0.00    -0.001 C 
ATOM     10  C   UNL     1      33.979 -11.815 -24.154  0.00  0.00    -0.001 C 
ATOM     11  C   UNL     1      33.333 -13.195 -26.491  0.00  0.00    -0.000 C 
ATOM     12  C   UNL     1      34.367 -11.308 -25.394  0.00  0.00    -0.000 C 
ATOM     13  C   UNL     1      34.045 -11.998 -26.562  0.00  0.00    -0.000 C 
ENDBRANCH   1   8
BRANCH   1  15
ATOM     14  O   UNL     1      34.913 -13.925 -21.489  0.00  0.00    -0.247 OA
ATOM     15  C   UNL     1      33.932 -14.388 -22.060  0.00  0.00    +0.349 C 
BRANCH  15  16
ATOM     16  O   UNL     1      33.633 -15.727 -22.126  0.00  0.00    -0.452 OA
BRANCH  16  20
ATOM     17  N   UNL     1      35.383 -18.882 -21.599  0.00  0.00    +0.392 N 
ATOM     18  C   UNL     1      34.670 -17.633 -21.043  0.00  0.00    -0.029 C 
ATOM     19  C   UNL     1      35.643 -18.589 -23.090  0.00  0.00    -0.069 C 
ATOM     20  C   UNL     1      34.739 -16.608 -22.162  0.00  0.00    +0.147 C 
ATOM     21  C   UNL     1      34.698 -17.454 -23.418  0.00  0.00    +0.019 C 
BRANCH  17  22
ATOM     22  C   UNL     1      36.696 -19.123 -20.871  0.00  0.00    -0.073 C 
ATOM     23  C   UNL     1      36.611 -20.429 -20.110  0.00  0.00    -0.024 C 
ENDBRANCH  17  22
BRANCH  17  24
ATOM     24  C   UNL     1      34.494 -20.108 -21.447  0.00  0.00    -0.073 C 
ATOM     25  C   UNL     1      33.181 -19.697 -20.818  0.00  0.00    -0.024 C 
ENDBRANCH  17  24
ENDBRANCH  16  20
ENDBRANCH  15  16
ENDBRANCH   1  15
BRANCH   1  26
ATOM     26  O   UNL     1      31.859 -14.587 -22.928  0.00  0.00    -0.370 OA
ATOM     27  H   UNL     1      31.735 -14.764 -23.874  0.00  0.00    +0.212 HD
ENDBRANCH   1  26
TORSDOF 8
ENDMDL
MODEL 2
REMARK VINA RESULT:      -8.6      0.081      1.342
REMARK  Name = 66248
REMARK  8 active torsions:
REMARK  status: ('A' for Active; 'I' for Inactive)
REMARK    1  A    between atoms: C_1  and  C_2
REMARK    2  A    between atoms: C_1  and  C_8
REMARK    3  A    between atoms: C_1  and  C_15
REMARK    4  A    between atoms: C_1  and  O_26
REMARK    5  A    between atoms: C_15  and  O_16
REMARK    6  A    between atoms: O_16  and  C_20
REMARK    7  A    between atoms: N_17  and  C_22
REMARK    8  A    between atoms: N_17  and  C_24
REMARK                            x       y       z     vdW  Elec       q    Type
REMARK                         _______ _______ _______ _____ _____    ______ ____
ROOT
ATOM      1  C   UNL     1      32.903 -13.576 -22.822  0.00  0.00    +0.216 C 
ENDROOT
BRANCH   1   2
ATOM      2  C   UNL     1      32.335 -12.475 -21.923  0.00  0.00    +0.016 C 
ATOM      3  C   UNL     1      31.997 -11.269 -22.493  0.00  0.00    -0.001 C 
ATOM      4  C   UNL     1      32.183 -12.733 -20.581  0.00  0.00    -0.001 C 
ATOM      5  C   UNL     1      31.480 -10.265 -21.674  0.00  0.00    -0.000 C 
ATOM      6  C   UNL     1      31.667 -11.730 -19.762  0.00  0.00    -0.000 C 
ATOM      7  C   UNL     1      31.315 -10.496 -20.309  0.00  0.00    -0.000 C 
ENDBRANCH   1   2
BRANCH   1   8
ATOM      8  C   UNL     1      33.308 -13.011 -24.186  0.00  0.00    +0.016 C 
ATOM      9  C   UNL     1      34.004 -11.825 -24.228  0.00  0.00    -0.001 C 
ATOM     10  C   UNL     1      32.961 -13.713 -25.318  0.00  0.00    -0.001 C 
ATOM     11  C   UNL     1      34.373 -11.312 -25.471  0.00  0.00    -0.000 C 
ATOM     12  C   UNL     1      33.330 -13.198 -26.560  0.00  0.00    -0.000 C 
ATOM     13  C   UNL     1      34.036 -11.998 -26.637  0.00  0.00    -0.000 C 
ENDBRANCH   1   8
BRANCH   1  15
ATOM     14  O   UNL     1      35.017 -13.920 -21.638  0.00  0.00    -0.247 OA
ATOM     15  C   UNL     1      34.001 -14.392 -22.135  0.00  0.00    +0.349 C 
BRANCH  15  16
ATOM     16  O   UNL     1      33.675 -15.726 -22.115  0.00  0.00    -0.452 OA
BRANCH  16  20
ATOM     17  N   UNL     1      35.352 -18.916 -21.560  0.00  0.00    +0.392 N 
ATOM     18  C   UNL     1      34.659 -17.651 -21.015  0.00  0.00    -0.029 C 
ATOM     19  C   UNL     1      35.636 -18.632 -23.048  0.00  0.00    -0.069 C 
ATOM     20  C   UNL     1      34.762 -16.631 -22.135  0.00  0.00    +0.147 C 
ATOM     21  C   UNL     1      34.719 -17.478 -23.389  0.00  0.00    +0.019 C 
BRANCH  17  22
ATOM     22  C   UNL     1      36.651 -19.183 -20.815  0.00  0.00    -0.073 C 
ATOM     23  C   UNL     1      36.558 -20.522 -20.116  0.00  0.00    -0.024 C 
ENDBRANCH  17  22
BRANCH  17  24
ATOM     24  C   UNL     1      34.436 -20.123 -21.416  0.00  0.00    -0.073 C 
ATOM     25  C   UNL     1      33.141 -19.691 -20.765  0.00  0.00    -0.024 C 
ENDBRANCH  17  24
ENDBRANCH  16  20
ENDBRANCH  15  16
ENDBRANCH   1  15
BRANCH   1  26
ATOM     26  O   UNL     1      31.923 -14.622 -22.985  0.00  0.00    -0.370 OA
ATOM     27  H   UNL     1      31.955 -14.956 -23.896  0.00  0.00    +0.212 HD
ENDBRANCH   1  26
TORSDOF 8
ENDMDL
MODEL 3
REMARK VINA RESULT:      -8.5      2.356      6.912
REMARK  Name = 66248
REMARK  8 active torsions:
REMARK  status: ('A' for Active; 'I' for Inactive)
REMARK    1  A    between atoms: C_1  and  C_2
REMARK    2  A    between atoms: C_1  and  C_8
REMARK    3  A    between atoms: C_1  and  C_15
REMARK    4  A    between atoms: C_1  and  O_26
REMARK    5  A    between atoms: C_15  and  O_16
REMARK    6  A    between atoms: O_16  and  C_20
REMARK    7  A    between atoms: N_17  and  C_22
REMARK    8  A    between atoms: N_17  and  C_24
REMARK                            x       y       z     vdW  Elec       q    Type
REMARK                         _______ _______ _______ _____ _____    ______ ____
ROOT
ATOM      1  C   UNL     1      35.006 -18.119 -21.797  0.00  0.00    +0.216 C 
ENDROOT
BRANCH   1   2
ATOM      2  C   UNL     1      34.215 -16.949 -21.208  0.00  0.00    +0.016 C 
ATOM      3  C   UNL     1      34.907 -15.858 -20.735  0.00  0.00    -0.001 C 
ATOM      4  C   UNL     1      32.842 -17.032 -21.174  0.00  0.00    -0.001 C 
ATOM      5  C   UNL     1      34.185 -14.791 -20.198  0.00  0.00    -0.000 C 
ATOM      6  C   UNL     1      32.121 -15.967 -20.636  0.00  0.00    -0.000 C 
ATOM      7  C   UNL     1      32.793 -14.846 -20.148  0.00  0.00    -0.000 C 
ENDBRANCH   1   2
BRANCH   1   8
ATOM      8  C   UNL     1      34.751 -19.404 -21.005  0.00  0.00    +0.016 C 
ATOM      9  C   UNL     1      33.451 -19.771 -20.747  0.00  0.00    -0.001 C 
ATOM     10  C   UNL     1      35.832 -20.142 -20.583  0.00  0.00    -0.001 C 
ATOM     11  C   UNL     1      33.219 -20.942 -20.026  0.00  0.00    -0.000 C 
ATOM     12  C   UNL     1      35.599 -21.313 -19.861  0.00  0.00    -0.000 C 
ATOM     13  C   UNL     1      34.293 -21.713 -19.583  0.00  0.00    -0.000 C 
ENDBRANCH   1   8
BRANCH   1  15
ATOM     14  O   UNL     1      34.427 -19.290 -23.865  0.00  0.00    -0.247 OA
ATOM     15  C   UNL     1      34.805 -18.267 -23.307  0.00  0.00    +0.349 C 
BRANCH  15  16
ATOM     16  O   UNL     1      35.068 -17.084 -23.952  0.00  0.00    -0.452 OA
BRANCH  16  20
ATOM     17  N   UNL     1      33.323 -14.013 -24.856  0.00  0.00    +0.392 N 
ATOM     18  C   UNL     1      34.146 -14.843 -23.850  0.00  0.00    -0.029 C 
ATOM     19  C   UNL     1      32.855 -15.006 -25.938  0.00  0.00    -0.069 C 
ATOM     20  C   UNL     1      33.944 -16.288 -24.273  0.00  0.00    +0.147 C 
ATOM     21  C   UNL     1      33.775 -16.196 -25.775  0.00  0.00    +0.019 C 
BRANCH  17  22
ATOM     22  C   UNL     1      32.124 -13.372 -24.173  0.00  0.00    -0.073 C 
ATOM     23  C   UNL     1      32.584 -12.674 -22.911  0.00  0.00    -0.024 C 
ENDBRANCH  17  22
BRANCH  17  24
ATOM     24  C   UNL     1      34.187 -12.923 -25.473  0.00  0.00    -0.073 C 
ATOM     25  C   UNL     1      33.613 -12.533 -26.817  0.00  0.00    -0.024 C 
ENDBRANCH  17  24
ENDBRANCH  16  20
ENDBRANCH  15  16
ENDBRANCH   1  15
BRANCH   1  26
ATOM     26  O   UNL     1      36.413 -17.802 -21.795  0.00  0.00    -0.370 OA
ATOM     27  H   UNL     1      36.930 -18.623 -21.796  0.00  0.00    +0.212 HD
ENDBRANCH   1  26
TORSDOF 8
ENDMDL
MODEL 4
REMARK VINA RESULT:      -8.3      2.011      6.993
REMARK  Name = 66248
REMARK  8 active torsions:
REMARK  status: ('A' for Active; 'I' for Inactive)
REMARK    1  A    between atoms: C_1  and  C_2
REMARK    2  A    between atoms: C_1  and  C_8
REMARK    3  A    between atoms: C_1  and  C_15
REMARK    4  A    between atoms: C_1  and  O_26
REMARK    5  A    between atoms: C_15  and  O_16
REMARK    6  A    between atoms: O_16  and  C_20
REMARK    7  A    between atoms: N_17  and  C_22
REMARK    8  A    between atoms: N_17  and  C_24
REMARK                            x       y       z     vdW  Elec       q    Type
REMARK                         _______ _______ _______ _____ _____    ______ ____
ROOT
ATOM      1  C   UNL     1      34.760 -17.988 -21.495  0.00  0.00    +0.216 C 
ENDROOT
BRANCH   1   2
ATOM      2  C   UNL     1      34.532 -19.318 -20.774  0.00  0.00    +0.016 C 
ATOM      3  C   UNL     1      35.629 -20.032 -20.349  0.00  0.00    -0.001 C 
ATOM      4  C   UNL     1      33.241 -19.750 -20.578  0.00  0.00    -0.001 C 
ATOM      5  C   UNL     1      35.422 -21.246 -19.691  0.00  0.00    -0.000 C 
ATOM      6  C   UNL     1      33.034 -20.963 -19.922  0.00  0.00    -0.000 C 
ATOM      7  C   UNL     1      34.125 -21.710 -19.478  0.00  0.00    -0.000 C 
ENDBRANCH   1   2
BRANCH   1   8
ATOM      8  C   UNL     1      34.710 -18.175 -23.013  0.00  0.00    +0.016 C 
ATOM      9  C   UNL     1      34.670 -17.057 -23.814  0.00  0.00    -0.001 C 
ATOM     10  C   UNL     1      34.706 -19.455 -23.519  0.00  0.00    -0.001 C 
ATOM     11  C   UNL     1      34.625 -17.228 -25.197  0.00  0.00    -0.000 C 
ATOM     12  C   UNL     1      34.660 -19.625 -24.902  0.00  0.00    -0.000 C 
ATOM     13  C   UNL     1      34.619 -18.511 -25.742  0.00  0.00    -0.000 C 
ENDBRANCH   1   8
BRANCH   1  15
ATOM     14  O   UNL     1      32.630 -16.944 -20.891  0.00  0.00    -0.247 OA
ATOM     15  C   UNL     1      33.851 -16.872 -20.975  0.00  0.00    +0.349 C 
BRANCH  15  16
ATOM     16  O   UNL     1      34.592 -15.786 -20.577  0.00  0.00    -0.452 OA
BRANCH  16  20
ATOM     17  N   UNL     1      33.226 -13.463 -23.033  0.00  0.00    +0.392 N 
ATOM     18  C   UNL     1      34.343 -14.417 -22.563  0.00  0.00    -0.029 C 
ATOM     19  C   UNL     1      32.322 -13.237 -21.805  0.00  0.00    -0.069 C 
ATOM     20  C   UNL     1      34.160 -14.529 -21.059  0.00  0.00    +0.147 C 
ATOM     21  C   UNL     1      32.664 -14.379 -20.875  0.00  0.00    +0.019 C 
BRANCH  17  22
ATOM     22  C   UNL     1      33.810 -12.142 -23.510  0.00  0.00    -0.073 C 
ATOM     23  C   UNL     1      32.868 -11.018 -23.138  0.00  0.00    -0.024 C 
ENDBRANCH  17  22
BRANCH  17  24
ATOM     24  C   UNL     1      32.433 -14.097 -24.166  0.00  0.00    -0.073 C 
ATOM     25  C   UNL     1      33.153 -13.855 -25.475  0.00  0.00    -0.024 C 
ENDBRANCH  17  24
ENDBRANCH  16  20
ENDBRANCH  15  16
ENDBRANCH   1  15
BRANCH   1  26
ATOM     26  O   UNL     1      36.032 -17.434 -21.101  0.00  0.00    -0.370 OA
ATOM     27  H   UNL     1      36.649 -18.154 -20.897  0.00  0.00    +0.212 HD
ENDBRANCH   1  26
TORSDOF 8
ENDMDL
MODEL 5
REMARK VINA RESULT:      -8.3      2.516      7.111
REMARK  Name = 66248
REMARK  8 active torsions:
REMARK  status: ('A' for Active; 'I' for Inactive)
REMARK    1  A    between atoms: C_1  and  C_2
REMARK    2  A    between atoms: C_1  and  C_8
REMARK    3  A    between atoms: C_1  and  C_15
REMARK    4  A    between atoms: C_1  and  O_26
REMARK    5  A    between atoms: C_15  and  O_16
REMARK    6  A    between atoms: O_16  and  C_20
REMARK    7  A    between atoms: N_17  and  C_22
REMARK    8  A    between atoms: N_17  and  C_24
REMARK                            x       y       z     vdW  Elec       q    Type
REMARK                         _______ _______ _______ _____ _____    ______ ____
ROOT
ATOM      1  C   UNL     1      33.843 -14.335 -23.299  0.00  0.00    +0.216 C 
ENDROOT
BRANCH   1   2
ATOM      2  C   UNL     1      34.389 -15.764 -23.307  0.00  0.00    +0.016 C 
ATOM      3  C   UNL     1      34.362 -16.473 -24.487  0.00  0.00    -0.001 C 
ATOM      4  C   UNL     1      34.888 -16.286 -22.136  0.00  0.00    -0.001 C 
ATOM      5  C   UNL     1      34.861 -17.776 -24.494  0.00  0.00    -0.000 C 
ATOM      6  C   UNL     1      35.385 -17.589 -22.144  0.00  0.00    -0.000 C 
ATOM      7  C   UNL     1      35.371 -18.334 -23.323  0.00  0.00    -0.000 C 
ENDBRANCH   1   2
BRANCH   1   8
ATOM      8  C   UNL     1      33.592 -13.839 -24.725  0.00  0.00    +0.016 C 
ATOM      9  C   UNL     1      34.087 -12.610 -25.092  0.00  0.00    -0.001 C 
ATOM     10  C   UNL     1      32.880 -14.643 -25.586  0.00  0.00    -0.001 C 
ATOM     11  C   UNL     1      33.858 -12.158 -26.392  0.00  0.00    -0.000 C 
ATOM     12  C   UNL     1      32.650 -14.191 -26.885  0.00  0.00    -0.000 C 
ATOM     13  C   UNL     1      33.139 -12.948 -27.288  0.00  0.00    -0.000 C 
ENDBRANCH   1   8
BRANCH   1  15
ATOM     14  O   UNL     1      32.393 -14.895 -21.409  0.00  0.00    -0.247 OA
ATOM     15  C   UNL     1      32.645 -14.166 -22.362  0.00  0.00    +0.349 C 
BRANCH  15  16
ATOM     16  O   UNL     1      31.908 -13.060 -22.708  0.00  0.00    -0.452 OA
BRANCH  16  20
ATOM     17  N   UNL     1      31.867  -9.474 -22.048  0.00  0.00    +0.392 N 
ATOM     18  C   UNL     1      32.351 -10.681 -22.877  0.00  0.00    -0.029 C 
ATOM     19  C   UNL     1      31.231 -10.066 -20.775  0.00  0.00    -0.069 C 
ATOM     20  C   UNL     1      32.167 -11.884 -21.967  0.00  0.00    +0.147 C 
ATOM     21  C   UNL     1      30.961 -11.512 -21.130  0.00  0.00    +0.019 C 
BRANCH  17  22
ATOM     22  C   UNL     1      33.033  -8.568 -21.684  0.00  0.00    -0.073 C 
ATOM     23  C   UNL     1      32.700  -7.814 -20.414  0.00  0.00    -0.024 C 
ENDBRANCH  17  22
BRANCH  17  24
ATOM     24  C   UNL     1      30.838  -8.674 -22.833  0.00  0.00    -0.073 C 
ATOM     25  C   UNL     1      31.535  -7.915 -23.940  0.00  0.00    -0.024 C 
ENDBRANCH  17  24
ENDBRANCH  16  20
ENDBRANCH  15  16
ENDBRANCH   1  15
BRANCH   1  26
ATOM     26  O   UNL     1      34.773 -13.464 -22.624  0.00  0.00    -0.370 OA
ATOM     27  H   UNL     1      34.947 -12.685 -23.176  0.00  0.00    +0.212 HD
ENDBRANCH   1  26
TORSDOF 8
ENDMDL
MODEL 6
REMARK VINA RESULT:      -8.3      6.319     10.424
REMARK  Name = 66248
REMARK  8 active torsions:
REMARK  status: ('A' for Active; 'I' for Inactive)
REMARK    1  A    between atoms: C_1  and  C_2
REMARK    2  A    between atoms: C_1  and  C_8
REMARK    3  A    between atoms: C_1  and  C_15
REMARK    4  A    between atoms: C_1  and  O_26
REMARK    5  A    between atoms: C_15  and  O_16
REMARK    6  A    between atoms: O_16  and  C_20
REMARK    7  A    between atoms: N_17  and  C_22
REMARK    8  A    between atoms: N_17  and  C_24
REMARK                            x       y       z     vdW  Elec       q    Type
REMARK                         _______ _______ _______ _____ _____    ______ ____
ROOT
ATOM      1  C   UNL     1      32.618  -8.471 -22.632  0.00  0.00    +0.216 C 
ENDROOT
BRANCH   1   2
ATOM      2  C   UNL     1      32.105  -9.330 -21.475  0.00  0.00    +0.016 C 
ATOM      3  C   UNL     1      32.307  -8.888 -20.187  0.00  0.00    -0.001 C 
ATOM      4  C   UNL     1      31.460 -10.510 -21.764  0.00  0.00    -0.001 C 
ATOM      5  C   UNL     1      31.839  -9.671 -19.131  0.00  0.00    -0.000 C 
ATOM      6  C   UNL     1      30.994 -11.293 -20.709  0.00  0.00    -0.000 C 
ATOM      7  C   UNL     1      31.183 -10.873 -19.392  0.00  0.00    -0.000 C 
ENDBRANCH   1   2
BRANCH   1   8
ATOM      8  C   UNL     1      33.455  -9.307 -23.602  0.00  0.00    +0.016 C 
ATOM      9  C   UNL     1      34.575  -8.740 -24.165  0.00  0.00    -0.001 C 
ATOM     10  C   UNL     1      33.055 -10.596 -23.875  0.00  0.00    -0.001 C 
ATOM     11  C   UNL     1      35.337  -9.503 -25.049  0.00  0.00    -0.000 C 
ATOM     12  C   UNL     1      33.818 -11.358 -24.760  0.00  0.00    -0.000 C 
ATOM     13  C   UNL     1      34.959 -10.811 -25.347  0.00  0.00    -0.000 C 
ENDBRANCH   1   8
BRANCH   1  15
ATOM     14  O   UNL     1      30.556  -8.148 -23.910  0.00  0.00    -0.247 OA
ATOM     15  C   UNL     1      31.506  -7.663 -23.306  0.00  0.00    +0.349 C 
BRANCH  15  16
ATOM     16  O   UNL     1      31.695  -6.317 -23.110  0.00  0.00    -0.452 OA
BRANCH  16  20
ATOM     17  N   UNL     1      31.417  -3.155 -24.905  0.00  0.00    +0.392 N 
ATOM     18  C   UNL     1      31.024  -4.069 -23.727  0.00  0.00    -0.029 C 
ATOM     19  C   UNL     1      32.146  -4.062 -25.916  0.00  0.00    -0.069 C 
ATOM     20  C   UNL     1      31.349  -5.477 -24.195  0.00  0.00    +0.147 C 
ATOM     21  C   UNL     1      32.540  -5.279 -25.109  0.00  0.00    +0.019 C 
BRANCH  17  22
ATOM     22  C   UNL     1      30.182  -2.538 -25.544  0.00  0.00    -0.073 C 
ATOM     23  C   UNL     1      30.583  -1.829 -26.820  0.00  0.00    -0.024 C 
ENDBRANCH  17  22
BRANCH  17  24
ATOM     24  C   UNL     1      32.340  -2.044 -24.426  0.00  0.00    -0.073 C 
ATOM     25  C   UNL     1      32.088  -1.786 -22.957  0.00  0.00    -0.024 C 
ENDBRANCH  17  24
ENDBRANCH  16  20
ENDBRANCH  15  16
ENDBRANCH   1  15
BRANCH   1  26
ATOM     26  O   UNL     1      33.400  -7.375 -22.114  0.00  0.00    -0.370 OA
ATOM     27  H   UNL     1      34.168  -7.226 -22.688  0.00  0.00    +0.212 HD
ENDBRANCH   1  26
TORSDOF 8
ENDMDL
MODEL 7
REMARK VINA RESULT:      -8.3      7.933     11.247
REMARK  Name = 66248
REMARK  8 active torsions:
REMARK  status: ('A' for Active; 'I' for Inactive)
REMARK    1  A    between atoms: C_1  and  C_2
REMARK    2  A    between atoms: C_1  and  C_8
REMARK    3  A    between atoms: C_1  and  C_15
REMARK    4  A    between atoms: C_1  and  O_26
REMARK    5  A    between atoms: C_15  and  O_16
REMARK    6  A    between atoms: O_16  and  C_20
REMARK    7  A    between atoms: N_17  and  C_22
REMARK    8  A    between atoms: N_17  and  C_24
REMARK                            x       y       z     vdW  Elec       q    Type
REMARK                         _______ _______ _______ _____ _____    ______ ____
ROOT
ATOM      1  C   UNL     1      33.796 -23.262 -17.267  0.00  0.00    +0.216 C 
ENDROOT
BRANCH   1   2
ATOM      2  C   UNL     1      32.518 -23.055 -16.453  0.00  0.00    +0.016 C 
ATOM      3  C   UNL     1      32.628 -22.848 -15.096  0.00  0.00    -0.001 C 
ATOM      4  C   UNL     1      31.308 -23.081 -17.106  0.00  0.00    -0.001 C 
ATOM      5  C   UNL     1      31.461 -22.658 -14.354  0.00  0.00    -0.000 C 
ATOM      6  C   UNL     1      30.142 -22.893 -16.364  0.00  0.00    -0.000 C 
ATOM      7  C   UNL     1      30.220 -22.681 -14.987  0.00  0.00    -0.000 C 
ENDBRANCH   1   2
BRANCH   1   8
ATOM      8  C   UNL     1      33.901 -22.228 -18.390  0.00  0.00    +0.016 C 
ATOM      9  C   UNL     1      32.751 -21.617 -18.833  0.00  0.00    -0.001 C 
ATOM     10  C   UNL     1      35.143 -21.949 -18.914  0.00  0.00    -0.001 C 
ATOM     11  C   UNL     1      32.848 -20.674 -19.857  0.00  0.00    -0.000 C 
ATOM     12  C   UNL     1      35.238 -21.007 -19.938  0.00  0.00    -0.000 C 
ATOM     13  C   UNL     1      34.091 -20.369 -20.409  0.00  0.00    -0.000 C 
ENDBRANCH   1   8
BRANCH   1  15
ATOM     14  O   UNL     1      35.853 -22.450 -16.219  0.00  0.00    -0.247 OA
ATOM     15  C   UNL     1      35.047 -23.357 -16.390  0.00  0.00    +0.349 C 
BRANCH  15  16
ATOM     16  O   UNL     1      35.125 -24.589 -15.786  0.00  0.00    -0.452 OA
BRANCH  16  20
ATOM     17  N   UNL     1      37.818 -25.513 -13.507  0.00  0.00    +0.392 N 
ATOM     18  C   UNL     1      36.864 -24.456 -14.100  0.00  0.00    -0.029 C 
ATOM     19  C   UNL     1      37.718 -26.738 -14.437  0.00  0.00    -0.069 C 
ATOM     20  C   UNL     1      36.424 -25.027 -15.437  0.00  0.00    +0.147 C 
ATOM     21  C   UNL     1      36.430 -26.523 -15.201  0.00  0.00    +0.019 C 
BRANCH  17  22
ATOM     22  C   UNL     1      39.246 -24.991 -13.473  0.00  0.00    -0.073 C 
ATOM     23  C   UNL     1      40.076 -25.744 -14.490  0.00  0.00    -0.024 C 
ENDBRANCH  17  22
BRANCH  17  24
ATOM     24  C   UNL     1      37.386 -25.882 -12.096  0.00  0.00    -0.073 C 
ATOM     25  C   UNL     1      36.247 -24.980 -11.671  0.00  0.00    -0.024 C 
ENDBRANCH  17  24
ENDBRANCH  16  20
ENDBRANCH  15  16
ENDBRANCH   1  15
BRANCH   1  26
ATOM     26  O   UNL     1      33.811 -24.597 -17.814  0.00  0.00    -0.370 OA
ATOM     27  H   UNL     1      34.624 -24.727 -18.327  0.00  0.00    +0.212 HD
ENDBRANCH   1  26
TORSDOF 8
ENDMDL
MODEL 8
REMARK VINA RESULT:      -8.1     10.070     12.767
REMARK  Name = 66248
REMARK  8 active torsions:
REMARK  status: ('A' for Active; 'I' for Inactive)
REMARK    1  A    between atoms: C_1  and  C_2
REMARK    2  A    between atoms: C_1  and  C_8
REMARK    3  A    between atoms: C_1  and  C_15
REMARK    4  A    between atoms: C_1  and  O_26
REMARK    5  A    between atoms: C_15  and  O_16
REMARK    6  A    between atoms: O_16  and  C_20
REMARK    7  A    between atoms: N_17  and  C_22
REMARK    8  A    between atoms: N_17  and  C_24
REMARK                            x       y       z     vdW  Elec       q    Type
REMARK                         _______ _______ _______ _____ _____    ______ ____
ROOT
ATOM      1  C   UNL     1      32.020 -23.210 -14.878  0.00  0.00    +0.216 C 
ENDROOT
BRANCH   1   2
ATOM      2  C   UNL     1      32.940 -22.992 -16.081  0.00  0.00    +0.016 C 
ATOM      3  C   UNL     1      34.301 -22.997 -15.878  0.00  0.00    -0.001 C 
ATOM      4  C   UNL     1      32.373 -22.800 -17.319  0.00  0.00    -0.001 C 
ATOM      5  C   UNL     1      35.141 -22.798 -16.975  0.00  0.00    -0.000 C 
ATOM      6  C   UNL     1      33.212 -22.600 -18.415  0.00  0.00    -0.000 C 
ATOM      7  C   UNL     1      34.596 -22.600 -18.243  0.00  0.00    -0.000 C 
ENDBRANCH   1   2
BRANCH   1   8
ATOM      8  C   UNL     1      30.562 -23.344 -15.325  0.00  0.00    +0.016 C 
ATOM      9  C   UNL     1      29.705 -22.293 -15.100  0.00  0.00    -0.001 C 
ATOM     10  C   UNL     1      30.165 -24.513 -15.933  0.00  0.00    -0.001 C 
ATOM     11  C   UNL     1      28.376 -22.416 -15.508  0.00  0.00    -0.000 C 
ATOM     12  C   UNL     1      28.837 -24.636 -16.339  0.00  0.00    -0.000 C 
ATOM     13  C   UNL     1      27.942 -23.587 -16.127  0.00  0.00    -0.000 C 
ENDBRANCH   1   8
BRANCH   1  15
ATOM     14  O   UNL     1      32.091 -25.497 -14.011  0.00  0.00    -0.247 OA
ATOM     15  C   UNL     1      32.498 -24.342 -13.966  0.00  0.00    +0.349 C 
BRANCH  15  16
ATOM     16  O   UNL     1      33.477 -23.898 -13.111  0.00  0.00    -0.452 OA
BRANCH  16  20
ATOM     17  N   UNL     1      36.846 -25.265 -13.393  0.00  0.00    +0.392 N 
ATOM     18  C   UNL     1      35.476 -24.930 -14.018  0.00  0.00    -0.029 C 
ATOM     19  C   UNL     1      36.662 -25.114 -11.870  0.00  0.00    -0.069 C 
ATOM     20  C   UNL     1      34.524 -24.810 -12.840  0.00  0.00    +0.147 C 
ATOM     21  C   UNL     1      35.406 -24.284 -11.727  0.00  0.00    +0.019 C 
BRANCH  17  22
ATOM     22  C   UNL     1      37.262 -26.687 -13.737  0.00  0.00    -0.073 C 
ATOM     23  C   UNL     1      36.891 -26.981 -15.175  0.00  0.00    -0.024 C 
ENDBRANCH  17  22
BRANCH  17  24
ATOM     24  C   UNL     1      37.907 -24.298 -13.898  0.00  0.00    -0.073 C 
ATOM     25  C   UNL     1      39.278 -24.838 -13.554  0.00  0.00    -0.024 C 
ENDBRANCH  17  24
ENDBRANCH  16  20
ENDBRANCH  15  16
ENDBRANCH   1  15
BRANCH   1  26
ATOM     26  O   UNL     1      32.160 -22.111 -13.954  0.00  0.00    -0.370 OA
ATOM     27  H   UNL     1      31.371 -22.058 -13.393  0.00  0.00    +0.212 HD
ENDBRANCH   1  26
TORSDOF 8
ENDMDL
MODEL 9
REMARK VINA RESULT:      -7.9      9.731     12.717
REMARK  Name = 66248
REMARK  8 active torsions:
REMARK  status: ('A' for Active; 'I' for Inactive)
REMARK    1  A    between atoms: C_1  and  C_2
REMARK    2  A    between atoms: C_1  and  C_8
REMARK    3  A    between atoms: C_1  and  C_15
REMARK    4  A    between atoms: C_1  and  O_26
REMARK    5  A    between atoms: C_15  and  O_16
REMARK    6  A    between atoms: O_16  and  C_20
REMARK    7  A    between atoms: N_17  and  C_22
REMARK    8  A    between atoms: N_17  and  C_24
REMARK                            x       y       z     vdW  Elec       q    Type
REMARK                         _______ _______ _______ _____ _____    ______ ____
ROOT
ATOM      1  C   UNL     1      33.739 -23.434 -15.203  0.00  0.00    +0.216 C 
ENDROOT
BRANCH   1   2
ATOM      2  C   UNL     1      34.177 -23.033 -16.613  0.00  0.00    +0.016 C 
ATOM      3  C   UNL     1      33.348 -23.335 -17.670  0.00  0.00    -0.001 C 
ATOM      4  C   UNL     1      35.380 -22.386 -16.771  0.00  0.00    -0.001 C 
ATOM      5  C   UNL     1      33.748 -22.970 -18.956  0.00  0.00    -0.000 C 
ATOM      6  C   UNL     1      35.779 -22.022 -18.057  0.00  0.00    -0.000 C 
ATOM      7  C   UNL     1      34.963 -22.314 -19.149  0.00  0.00    -0.000 C 
ENDBRANCH   1   2
BRANCH   1   8
ATOM      8  C   UNL     1      32.238 -23.733 -15.162  0.00  0.00    +0.016 C 
ATOM      9  C   UNL     1      31.821 -24.943 -14.659  0.00  0.00    -0.001 C 
ATOM     10  C   UNL     1      31.364 -22.779 -15.631  0.00  0.00    -0.001 C 
ATOM     11  C   UNL     1      30.454 -25.216 -14.622  0.00  0.00    -0.000 C 
ATOM     12  C   UNL     1      29.997 -23.053 -15.594  0.00  0.00    -0.000 C 
ATOM     13  C   UNL     1      29.542 -24.271 -15.090  0.00  0.00    -0.000 C 
ENDBRANCH   1   8
BRANCH   1  15
ATOM     14  O   UNL     1      34.700 -24.794 -13.410  0.00  0.00    -0.247 OA
ATOM     15  C   UNL     1      34.611 -24.541 -14.606  0.00  0.00    +0.349 C 
BRANCH  15  16
ATOM     16  O   UNL     1      35.254 -25.242 -15.597  0.00  0.00    -0.452 OA
BRANCH  16  20
ATOM     17  N   UNL     1      38.407 -25.157 -13.766  0.00  0.00    +0.392 N 
ATOM     18  C   UNL     1      37.318 -24.450 -14.598  0.00  0.00    -0.029 C 
ATOM     19  C   UNL     1      38.137 -26.667 -13.917  0.00  0.00    -0.069 C 
ATOM     20  C   UNL     1      36.609 -25.564 -15.349  0.00  0.00    +0.147 C 
ATOM     21  C   UNL     1      36.707 -26.744 -14.405  0.00  0.00    +0.019 C 
BRANCH  17  22
ATOM     22  C   UNL     1      39.793 -24.814 -14.289  0.00  0.00    -0.073 C 
ATOM     23  C   UNL     1      40.554 -26.093 -14.561  0.00  0.00    -0.024 C 
ENDBRANCH  17  22
BRANCH  17  24
ATOM     24  C   UNL     1      38.307 -24.744 -12.305  0.00  0.00    -0.073 C 
ATOM     25  C   UNL     1      37.641 -23.388 -12.215  0.00  0.00    -0.024 C 
ENDBRANCH  17  24
ENDBRANCH  16  20
ENDBRANCH  15  16
ENDBRANCH   1  15
BRANCH   1  26
ATOM     26  O   UNL     1      34.063 -22.377 -14.276  0.00  0.00    -0.370 OA
ATOM     27  H   UNL     1      33.272 -21.841 -14.107  0.00  0.00    +0.212 HD
ENDBRANCH   1  26
TORSDOF 8
ENDMDL
