MODEL 1
REMARK VINA RESULT:      -9.3      0.000      0.000
REMARK  Name = 93154
REMARK  1 active torsions:
REMARK  status: ('A' for Active; 'I' for Inactive)
REMARK    1  A    between atoms: N_1  and  C_18
REMARK                            x       y       z     vdW  Elec       q    Type
REMARK                         _______ _______ _______ _____ _____    ______ ____
ROOT
ATOM      1  N   UNL     1      32.786  -8.865 -22.404  0.00  0.00    -0.291 N 
ATOM      2  C   UNL     1      32.252  -9.488 -21.247  0.00  0.00    +0.047 C 
ATOM      3  C   UNL     1      33.542  -9.459 -23.452  0.00  0.00    +0.047 C 
ATOM      4  C   UNL     1      31.479 -10.657 -21.329  0.00  0.00    -0.008 C 
ATOM      5  C   UNL     1      33.444 -10.820 -23.834  0.00  0.00    -0.008 C 
ATOM      6  C   UNL     1      31.197 -11.287 -22.662  0.00  0.00    +0.032 C 
ATOM      7  C   UNL     1      32.483 -11.838 -23.255  0.00  0.00    +0.032 C 
ATOM      8  C   UNL     1      32.475  -8.938 -19.966  0.00  0.00    +0.015 C 
ATOM      9  C   UNL     1      34.499  -8.675 -24.150  0.00  0.00    +0.015 C 
ATOM     10  C   UNL     1      30.953 -11.245 -20.163  0.00  0.00    -0.003 C 
ATOM     11  C   UNL     1      34.301 -11.331 -24.839  0.00  0.00    -0.003 C 
ATOM     12  C   UNL     1      31.953  -9.527 -18.814  0.00  0.00    +0.001 C 
ATOM     13  C   UNL     1      35.322  -9.194 -25.154  0.00  0.00    +0.001 C 
ATOM     14  C   UNL     1      31.189 -10.682 -18.913  0.00  0.00    -0.000 C 
ATOM     15  C   UNL     1      35.226 -10.529 -25.496  0.00  0.00    -0.000 C 
ENDROOT
BRANCH   1  18
ATOM     16  N   UNL     1      32.310  -5.846 -24.336  0.00  0.00    +0.388 N 
ATOM     17  C   UNL     1      31.168  -6.989 -22.297  0.00  0.00    +0.012 C 
ATOM     18  C   UNL     1      32.649  -7.399 -22.408  0.00  0.00    +0.056 C 
ATOM     19  C   UNL     1      31.140  -5.457 -22.158  0.00  0.00    -0.021 C 
ATOM     20  C   UNL     1      30.441  -7.334 -23.609  0.00  0.00    -0.021 C 
ATOM     21  C   UNL     1      33.248  -6.796 -23.693  0.00  0.00    -0.057 C 
ATOM     22  C   UNL     1      31.893  -4.829 -23.344  0.00  0.00    -0.077 C 
ATOM     23  C   UNL     1      31.115  -6.598 -24.778  0.00  0.00    -0.077 C 
ATOM     24  H   UNL     1      32.760  -5.389 -25.129  0.00  0.00    -0.080 HD
ENDBRANCH   1  18
TORSDOF 1
ENDMDL
MODEL 2
REMARK VINA RESULT:      -8.4     14.595     17.546
REMARK  Name = 93154
REMARK  1 active torsions:
REMARK  status: ('A' for Active; 'I' for Inactive)
REMARK    1  A    between atoms: N_1  and  C_18
REMARK                            x       y       z     vdW  Elec       q    Type
REMARK                         _______ _______ _______ _____ _____    ______ ____
ROOT
ATOM      1  N   UNL     1      34.632 -23.852 -15.415  0.00  0.00    -0.291 N 
ATOM      2  C   UNL     1      35.330 -23.008 -16.317  0.00  0.00    +0.047 C 
ATOM      3  C   UNL     1      33.260 -23.800 -15.046  0.00  0.00    +0.047 C 
ATOM      4  C   UNL     1      34.849 -22.754 -17.612  0.00  0.00    -0.008 C 
ATOM      5  C   UNL     1      32.230 -23.292 -15.875  0.00  0.00    -0.008 C 
ATOM      6  C   UNL     1      33.565 -23.376 -18.078  0.00  0.00    +0.032 C 
ATOM      7  C   UNL     1      32.397 -22.796 -17.297  0.00  0.00    +0.032 C 
ATOM      8  C   UNL     1      36.548 -22.401 -15.939  0.00  0.00    +0.015 C 
ATOM      9  C   UNL     1      32.870 -24.236 -13.751  0.00  0.00    +0.015 C 
ATOM     10  C   UNL     1      35.570 -21.921 -18.487  0.00  0.00    -0.003 C 
ATOM     11  C   UNL     1      30.905 -23.211 -15.381  0.00  0.00    -0.003 C 
ATOM     12  C   UNL     1      37.257 -21.575 -16.812  0.00  0.00    +0.001 C 
ATOM     13  C   UNL     1      31.553 -24.167 -13.289  0.00  0.00    +0.001 C 
ATOM     14  C   UNL     1      36.768 -21.335 -18.089  0.00  0.00    -0.000 C 
ATOM     15  C   UNL     1      30.567 -23.648 -14.105  0.00  0.00    -0.000 C 
ENDROOT
BRANCH   1  18
ATOM     16  N   UNL     1      37.907 -24.541 -14.044  0.00  0.00    +0.388 N 
ATOM     17  C   UNL     1      35.458 -24.492 -13.166  0.00  0.00    +0.012 C 
ATOM     18  C   UNL     1      35.502 -24.784 -14.679  0.00  0.00    +0.056 C 
ATOM     19  C   UNL     1      36.271 -25.600 -12.475  0.00  0.00    -0.021 C 
ATOM     20  C   UNL     1      36.180 -23.163 -12.880  0.00  0.00    -0.021 C 
ATOM     21  C   UNL     1      36.957 -24.684 -15.173  0.00  0.00    -0.057 C 
ATOM     22  C   UNL     1      37.684 -25.642 -13.081  0.00  0.00    -0.077 C 
ATOM     23  C   UNL     1      37.635 -23.253 -13.367  0.00  0.00    -0.077 C 
ATOM     24  H   UNL     1      38.867 -24.570 -14.385  0.00  0.00    -0.080 HD
ENDBRANCH   1  18
TORSDOF 1
ENDMDL
MODEL 3
REMARK VINA RESULT:      -7.9     14.322     17.506
REMARK  Name = 93154
REMARK  1 active torsions:
REMARK  status: ('A' for Active; 'I' for Inactive)
REMARK    1  A    between atoms: N_1  and  C_18
REMARK                            x       y       z     vdW  Elec       q    Type
REMARK                         _______ _______ _______ _____ _____    ______ ____
ROOT
ATOM      1  N   UNL     1      34.930 -23.148 -15.316  0.00  0.00    -0.291 N 
ATOM      2  C   UNL     1      35.475 -22.517 -16.464  0.00  0.00    +0.047 C 
ATOM      3  C   UNL     1      33.565 -23.241 -14.929  0.00  0.00    +0.047 C 
ATOM      4  C   UNL     1      34.984 -22.781 -17.753  0.00  0.00    -0.008 C 
ATOM      5  C   UNL     1      32.476 -23.224 -15.835  0.00  0.00    -0.008 C 
ATOM      6  C   UNL     1      33.853 -23.748 -17.949  0.00  0.00    +0.032 C 
ATOM      7  C   UNL     1      32.578 -23.182 -17.346  0.00  0.00    +0.032 C 
ATOM      8  C   UNL     1      36.545 -21.604 -16.344  0.00  0.00    +0.015 C 
ATOM      9  C   UNL     1      33.235 -23.310 -13.549  0.00  0.00    +0.015 C 
ATOM     10  C   UNL     1      35.553 -22.148 -18.874  0.00  0.00    -0.003 C 
ATOM     11  C   UNL     1      31.149 -23.242 -15.340  0.00  0.00    -0.003 C 
ATOM     12  C   UNL     1      37.104 -20.978 -17.459  0.00  0.00    +0.001 C 
ATOM     13  C   UNL     1      31.919 -23.347 -13.080  0.00  0.00    +0.001 C 
ATOM     14  C   UNL     1      36.607 -21.252 -18.727  0.00  0.00    -0.000 C 
ATOM     15  C   UNL     1      30.871 -23.308 -13.980  0.00  0.00    -0.000 C 
ENDROOT
BRANCH   1  18
ATOM     16  N   UNL     1      36.115 -25.820 -13.188  0.00  0.00    +0.388 N 
ATOM     17  C   UNL     1      37.094 -24.338 -15.090  0.00  0.00    +0.012 C 
ATOM     18  C   UNL     1      35.944 -23.618 -14.358  0.00  0.00    +0.056 C 
ATOM     19  C   UNL     1      38.164 -24.656 -14.032  0.00  0.00    -0.021 C 
ATOM     20  C   UNL     1      36.589 -25.686 -15.636  0.00  0.00    -0.021 C 
ATOM     21  C   UNL     1      35.320 -24.576 -13.325  0.00  0.00    -0.057 C 
ATOM     22  C   UNL     1      37.522 -25.466 -12.891  0.00  0.00    -0.077 C 
ATOM     23  C   UNL     1      36.068 -26.548 -14.474  0.00  0.00    -0.077 C 
ATOM     24  H   UNL     1      35.740 -26.397 -12.435  0.00  0.00    -0.080 HD
ENDBRANCH   1  18
TORSDOF 1
ENDMDL
MODEL 4
REMARK VINA RESULT:      -7.5      3.214      6.260
REMARK  Name = 93154
REMARK  1 active torsions:
REMARK  status: ('A' for Active; 'I' for Inactive)
REMARK    1  A    between atoms: N_1  and  C_18
REMARK                            x       y       z     vdW  Elec       q    Type
REMARK                         _______ _______ _______ _____ _____    ______ ____
ROOT
ATOM      1  N   UNL     1      32.656 -13.016 -23.411  0.00  0.00    -0.291 N 
ATOM      2  C   UNL     1      32.309 -11.792 -22.783  0.00  0.00    +0.047 C 
ATOM      3  C   UNL     1      33.001 -13.237 -24.773  0.00  0.00    +0.047 C 
ATOM      4  C   UNL     1      33.108 -10.644 -22.911  0.00  0.00    -0.008 C 
ATOM      5  C   UNL     1      33.591 -12.263 -25.615  0.00  0.00    -0.008 C 
ATOM      6  C   UNL     1      34.365 -10.685 -23.731  0.00  0.00    +0.032 C 
ATOM      7  C   UNL     1      34.019 -10.871 -25.199  0.00  0.00    +0.032 C 
ATOM      8  C   UNL     1      31.143 -11.695 -21.992  0.00  0.00    +0.015 C 
ATOM      9  C   UNL     1      32.704 -14.491 -25.371  0.00  0.00    +0.015 C 
ATOM     10  C   UNL     1      32.743  -9.448 -22.266  0.00  0.00    -0.003 C 
ATOM     11  C   UNL     1      33.822 -12.561 -26.981  0.00  0.00    -0.003 C 
ATOM     12  C   UNL     1      30.786 -10.505 -21.356  0.00  0.00    +0.001 C 
ATOM     13  C   UNL     1      32.958 -14.773 -26.716  0.00  0.00    +0.001 C 
ATOM     14  C   UNL     1      31.588  -9.380 -21.493  0.00  0.00    -0.000 C 
ATOM     15  C   UNL     1      33.514 -13.801 -27.526  0.00  0.00    -0.000 C 
ENDROOT
BRANCH   1  18
ATOM     16  N   UNL     1      34.096 -16.029 -22.025  0.00  0.00    +0.388 N 
ATOM     17  C   UNL     1      32.924 -13.894 -21.108  0.00  0.00    +0.012 C 
ATOM     18  C   UNL     1      32.479 -14.198 -22.552  0.00  0.00    +0.056 C 
ATOM     19  C   UNL     1      32.564 -15.128 -20.263  0.00  0.00    -0.021 C 
ATOM     20  C   UNL     1      34.457 -13.752 -21.064  0.00  0.00    -0.021 C 
ATOM     21  C   UNL     1      33.285 -15.394 -23.091  0.00  0.00    -0.057 C 
ATOM     22  C   UNL     1      33.215 -16.375 -20.887  0.00  0.00    -0.077 C 
ATOM     23  C   UNL     1      35.107 -15.052 -21.564  0.00  0.00    -0.077 C 
ATOM     24  H   UNL     1      34.547 -16.871 -22.379  0.00  0.00    -0.080 HD
ENDBRANCH   1  18
TORSDOF 1
ENDMDL
MODEL 5
REMARK VINA RESULT:      -6.4     14.355     17.118
REMARK  Name = 93154
REMARK  1 active torsions:
REMARK  status: ('A' for Active; 'I' for Inactive)
REMARK    1  A    between atoms: N_1  and  C_18
REMARK                            x       y       z     vdW  Elec       q    Type
REMARK                         _______ _______ _______ _____ _____    ______ ____
ROOT
ATOM      1  N   UNL     1      34.657 -23.819 -15.276  0.00  0.00    -0.291 N 
ATOM      2  C   UNL     1      35.298 -23.819 -14.011  0.00  0.00    +0.047 C 
ATOM      3  C   UNL     1      35.025 -23.101 -16.448  0.00  0.00    +0.047 C 
ATOM      4  C   UNL     1      36.678 -24.046 -13.883  0.00  0.00    -0.008 C 
ATOM      5  C   UNL     1      36.350 -22.704 -16.756  0.00  0.00    -0.008 C 
ATOM      6  C   UNL     1      37.520 -24.294 -15.100  0.00  0.00    +0.032 C 
ATOM      7  C   UNL     1      37.587 -23.035 -15.947  0.00  0.00    +0.032 C 
ATOM      8  C   UNL     1      34.557 -23.600 -12.829  0.00  0.00    +0.015 C 
ATOM      9  C   UNL     1      34.017 -22.701 -17.365  0.00  0.00    +0.015 C 
ATOM     10  C   UNL     1      37.282 -24.052 -12.612  0.00  0.00    -0.003 C 
ATOM     11  C   UNL     1      36.598 -21.923 -17.911  0.00  0.00    -0.003 C 
ATOM     12  C   UNL     1      35.163 -23.606 -11.572  0.00  0.00    +0.001 C 
ATOM     13  C   UNL     1      34.285 -21.947 -18.510  0.00  0.00    +0.001 C 
ATOM     14  C   UNL     1      36.528 -23.833 -11.463  0.00  0.00    -0.000 C 
ATOM     15  C   UNL     1      35.581 -21.551 -18.781  0.00  0.00    -0.000 C 
ENDROOT
BRANCH   1  18
ATOM     16  N   UNL     1      31.658 -24.765 -13.491  0.00  0.00    +0.388 N 
ATOM     17  C   UNL     1      32.232 -23.613 -15.753  0.00  0.00    +0.012 C 
ATOM     18  C   UNL     1      33.374 -24.541 -15.294  0.00  0.00    +0.056 C 
ATOM     19  C   UNL     1      30.973 -24.488 -15.882  0.00  0.00    -0.021 C 
ATOM     20  C   UNL     1      31.944 -22.573 -14.654  0.00  0.00    -0.021 C 
ATOM     21  C   UNL     1      33.042 -25.104 -13.899  0.00  0.00    -0.057 C 
ATOM     22  C   UNL     1      30.719 -25.208 -14.546  0.00  0.00    -0.077 C 
ATOM     23  C   UNL     1      31.560 -23.296 -13.352  0.00  0.00    -0.077 C 
ATOM     24  H   UNL     1      31.428 -25.224 -12.611  0.00  0.00    -0.080 HD
ENDBRANCH   1  18
TORSDOF 1
ENDMDL
