MODEL 1
REMARK VINA RESULT:     -12.5      0.000      0.000
REMARK  Name = 44462738
REMARK  5 active torsions:
REMARK  status: ('A' for Active; 'I' for Inactive)
REMARK    1  A    between atoms: N_1  and  C_17
REMARK    2  A    between atoms: C_8  and  C_30
REMARK    3  A    between atoms: C_12  and  N_19
REMARK    4  A    between atoms: N_18  and  C_26
REMARK    5  A    between atoms: C_33  and  C_36
REMARK                            x       y       z     vdW  Elec       q    Type
REMARK                         _______ _______ _______ _____ _____    ______ ____
ROOT
ATOM      1  N   UNL     1      34.255 -14.027 -24.584  0.00  0.00    -0.296 N 
ATOM      2  N   UNL     1      34.839 -15.058 -22.571  0.00  0.00    -0.225 NA
ATOM      3  N   UNL     1      34.407 -17.611 -23.612  0.00  0.00    -0.167 N 
ATOM      4  N   UNL     1      33.823 -16.783 -25.586  0.00  0.00    -0.203 NA
ATOM      5  N   UNL     1      34.114 -18.699 -24.365  0.00  0.00    -0.150 NA
ATOM      6  C   UNL     1      34.444 -15.158 -23.824  0.00  0.00    +0.166 C 
ATOM      7  C   UNL     1      34.217 -16.477 -24.375  0.00  0.00    +0.188 C 
ATOM      8  C   UNL     1      34.824 -17.473 -22.286  0.00  0.00    +0.098 C 
ATOM      9  C   UNL     1      35.021 -16.216 -21.832  0.00  0.00    +0.117 C 
ATOM     10  C   UNL     1      33.776 -18.144 -25.531  0.00  0.00    +0.219 C 
ATOM     11  H   UNL     1      34.411 -14.122 -25.551  0.00  0.00    +0.154 HD
ENDROOT
BRANCH   1  17
ATOM     12  C   UNL     1      33.087 -10.214 -23.266  0.00  0.00    +0.048 C 
ATOM     13  C   UNL     1      34.063 -10.342 -24.255  0.00  0.00    +0.016 C 
ATOM     14  C   UNL     1      32.500 -11.352 -22.715  0.00  0.00    +0.016 C 
ATOM     15  C   UNL     1      34.451 -11.608 -24.693  0.00  0.00    +0.016 C 
ATOM     16  C   UNL     1      32.887 -12.619 -23.152  0.00  0.00    +0.016 C 
ATOM     17  C   UNL     1      33.862 -12.747 -24.141  0.00  0.00    +0.050 C 
BRANCH  12  19
ATOM     18  N   UNL     1      31.622  -6.450 -23.610  0.00  0.00    +0.392 N 
ATOM     19  N   UNL     1      32.706  -8.968 -22.836  0.00  0.00    -0.313 N 
ATOM     20  C   UNL     1      32.556  -6.672 -22.481  0.00  0.00    -0.036 C 
ATOM     21  C   UNL     1      31.339  -8.516 -22.543  0.00  0.00    +0.050 C 
ATOM     22  C   UNL     1      31.606  -7.396 -21.532  0.00  0.00    -0.002 C 
ATOM     23  C   UNL     1      30.872  -7.717 -23.767  0.00  0.00    -0.057 C 
ATOM     24  C   UNL     1      33.587  -7.797 -22.759  0.00  0.00    +0.070 C 
ATOM     25  H   UNL     1      30.999  -5.671 -23.392  0.00  0.00    -0.079 HD
BRANCH  18  26
ATOM     26  C   UNL     1      32.242  -5.990 -24.840  0.00  0.00    -0.058 C 
ATOM     27  C   UNL     1      33.742  -6.268 -24.812  0.00  0.00    -0.023 C 
ATOM     28  C   UNL     1      31.963  -4.501 -25.023  0.00  0.00    -0.023 C 
ENDBRANCH  18  26
ENDBRANCH  12  19
ENDBRANCH   1  17
BRANCH   8  30
ATOM     29  O   UNL     1      36.137 -20.128 -20.123  0.00  0.00    -0.446 OA
ATOM     30  C   UNL     1      35.058 -18.637 -21.414  0.00  0.00    +0.058 C 
ATOM     31  C   UNL     1      34.119 -19.589 -20.952  0.00  0.00    +0.047 C 
ATOM     32  C   UNL     1      36.271 -19.009 -20.882  0.00  0.00    +0.181 C 
ATOM     33  C   UNL     1      34.825 -20.476 -20.172  0.00  0.00    +0.198 C 
BRANCH  33  36
ATOM     34  O   UNL     1      35.221 -22.357 -18.811  0.00  0.00    -0.267 OA
ATOM     35  N   UNL     1      33.048 -21.969 -19.434  0.00  0.00    -0.323 N 
ATOM     36  C   UNL     1      34.413 -21.631 -19.451  0.00  0.00    +0.277 C 
ATOM     37  H   UNL     1      32.744 -22.766 -18.940  0.00  0.00    +0.145 HD
ATOM     38  H   UNL     1      32.396 -21.411 -19.916  0.00  0.00    +0.145 HD
ENDBRANCH  33  36
ENDBRANCH   8  30
TORSDOF 5
ENDMDL
MODEL 2
REMARK VINA RESULT:     -11.9      4.743      9.883
REMARK  Name = 44462738
REMARK  5 active torsions:
REMARK  status: ('A' for Active; 'I' for Inactive)
REMARK    1  A    between atoms: N_1  and  C_17
REMARK    2  A    between atoms: C_8  and  C_30
REMARK    3  A    between atoms: C_12  and  N_19
REMARK    4  A    between atoms: N_18  and  C_26
REMARK    5  A    between atoms: C_33  and  C_36
REMARK                            x       y       z     vdW  Elec       q    Type
REMARK                         _______ _______ _______ _____ _____    ______ ____
ROOT
ATOM      1  N   UNL     1      32.780 -22.393 -18.852  0.00  0.00    -0.296 N 
ATOM      2  N   UNL     1      34.602 -22.716 -17.427  0.00  0.00    -0.225 NA
ATOM      3  N   UNL     1      32.998 -23.810 -15.423  0.00  0.00    -0.167 N 
ATOM      4  N   UNL     1      31.170 -23.567 -16.657  0.00  0.00    -0.203 NA
ATOM      5  N   UNL     1      31.995 -24.282 -14.643  0.00  0.00    -0.150 NA
ATOM      6  C   UNL     1      33.309 -22.818 -17.655  0.00  0.00    +0.166 C 
ATOM      7  C   UNL     1      32.467 -23.385 -16.623  0.00  0.00    +0.188 C 
ATOM      8  C   UNL     1      34.373 -23.687 -15.209  0.00  0.00    +0.098 C 
ATOM      9  C   UNL     1      35.104 -23.152 -16.212  0.00  0.00    +0.117 C 
ATOM     10  C   UNL     1      30.931 -24.115 -15.432  0.00  0.00    +0.219 C 
ATOM     11  H   UNL     1      31.976 -22.869 -19.164  0.00  0.00    +0.154 HD
ENDROOT
BRANCH   1  17
ATOM     12  C   UNL     1      34.185 -19.307 -21.331  0.00  0.00    +0.048 C 
ATOM     13  C   UNL     1      32.825 -19.396 -21.028  0.00  0.00    +0.016 C 
ATOM     14  C   UNL     1      35.077 -20.244 -20.810  0.00  0.00    +0.016 C 
ATOM     15  C   UNL     1      32.359 -20.420 -20.205  0.00  0.00    +0.016 C 
ATOM     16  C   UNL     1      34.610 -21.269 -19.986  0.00  0.00    +0.016 C 
ATOM     17  C   UNL     1      33.252 -21.357 -19.684  0.00  0.00    +0.050 C 
BRANCH  12  19
ATOM     18  N   UNL     1      34.473 -15.522 -22.753  0.00  0.00    +0.392 N 
ATOM     19  N   UNL     1      34.643 -18.299 -22.139  0.00  0.00    -0.313 N 
ATOM     20  C   UNL     1      34.807 -16.596 -23.718  0.00  0.00    -0.036 C 
ATOM     21  C   UNL     1      35.671 -17.301 -21.810  0.00  0.00    +0.050 C 
ATOM     22  C   UNL     1      36.200 -16.947 -23.203  0.00  0.00    -0.002 C 
ATOM     23  C   UNL     1      34.923 -16.015 -21.431  0.00  0.00    -0.057 C 
ATOM     24  C   UNL     1      34.059 -17.924 -23.433  0.00  0.00    +0.070 C 
ATOM     25  H   UNL     1      34.955 -14.662 -23.016  0.00  0.00    -0.079 HD
BRANCH  18  26
ATOM     26  C   UNL     1      33.086 -15.093 -22.767  0.00  0.00    -0.058 C 
ATOM     27  C   UNL     1      32.963 -13.720 -23.422  0.00  0.00    -0.023 C 
ATOM     28  C   UNL     1      32.548 -15.070 -21.339  0.00  0.00    -0.023 C 
ENDBRANCH  18  26
ENDBRANCH  12  19
ENDBRANCH   1  17
BRANCH   8  30
ATOM     29  O   UNL     1      36.334 -25.286 -12.554  0.00  0.00    -0.446 OA
ATOM     30  C   UNL     1      35.014 -24.129 -13.959  0.00  0.00    +0.058 C 
ATOM     31  C   UNL     1      34.814 -23.633 -12.649  0.00  0.00    +0.047 C 
ATOM     32  C   UNL     1      35.947 -25.133 -13.848  0.00  0.00    +0.181 C 
ATOM     33  C   UNL     1      35.639 -24.370 -11.831  0.00  0.00    +0.198 C 
BRANCH  33  36
ATOM     34  O   UNL     1      35.259 -25.075  -9.616  0.00  0.00    -0.267 OA
ATOM     35  N   UNL     1      36.805 -23.409  -9.920  0.00  0.00    -0.323 N 
ATOM     36  C   UNL     1      35.861 -24.321 -10.426  0.00  0.00    +0.277 C 
ATOM     37  H   UNL     1      36.972 -23.361  -8.951  0.00  0.00    +0.145 HD
ATOM     38  H   UNL     1      37.297 -22.818 -10.534  0.00  0.00    +0.145 HD
ENDBRANCH  33  36
ENDBRANCH   8  30
TORSDOF 5
ENDMDL
MODEL 3
REMARK VINA RESULT:     -11.9      1.170      2.038
REMARK  Name = 44462738
REMARK  5 active torsions:
REMARK  status: ('A' for Active; 'I' for Inactive)
REMARK    1  A    between atoms: N_1  and  C_17
REMARK    2  A    between atoms: C_8  and  C_30
REMARK    3  A    between atoms: C_12  and  N_19
REMARK    4  A    between atoms: N_18  and  C_26
REMARK    5  A    between atoms: C_33  and  C_36
REMARK                            x       y       z     vdW  Elec       q    Type
REMARK                         _______ _______ _______ _____ _____    ______ ____
ROOT
ATOM      1  N   UNL     1      34.401 -14.761 -24.603  0.00  0.00    -0.296 N 
ATOM      2  N   UNL     1      34.793 -15.644 -22.476  0.00  0.00    -0.225 NA
ATOM      3  N   UNL     1      34.683 -18.270 -23.414  0.00  0.00    -0.167 N 
ATOM      4  N   UNL     1      34.303 -17.587 -25.490  0.00  0.00    -0.203 NA
ATOM      5  N   UNL     1      34.570 -19.413 -24.133  0.00  0.00    -0.150 NA
ATOM      6  C   UNL     1      34.571 -15.835 -23.760  0.00  0.00    +0.166 C 
ATOM      7  C   UNL     1      34.513 -17.193 -24.259  0.00  0.00    +0.188 C 
ATOM      8  C   UNL     1      34.914 -18.037 -22.056  0.00  0.00    +0.098 C 
ATOM      9  C   UNL     1      34.960 -16.747 -21.654  0.00  0.00    +0.117 C 
ATOM     10  C   UNL     1      34.347 -18.943 -25.363  0.00  0.00    +0.219 C 
ATOM     11  H   UNL     1      34.688 -14.890 -25.536  0.00  0.00    +0.154 HD
ENDROOT
BRANCH   1  17
ATOM     12  C   UNL     1      32.801 -10.992 -23.665  0.00  0.00    +0.048 C 
ATOM     13  C   UNL     1      33.724 -11.120 -24.704  0.00  0.00    +0.016 C 
ATOM     14  C   UNL     1      32.409 -12.116 -22.939  0.00  0.00    +0.016 C 
ATOM     15  C   UNL     1      34.256 -12.371 -25.015  0.00  0.00    +0.016 C 
ATOM     16  C   UNL     1      32.940 -13.368 -23.250  0.00  0.00    +0.016 C 
ATOM     17  C   UNL     1      33.863 -13.495 -24.288  0.00  0.00    +0.050 C 
BRANCH  12  19
ATOM     18  N   UNL     1      32.566  -7.420 -21.762  0.00  0.00    +0.392 N 
ATOM     19  N   UNL     1      32.278  -9.762 -23.360  0.00  0.00    -0.313 N 
ATOM     20  C   UNL     1      31.283  -7.961 -22.271  0.00  0.00    -0.036 C 
ATOM     21  C   UNL     1      32.741  -8.457 -23.855  0.00  0.00    +0.050 C 
ATOM     22  C   UNL     1      31.459  -7.626 -23.749  0.00  0.00    -0.002 C 
ATOM     23  C   UNL     1      33.596  -7.846 -22.737  0.00  0.00    -0.057 C 
ATOM     24  C   UNL     1      31.258  -9.510 -22.334  0.00  0.00    +0.070 C 
ATOM     25  H   UNL     1      32.508  -6.404 -21.697  0.00  0.00    -0.079 HD
BRANCH  18  26
ATOM     26  C   UNL     1      32.884  -7.781 -20.392  0.00  0.00    -0.058 C 
ATOM     27  C   UNL     1      32.032  -8.965 -19.945  0.00  0.00    -0.023 C 
ATOM     28  C   UNL     1      32.666  -6.574 -19.486  0.00  0.00    -0.023 C 
ENDBRANCH  18  26
ENDBRANCH  12  19
ENDBRANCH   1  17
BRANCH   8  30
ATOM     29  O   UNL     1      36.149 -20.530 -19.666  0.00  0.00    -0.446 OA
ATOM     30  C   UNL     1      35.117 -19.135 -21.096  0.00  0.00    +0.058 C 
ATOM     31  C   UNL     1      34.160 -20.051 -20.598  0.00  0.00    +0.047 C 
ATOM     32  C   UNL     1      36.311 -19.467 -20.498  0.00  0.00    +0.181 C 
ATOM     33  C   UNL     1      34.838 -20.879 -19.733  0.00  0.00    +0.198 C 
BRANCH  33  36
ATOM     34  O   UNL     1      35.170 -22.616 -18.177  0.00  0.00    -0.267 OA
ATOM     35  N   UNL     1      33.048 -22.365 -19.009  0.00  0.00    -0.323 N 
ATOM     36  C   UNL     1      34.399 -21.980 -18.945  0.00  0.00    +0.277 C 
ATOM     37  H   UNL     1      32.726 -23.124 -18.470  0.00  0.00    +0.145 HD
ATOM     38  H   UNL     1      32.424 -21.876 -19.591  0.00  0.00    +0.145 HD
ENDBRANCH  33  36
ENDBRANCH   8  30
TORSDOF 5
ENDMDL
MODEL 4
REMARK VINA RESULT:     -11.4      4.529      9.533
REMARK  Name = 44462738
REMARK  5 active torsions:
REMARK  status: ('A' for Active; 'I' for Inactive)
REMARK    1  A    between atoms: N_1  and  C_17
REMARK    2  A    between atoms: C_8  and  C_30
REMARK    3  A    between atoms: C_12  and  N_19
REMARK    4  A    between atoms: N_18  and  C_26
REMARK    5  A    between atoms: C_33  and  C_36
REMARK                            x       y       z     vdW  Elec       q    Type
REMARK                         _______ _______ _______ _____ _____    ______ ____
ROOT
ATOM      1  N   UNL     1      32.738 -22.087 -19.023  0.00  0.00    -0.296 N 
ATOM      2  N   UNL     1      34.676 -22.603 -17.826  0.00  0.00    -0.225 NA
ATOM      3  N   UNL     1      33.224 -23.667 -15.695  0.00  0.00    -0.167 N 
ATOM      4  N   UNL     1      31.295 -23.238 -16.704  0.00  0.00    -0.203 NA
ATOM      5  N   UNL     1      32.280 -24.100 -14.824  0.00  0.00    -0.150 NA
ATOM      6  C   UNL     1      33.362 -22.601 -17.910  0.00  0.00    +0.166 C 
ATOM      7  C   UNL     1      32.598 -23.152 -16.811  0.00  0.00    +0.188 C 
ATOM      8  C   UNL     1      34.619 -23.653 -15.634  0.00  0.00    +0.098 C 
ATOM      9  C   UNL     1      35.275 -23.129 -16.693  0.00  0.00    +0.117 C 
ATOM     10  C   UNL     1      31.151 -23.822 -15.481  0.00  0.00    +0.219 C 
ATOM     11  H   UNL     1      31.870 -22.488 -19.260  0.00  0.00    +0.154 HD
ENDROOT
BRANCH   1  17
ATOM     12  C   UNL     1      34.094 -19.002 -21.531  0.00  0.00    +0.048 C 
ATOM     13  C   UNL     1      32.760 -19.033 -21.121  0.00  0.00    +0.016 C 
ATOM     14  C   UNL     1      34.976 -19.995 -21.108  0.00  0.00    +0.016 C 
ATOM     15  C   UNL     1      32.310 -20.057 -20.288  0.00  0.00    +0.016 C 
ATOM     16  C   UNL     1      34.526 -21.020 -20.275  0.00  0.00    +0.016 C 
ATOM     17  C   UNL     1      33.194 -21.051 -19.865  0.00  0.00    +0.050 C 
BRANCH  12  19
ATOM     18  N   UNL     1      34.367 -15.215 -22.950  0.00  0.00    +0.392 N 
ATOM     19  N   UNL     1      34.536 -17.995 -22.350  0.00  0.00    -0.313 N 
ATOM     20  C   UNL     1      34.667 -16.288 -23.927  0.00  0.00    -0.036 C 
ATOM     21  C   UNL     1      35.579 -17.004 -22.047  0.00  0.00    +0.050 C 
ATOM     22  C   UNL     1      36.071 -16.649 -23.453  0.00  0.00    -0.002 C 
ATOM     23  C   UNL     1      34.851 -15.715 -21.643  0.00  0.00    -0.057 C 
ATOM     24  C   UNL     1      33.918 -17.612 -23.625  0.00  0.00    +0.070 C 
ATOM     25  H   UNL     1      34.847 -14.357 -23.224  0.00  0.00    -0.079 HD
BRANCH  18  26
ATOM     26  C   UNL     1      32.983 -14.777 -22.924  0.00  0.00    -0.058 C 
ATOM     27  C   UNL     1      32.862 -13.371 -23.506  0.00  0.00    -0.023 C 
ATOM     28  C   UNL     1      32.464 -14.823 -21.490  0.00  0.00    -0.023 C 
ENDBRANCH  18  26
ENDBRANCH  12  19
ENDBRANCH   1  17
BRANCH   8  30
ATOM     29  O   UNL     1      35.944 -24.611 -12.350  0.00  0.00    -0.446 OA
ATOM     30  C   UNL     1      35.358 -24.196 -14.481  0.00  0.00    +0.058 C 
ATOM     31  C   UNL     1      36.489 -25.047 -14.487  0.00  0.00    +0.047 C 
ATOM     32  C   UNL     1      35.066 -23.960 -13.157  0.00  0.00    +0.181 C 
ATOM     33  C   UNL     1      36.807 -25.270 -13.167  0.00  0.00    +0.198 C 
BRANCH  33  36
ATOM     34  O   UNL     1      37.637 -26.799 -11.580  0.00  0.00    -0.267 OA
ATOM     35  N   UNL     1      39.140 -25.967 -13.098  0.00  0.00    -0.323 N 
ATOM     36  C   UNL     1      37.841 -26.039 -12.564  0.00  0.00    +0.277 C 
ATOM     37  H   UNL     1      39.868 -26.492 -12.694  0.00  0.00    +0.145 HD
ATOM     38  H   UNL     1      39.322 -25.390 -13.875  0.00  0.00    +0.145 HD
ENDBRANCH  33  36
ENDBRANCH   8  30
TORSDOF 5
ENDMDL
MODEL 5
REMARK VINA RESULT:     -11.2      4.286     12.831
REMARK  Name = 44462738
REMARK  5 active torsions:
REMARK  status: ('A' for Active; 'I' for Inactive)
REMARK    1  A    between atoms: N_1  and  C_17
REMARK    2  A    between atoms: C_8  and  C_30
REMARK    3  A    between atoms: C_12  and  N_19
REMARK    4  A    between atoms: N_18  and  C_26
REMARK    5  A    between atoms: C_33  and  C_36
REMARK                            x       y       z     vdW  Elec       q    Type
REMARK                         _______ _______ _______ _____ _____    ______ ____
ROOT
ATOM      1  N   UNL     1      34.413 -20.907 -21.052  0.00  0.00    -0.296 N 
ATOM      2  N   UNL     1      33.724 -18.747 -20.490  0.00  0.00    -0.225 NA
ATOM      3  N   UNL     1      34.470 -17.731 -22.980  0.00  0.00    -0.167 N 
ATOM      4  N   UNL     1      35.171 -19.722 -23.660  0.00  0.00    -0.203 NA
ATOM      5  N   UNL     1      34.926 -17.519 -24.238  0.00  0.00    -0.150 NA
ATOM      6  C   UNL     1      34.246 -19.579 -21.368  0.00  0.00    +0.166 C 
ATOM      7  C   UNL     1      34.637 -19.063 -22.663  0.00  0.00    +0.188 C 
ATOM      8  C   UNL     1      33.916 -16.872 -22.027  0.00  0.00    +0.098 C 
ATOM      9  C   UNL     1      33.570 -17.415 -20.839  0.00  0.00    +0.117 C 
ATOM     10  C   UNL     1      35.327 -18.741 -24.594  0.00  0.00    +0.219 C 
ATOM     11  H   UNL     1      34.360 -21.542 -21.802  0.00  0.00    +0.154 HD
ENDROOT
BRANCH   1  17
ATOM     12  C   UNL     1      35.120 -22.574 -17.262  0.00  0.00    +0.048 C 
ATOM     13  C   UNL     1      33.876 -22.732 -17.873  0.00  0.00    +0.016 C 
ATOM     14  C   UNL     1      36.130 -21.863 -17.910  0.00  0.00    +0.016 C 
ATOM     15  C   UNL     1      33.641 -22.178 -19.131  0.00  0.00    +0.016 C 
ATOM     16  C   UNL     1      35.895 -21.309 -19.169  0.00  0.00    +0.016 C 
ATOM     17  C   UNL     1      34.651 -21.467 -19.779  0.00  0.00    +0.050 C 
BRANCH  12  19
ATOM     18  N   UNL     1      37.224 -24.504 -14.383  0.00  0.00    +0.392 N 
ATOM     19  N   UNL     1      35.351 -23.119 -16.025  0.00  0.00    -0.313 N 
ATOM     20  C   UNL     1      35.749 -24.595 -14.269  0.00  0.00    -0.036 C 
ATOM     21  C   UNL     1      36.109 -22.514 -14.921  0.00  0.00    +0.050 C 
ATOM     22  C   UNL     1      35.472 -23.203 -13.709  0.00  0.00    -0.002 C 
ATOM     23  C   UNL     1      37.501 -23.160 -14.942  0.00  0.00    -0.057 C 
ATOM     24  C   UNL     1      35.026 -24.498 -15.637  0.00  0.00    +0.070 C 
ATOM     25  H   UNL     1      37.648 -24.621 -13.463  0.00  0.00    -0.079 HD
BRANCH  18  26
ATOM     26  C   UNL     1      37.851 -25.579 -15.130  0.00  0.00    -0.058 C 
ATOM     27  C   UNL     1      37.340 -26.931 -14.640  0.00  0.00    -0.023 C 
ATOM     28  C   UNL     1      39.366 -25.480 -14.987  0.00  0.00    -0.023 C 
ENDBRANCH  18  26
ENDBRANCH  12  19
ENDBRANCH   1  17
BRANCH   8  30
ATOM     29  O   UNL     1      34.028 -13.363 -23.089  0.00  0.00    -0.446 OA
ATOM     30  C   UNL     1      33.696 -15.441 -22.296  0.00  0.00    +0.058 C 
ATOM     31  C   UNL     1      32.626 -14.622 -21.864  0.00  0.00    +0.047 C 
ATOM     32  C   UNL     1      34.523 -14.628 -23.038  0.00  0.00    +0.181 C 
ATOM     33  C   UNL     1      32.875 -13.368 -22.372  0.00  0.00    +0.198 C 
BRANCH  33  36
ATOM     34  O   UNL     1      32.453 -11.117 -22.925  0.00  0.00    -0.267 OA
ATOM     35  N   UNL     1      31.038 -12.091 -21.406  0.00  0.00    -0.323 N 
ATOM     36  C   UNL     1      32.150 -12.148 -22.266  0.00  0.00    +0.277 C 
ATOM     37  H   UNL     1      30.524 -11.256 -21.320  0.00  0.00    +0.145 HD
ATOM     38  H   UNL     1      30.774 -12.887 -20.890  0.00  0.00    +0.145 HD
ENDBRANCH  33  36
ENDBRANCH   8  30
TORSDOF 5
ENDMDL
MODEL 6
REMARK VINA RESULT:     -10.5      5.475      9.423
REMARK  Name = 44462738
REMARK  5 active torsions:
REMARK  status: ('A' for Active; 'I' for Inactive)
REMARK    1  A    between atoms: N_1  and  C_17
REMARK    2  A    between atoms: C_8  and  C_30
REMARK    3  A    between atoms: C_12  and  N_19
REMARK    4  A    between atoms: N_18  and  C_26
REMARK    5  A    between atoms: C_33  and  C_36
REMARK                            x       y       z     vdW  Elec       q    Type
REMARK                         _______ _______ _______ _____ _____    ______ ____
ROOT
ATOM      1  N   UNL     1      32.860 -21.934 -19.217  0.00  0.00    -0.296 N 
ATOM      2  N   UNL     1      34.645 -22.299 -17.756  0.00  0.00    -0.225 NA
ATOM      3  N   UNL     1      33.047 -23.721 -15.965  0.00  0.00    -0.167 N 
ATOM      4  N   UNL     1      31.255 -23.457 -17.246  0.00  0.00    -0.203 NA
ATOM      5  N   UNL     1      32.051 -24.345 -15.290  0.00  0.00    -0.150 NA
ATOM      6  C   UNL     1      33.373 -22.459 -18.054  0.00  0.00    +0.166 C 
ATOM      7  C   UNL     1      32.534 -23.196 -17.132  0.00  0.00    +0.188 C 
ATOM      8  C   UNL     1      34.401 -23.534 -15.675  0.00  0.00    +0.098 C 
ATOM      9  C   UNL     1      35.131 -22.840 -16.576  0.00  0.00    +0.117 C 
ATOM     10  C   UNL     1      31.009 -24.158 -16.103  0.00  0.00    +0.219 C 
ATOM     11  H   UNL     1      32.105 -22.422 -19.619  0.00  0.00    +0.154 HD
ENDROOT
BRANCH   1  17
ATOM     12  C   UNL     1      34.138 -18.496 -21.264  0.00  0.00    +0.048 C 
ATOM     13  C   UNL     1      32.792 -18.650 -20.930  0.00  0.00    +0.016 C 
ATOM     14  C   UNL     1      35.059 -19.484 -20.918  0.00  0.00    +0.016 C 
ATOM     15  C   UNL     1      32.367 -19.791 -20.251  0.00  0.00    +0.016 C 
ATOM     16  C   UNL     1      34.635 -20.626 -20.238  0.00  0.00    +0.016 C 
ATOM     17  C   UNL     1      33.290 -20.779 -19.904  0.00  0.00    +0.050 C 
BRANCH  12  19
ATOM     18  N   UNL     1      33.945 -15.510 -23.999  0.00  0.00    +0.392 N 
ATOM     19  N   UNL     1      34.555 -17.373 -21.932  0.00  0.00    -0.313 N 
ATOM     20  C   UNL     1      35.308 -15.886 -23.557  0.00  0.00    -0.036 C 
ATOM     21  C   UNL     1      34.097 -15.993 -21.712  0.00  0.00    +0.050 C 
ATOM     22  C   UNL     1      35.311 -15.195 -22.196  0.00  0.00    -0.002 C 
ATOM     23  C   UNL     1      33.073 -15.694 -22.816  0.00  0.00    -0.057 C 
ATOM     24  C   UNL     1      35.418 -17.369 -23.119  0.00  0.00    +0.070 C 
ATOM     25  H   UNL     1      33.943 -14.541 -24.319  0.00  0.00    -0.079 HD
BRANCH  18  26
ATOM     26  C   UNL     1      33.468 -16.206 -25.180  0.00  0.00    -0.058 C 
ATOM     27  C   UNL     1      34.510 -17.213 -25.658  0.00  0.00    -0.023 C 
ATOM     28  C   UNL     1      33.145 -15.190 -26.273  0.00  0.00    -0.023 C 
ENDBRANCH  18  26
ENDBRANCH  12  19
ENDBRANCH   1  17
BRANCH   8  30
ATOM     29  O   UNL     1      36.310 -25.353 -13.126  0.00  0.00    -0.446 OA
ATOM     30  C   UNL     1      35.023 -24.075 -14.455  0.00  0.00    +0.058 C 
ATOM     31  C   UNL     1      34.821 -23.669 -13.114  0.00  0.00    +0.047 C 
ATOM     32  C   UNL     1      35.938 -25.102 -14.409  0.00  0.00    +0.181 C 
ATOM     33  C   UNL     1      35.626 -24.477 -12.345  0.00  0.00    +0.198 C 
BRANCH  33  36
ATOM     34  O   UNL     1      35.256 -25.366 -10.195  0.00  0.00    -0.267 OA
ATOM     35  N   UNL     1      36.746 -23.631 -10.354  0.00  0.00    -0.323 N 
ATOM     36  C   UNL     1      35.837 -24.531 -10.938  0.00  0.00    +0.277 C 
ATOM     37  H   UNL     1      36.905 -23.653  -9.382  0.00  0.00    +0.145 HD
ATOM     38  H   UNL     1      37.222 -22.977 -10.915  0.00  0.00    +0.145 HD
ENDBRANCH  33  36
ENDBRANCH   8  30
TORSDOF 5
ENDMDL
MODEL 7
REMARK VINA RESULT:     -10.5      4.186     12.499
REMARK  Name = 44462738
REMARK  5 active torsions:
REMARK  status: ('A' for Active; 'I' for Inactive)
REMARK    1  A    between atoms: N_1  and  C_17
REMARK    2  A    between atoms: C_8  and  C_30
REMARK    3  A    between atoms: C_12  and  N_19
REMARK    4  A    between atoms: N_18  and  C_26
REMARK    5  A    between atoms: C_33  and  C_36
REMARK                            x       y       z     vdW  Elec       q    Type
REMARK                         _______ _______ _______ _____ _____    ______ ____
ROOT
ATOM      1  N   UNL     1      34.615 -20.629 -21.146  0.00  0.00    -0.296 N 
ATOM      2  N   UNL     1      34.038 -18.449 -20.537  0.00  0.00    -0.225 NA
ATOM      3  N   UNL     1      34.316 -17.514 -23.151  0.00  0.00    -0.167 N 
ATOM      4  N   UNL     1      34.882 -19.530 -23.885  0.00  0.00    -0.203 NA
ATOM      5  N   UNL     1      34.534 -17.345 -24.478  0.00  0.00    -0.150 NA
ATOM      6  C   UNL     1      34.392 -19.310 -21.468  0.00  0.00    +0.166 C 
ATOM      7  C   UNL     1      34.539 -18.837 -22.829  0.00  0.00    +0.188 C 
ATOM      8  C   UNL     1      33.945 -16.624 -22.141  0.00  0.00    +0.098 C 
ATOM      9  C   UNL     1      33.822 -17.128 -20.893  0.00  0.00    +0.117 C 
ATOM     10  C   UNL     1      34.865 -18.579 -24.862  0.00  0.00    +0.219 C 
ATOM     11  H   UNL     1      34.426 -21.287 -21.854  0.00  0.00    +0.154 HD
ENDROOT
BRANCH   1  17
ATOM     12  C   UNL     1      36.007 -22.182 -17.500  0.00  0.00    +0.048 C 
ATOM     13  C   UNL     1      36.859 -21.430 -18.309  0.00  0.00    +0.016 C 
ATOM     14  C   UNL     1      34.692 -22.418 -17.902  0.00  0.00    +0.016 C 
ATOM     15  C   UNL     1      36.397 -20.914 -19.520  0.00  0.00    +0.016 C 
ATOM     16  C   UNL     1      34.230 -21.902 -19.113  0.00  0.00    +0.016 C 
ATOM     17  C   UNL     1      35.082 -21.150 -19.922  0.00  0.00    +0.050 C 
BRANCH  12  19
ATOM     18  N   UNL     1      35.784 -24.199 -13.991  0.00  0.00    +0.392 N 
ATOM     19  N   UNL     1      36.461 -22.688 -16.309  0.00  0.00    -0.313 N 
ATOM     20  C   UNL     1      36.802 -23.125 -14.048  0.00  0.00    -0.036 C 
ATOM     21  C   UNL     1      36.902 -24.065 -16.045  0.00  0.00    +0.050 C 
ATOM     22  C   UNL     1      37.862 -23.851 -14.871  0.00  0.00    -0.002 C 
ATOM     23  C   UNL     1      35.728 -24.773 -15.355  0.00  0.00    -0.057 C 
ATOM     24  C   UNL     1      36.425 -21.980 -15.024  0.00  0.00    +0.070 C 
ATOM     25  H   UNL     1      36.061 -24.898 -13.301  0.00  0.00    -0.079 HD
BRANCH  18  26
ATOM     26  C   UNL     1      34.487 -23.790 -13.484  0.00  0.00    -0.058 C 
ATOM     27  C   UNL     1      34.304 -24.271 -12.047  0.00  0.00    -0.023 C 
ATOM     28  C   UNL     1      33.390 -24.342 -14.390  0.00  0.00    -0.023 C 
ENDBRANCH  18  26
ENDBRANCH  12  19
ENDBRANCH   1  17
BRANCH   8  30
ATOM     29  O   UNL     1      33.925 -13.122 -23.232  0.00  0.00    -0.446 OA
ATOM     30  C   UNL     1      33.679 -15.201 -22.410  0.00  0.00    +0.058 C 
ATOM     31  C   UNL     1      32.608 -14.404 -21.938  0.00  0.00    +0.047 C 
ATOM     32  C   UNL     1      34.452 -14.375 -23.194  0.00  0.00    +0.181 C 
ATOM     33  C   UNL     1      32.804 -13.149 -22.465  0.00  0.00    +0.198 C 
BRANCH  33  36
ATOM     34  O   UNL     1      32.339 -10.897 -22.974  0.00  0.00    -0.267 OA
ATOM     35  N   UNL     1      30.941 -11.929 -21.478  0.00  0.00    -0.323 N 
ATOM     36  C   UNL     1      32.055 -11.946 -22.336  0.00  0.00    +0.277 C 
ATOM     37  H   UNL     1      30.411 -11.105 -21.376  0.00  0.00    +0.145 HD
ATOM     38  H   UNL     1      30.692 -12.739 -20.978  0.00  0.00    +0.145 HD
ENDBRANCH  33  36
ENDBRANCH   8  30
TORSDOF 5
ENDMDL
MODEL 8
REMARK VINA RESULT:      -9.9      4.585     12.675
REMARK  Name = 44462738
REMARK  5 active torsions:
REMARK  status: ('A' for Active; 'I' for Inactive)
REMARK    1  A    between atoms: N_1  and  C_17
REMARK    2  A    between atoms: C_8  and  C_30
REMARK    3  A    between atoms: C_12  and  N_19
REMARK    4  A    between atoms: N_18  and  C_26
REMARK    5  A    between atoms: C_33  and  C_36
REMARK                            x       y       z     vdW  Elec       q    Type
REMARK                         _______ _______ _______ _____ _____    ______ ____
ROOT
ATOM      1  N   UNL     1      35.182 -21.716 -19.509  0.00  0.00    -0.296 N 
ATOM      2  N   UNL     1      33.746 -20.147 -20.474  0.00  0.00    -0.225 NA
ATOM      3  N   UNL     1      35.866 -18.710 -21.583  0.00  0.00    -0.167 N 
ATOM      4  N   UNL     1      37.356 -20.115 -20.730  0.00  0.00    -0.203 NA
ATOM      5  N   UNL     1      37.064 -18.218 -21.980  0.00  0.00    -0.150 NA
ATOM      6  C   UNL     1      34.970 -20.583 -20.260  0.00  0.00    +0.166 C 
ATOM      7  C   UNL     1      36.078 -19.846 -20.831  0.00  0.00    +0.188 C 
ATOM      8  C   UNL     1      34.556 -18.270 -21.791  0.00  0.00    +0.098 C 
ATOM      9  C   UNL     1      33.567 -19.003 -21.235  0.00  0.00    +0.117 C 
ATOM     10  C   UNL     1      37.914 -19.097 -21.446  0.00  0.00    +0.219 C 
ATOM     11  H   UNL     1      35.980 -22.246 -19.737  0.00  0.00    +0.154 HD
ENDROOT
BRANCH   1  17
ATOM     12  C   UNL     1      32.824 -23.182 -16.357  0.00  0.00    +0.048 C 
ATOM     13  C   UNL     1      32.217 -22.692 -17.514  0.00  0.00    +0.016 C 
ATOM     14  C   UNL     1      34.214 -23.186 -16.248  0.00  0.00    +0.016 C 
ATOM     15  C   UNL     1      32.999 -22.205 -18.560  0.00  0.00    +0.016 C 
ATOM     16  C   UNL     1      34.997 -22.699 -17.295  0.00  0.00    +0.016 C 
ATOM     17  C   UNL     1      34.390 -22.209 -18.451  0.00  0.00    +0.050 C 
BRANCH  12  19
ATOM     18  N   UNL     1      29.502 -24.694 -14.591  0.00  0.00    +0.392 N 
ATOM     19  N   UNL     1      32.054 -23.662 -15.329  0.00  0.00    -0.313 N 
ATOM     20  C   UNL     1      30.411 -23.934 -13.702  0.00  0.00    -0.036 C 
ATOM     21  C   UNL     1      31.775 -25.071 -15.017  0.00  0.00    +0.050 C 
ATOM     22  C   UNL     1      31.493 -24.993 -13.513  0.00  0.00    -0.002 C 
ATOM     23  C   UNL     1      30.377 -25.373 -15.575  0.00  0.00    -0.057 C 
ATOM     24  C   UNL     1      31.217 -22.839 -14.447  0.00  0.00    +0.070 C 
ATOM     25  H   UNL     1      28.965 -25.365 -14.042  0.00  0.00    -0.079 HD
BRANCH  18  26
ATOM     26  C   UNL     1      28.445 -23.910 -15.205  0.00  0.00    -0.058 C 
ATOM     27  C   UNL     1      28.384 -24.186 -16.704  0.00  0.00    -0.023 C 
ATOM     28  C   UNL     1      28.687 -22.429 -14.929  0.00  0.00    -0.023 C 
ENDBRANCH  18  26
ENDBRANCH  12  19
ENDBRANCH   1  17
BRANCH   8  30
ATOM     29  O   UNL     1      34.003 -15.730 -24.380  0.00  0.00    -0.446 OA
ATOM     30  C   UNL     1      34.250 -17.072 -22.592  0.00  0.00    +0.058 C 
ATOM     31  C   UNL     1      33.788 -15.812 -22.144  0.00  0.00    +0.047 C 
ATOM     32  C   UNL     1      34.365 -16.971 -23.960  0.00  0.00    +0.181 C 
ATOM     33  C   UNL     1      33.655 -15.031 -23.268  0.00  0.00    +0.198 C 
BRANCH  33  36
ATOM     34  O   UNL     1      33.871 -12.850 -24.132  0.00  0.00    -0.267 OA
ATOM     35  N   UNL     1      32.043 -13.263 -22.810  0.00  0.00    -0.323 N 
ATOM     36  C   UNL     1      33.232 -13.682 -23.434  0.00  0.00    +0.277 C 
ATOM     37  H   UNL     1      31.735 -12.333 -22.913  0.00  0.00    +0.145 HD
ATOM     38  H   UNL     1      31.520 -13.897 -22.269  0.00  0.00    +0.145 HD
ENDBRANCH  33  36
ENDBRANCH   8  30
TORSDOF 5
ENDMDL
