MODEL 1
REMARK VINA RESULT:     -11.0      0.000      0.000
REMARK  Name = 56649347
REMARK  9 active torsions:
REMARK  status: ('A' for Active; 'I' for Inactive)
REMARK    1  A    between atoms: N_2  and  C_5
REMARK    2  A    between atoms: C_3  and  C_22
REMARK    3  A    between atoms: C_5  and  C_9
REMARK    4  A    between atoms: C_12  and  N_15
REMARK    5  A    between atoms: N_15  and  S_17
REMARK    6  A    between atoms: C_21  and  C_25
REMARK    7  A    between atoms: C_24  and  C_33
REMARK    8  A    between atoms: C_27  and  C_32
REMARK    9  A    between atoms: C_33  and  C_34
REMARK                            x       y       z     vdW  Elec       q    Type
REMARK                         _______ _______ _______ _____ _____    ______ ____
ROOT
ATOM      1  O   UNL     1      31.219 -23.917 -16.566  0.00  0.00    -0.270 OA
ATOM      2  N   UNL     1      33.345 -23.357 -15.811  0.00  0.00    -0.299 N 
ATOM      3  C   UNL     1      32.258 -23.272 -16.665  0.00  0.00    +0.246 C 
ATOM      4  H   UNL     1      34.128 -22.788 -15.989  0.00  0.00    +0.150 HD
ENDROOT
BRANCH   2   5
ATOM      5  C   UNL     1      33.382 -24.242 -14.668  0.00  0.00    +0.095 C 
ATOM      6  C   UNL     1      32.763 -23.557 -13.452  0.00  0.00    +0.026 C 
BRANCH   5   9
ATOM      7  F   UNL     1      37.213 -27.030 -15.848  0.00  0.00    -0.203 F 
ATOM      8  F   UNL     1      37.460 -24.279 -11.984  0.00  0.00    -0.203 F 
ATOM      9  C   UNL     1      34.785 -24.744 -14.401  0.00  0.00    +0.000 C 
ATOM     10  C   UNL     1      35.494 -24.276 -13.294  0.00  0.00    +0.028 C 
ATOM     11  C   UNL     1      35.369 -25.674 -15.261  0.00  0.00    +0.028 C 
ATOM     12  C   UNL     1      37.371 -25.667 -13.909  0.00  0.00    +0.119 C 
ATOM     13  C   UNL     1      36.662 -26.135 -15.016  0.00  0.00    +0.157 C 
ATOM     14  C   UNL     1      36.787 -24.737 -13.049  0.00  0.00    +0.157 C 
BRANCH  12  15
ATOM     15  N   UNL     1      38.695 -26.139 -13.659  0.00  0.00    -0.214 N 
ATOM     16  H   UNL     1      38.860 -26.859 -13.008  0.00  0.00    +0.174 HD
BRANCH  15  17
ATOM     17  S   UNL     1      39.994 -25.416 -14.528  0.00  0.00    +0.056 S 
ATOM     18  O   UNL     1      40.814 -24.670 -13.590  0.00  0.00    -0.154 OA
ATOM     19  O   UNL     1      40.598 -26.365 -15.442  0.00  0.00    -0.154 OA
ATOM     20  C   UNL     1      39.099 -24.221 -15.494  0.00  0.00    +0.200 C 
ENDBRANCH  15  17
ENDBRANCH  12  15
ENDBRANCH   5   9
ENDBRANCH   2   5
BRANCH   3  22
ATOM     21  C   UNL     1      33.656 -22.262 -18.408  0.00  0.00    +0.007 C 
ATOM     22  C   UNL     1      32.486 -22.281 -17.755  0.00  0.00    +0.058 C 
BRANCH  21  25
ATOM     23  N   UNL     1      35.626 -20.266 -20.924  0.00  0.00    -0.406 NA
ATOM     24  C   UNL     1      35.289 -21.108 -19.922  0.00  0.00    +0.108 C 
ATOM     25  C   UNL     1      33.987 -21.334 -19.505  0.00  0.00    +0.022 C 
ATOM     26  C   UNL     1      32.966 -20.653 -20.158  0.00  0.00    -0.017 C 
ATOM     27  C   UNL     1      34.608 -19.621 -21.536  0.00  0.00    +0.184 C 
ATOM     28  C   UNL     1      33.274 -19.779 -21.195  0.00  0.00    +0.089 C 
BRANCH  27  32
ATOM     29  F   UNL     1      34.311 -17.502 -22.572  0.00  0.00    -0.164 F 
ATOM     30  F   UNL     1      36.302 -18.370 -22.670  0.00  0.00    -0.164 F 
ATOM     31  F   UNL     1      34.704 -19.188 -23.887  0.00  0.00    -0.164 F 
ATOM     32  C   UNL     1      34.975 -18.692 -22.644  0.00  0.00    +0.442 C 
ENDBRANCH  27  32
BRANCH  24  33
ATOM     33  C   UNL     1      36.433 -21.806 -19.262  0.00  0.00    +0.059 C 
BRANCH  33  34
ATOM     34  C   UNL     1      36.851 -21.123 -17.954  0.00  0.00    +0.007 C 
ATOM     35  C   UNL     1      36.828 -22.085 -16.778  0.00  0.00    +0.000 C 
ENDBRANCH  33  34
ENDBRANCH  24  33
ENDBRANCH  21  25
ENDBRANCH   3  22
TORSDOF 9
ENDMDL
MODEL 2
REMARK VINA RESULT:     -10.8      9.356     14.578
REMARK  Name = 56649347
REMARK  9 active torsions:
REMARK  status: ('A' for Active; 'I' for Inactive)
REMARK    1  A    between atoms: N_2  and  C_5
REMARK    2  A    between atoms: C_3  and  C_22
REMARK    3  A    between atoms: C_5  and  C_9
REMARK    4  A    between atoms: C_12  and  N_15
REMARK    5  A    between atoms: N_15  and  S_17
REMARK    6  A    between atoms: C_21  and  C_25
REMARK    7  A    between atoms: C_24  and  C_33
REMARK    8  A    between atoms: C_27  and  C_32
REMARK    9  A    between atoms: C_33  and  C_34
REMARK                            x       y       z     vdW  Elec       q    Type
REMARK                         _______ _______ _______ _____ _____    ______ ____
ROOT
ATOM      1  O   UNL     1      32.704 -13.772 -26.451  0.00  0.00    -0.270 OA
ATOM      2  N   UNL     1      33.898 -12.726 -24.752  0.00  0.00    -0.299 N 
ATOM      3  C   UNL     1      33.296 -13.805 -25.376  0.00  0.00    +0.246 C 
ATOM      4  H   UNL     1      34.346 -12.871 -23.887  0.00  0.00    +0.150 HD
ENDROOT
BRANCH   2   5
ATOM      5  C   UNL     1      33.902 -11.392 -25.314  0.00  0.00    +0.095 C 
ATOM      6  C   UNL     1      35.223 -11.129 -26.034  0.00  0.00    +0.026 C 
BRANCH   5   9
ATOM      7  F   UNL     1      31.340  -9.846 -21.455  0.00  0.00    -0.203 F 
ATOM      8  F   UNL     1      34.737  -7.050 -23.245  0.00  0.00    -0.203 F 
ATOM      9  C   UNL     1      33.595 -10.348 -24.263  0.00  0.00    +0.000 C 
ATOM     10  C   UNL     1      34.318  -9.154 -24.233  0.00  0.00    +0.028 C 
ATOM     11  C   UNL     1      32.591 -10.578 -23.323  0.00  0.00    +0.028 C 
ATOM     12  C   UNL     1      33.031  -8.422 -22.325  0.00  0.00    +0.119 C 
ATOM     13  C   UNL     1      32.309  -9.616 -22.353  0.00  0.00    +0.157 C 
ATOM     14  C   UNL     1      34.035  -8.192 -23.265  0.00  0.00    +0.157 C 
BRANCH  12  15
ATOM     15  N   UNL     1      32.742  -7.438 -21.332  0.00  0.00    -0.214 N 
ATOM     16  H   UNL     1      33.127  -7.502 -20.428  0.00  0.00    +0.174 HD
BRANCH  15  17
ATOM     17  S   UNL     1      31.701  -6.133 -21.759  0.00  0.00    +0.056 S 
ATOM     18  O   UNL     1      30.801  -5.883 -20.649  0.00  0.00    -0.154 OA
ATOM     19  O   UNL     1      32.450  -5.048 -22.361  0.00  0.00    -0.154 OA
ATOM     20  C   UNL     1      30.738  -6.907 -23.039  0.00  0.00    +0.200 C 
ENDBRANCH  15  17
ENDBRANCH  12  15
ENDBRANCH   5   9
ENDBRANCH   2   5
BRANCH   3  22
ATOM     21  C   UNL     1      34.560 -15.270 -23.869  0.00  0.00    +0.007 C 
ATOM     22  C   UNL     1      33.444 -15.057 -24.581  0.00  0.00    +0.058 C 
BRANCH  21  25
ATOM     23  N   UNL     1      35.038 -17.500 -20.870  0.00  0.00    -0.406 NA
ATOM     24  C   UNL     1      34.814 -16.424 -21.658  0.00  0.00    +0.108 C 
ATOM     25  C   UNL     1      34.809 -16.465 -23.042  0.00  0.00    +0.022 C 
ATOM     26  C   UNL     1      35.049 -17.688 -23.659  0.00  0.00    -0.017 C 
ATOM     27  C   UNL     1      35.267 -18.671 -21.504  0.00  0.00    +0.184 C 
ATOM     28  C   UNL     1      35.283 -18.817 -22.882  0.00  0.00    +0.089 C 
BRANCH  27  32
ATOM     29  F   UNL     1      34.468 -20.128 -19.803  0.00  0.00    -0.164 F 
ATOM     30  F   UNL     1      35.723 -21.014 -21.342  0.00  0.00    -0.164 F 
ATOM     31  F   UNL     1      36.606 -19.734 -19.831  0.00  0.00    -0.164 F 
ATOM     32  C   UNL     1      35.514 -19.862 -20.639  0.00  0.00    +0.442 C 
ENDBRANCH  27  32
BRANCH  24  33
ATOM     33  C   UNL     1      34.565 -15.142 -20.931  0.00  0.00    +0.059 C 
BRANCH  33  34
ATOM     34  C   UNL     1      33.090 -14.970 -20.550  0.00  0.00    +0.007 C 
ATOM     35  C   UNL     1      32.488 -13.716 -21.162  0.00  0.00    +0.000 C 
ENDBRANCH  33  34
ENDBRANCH  24  33
ENDBRANCH  21  25
ENDBRANCH   3  22
TORSDOF 9
ENDMDL
MODEL 3
REMARK VINA RESULT:     -10.7      5.871      9.447
REMARK  Name = 56649347
REMARK  9 active torsions:
REMARK  status: ('A' for Active; 'I' for Inactive)
REMARK    1  A    between atoms: N_2  and  C_5
REMARK    2  A    between atoms: C_3  and  C_22
REMARK    3  A    between atoms: C_5  and  C_9
REMARK    4  A    between atoms: C_12  and  N_15
REMARK    5  A    between atoms: N_15  and  S_17
REMARK    6  A    between atoms: C_21  and  C_25
REMARK    7  A    between atoms: C_24  and  C_33
REMARK    8  A    between atoms: C_27  and  C_32
REMARK    9  A    between atoms: C_33  and  C_34
REMARK                            x       y       z     vdW  Elec       q    Type
REMARK                         _______ _______ _______ _____ _____    ______ ____
ROOT
ATOM      1  O   UNL     1      34.804 -16.813 -25.905  0.00  0.00    -0.270 OA
ATOM      2  N   UNL     1      34.408 -17.373 -23.684  0.00  0.00    -0.299 N 
ATOM      3  C   UNL     1      34.336 -16.557 -24.799  0.00  0.00    +0.246 C 
ATOM      4  H   UNL     1      33.996 -17.062 -22.846  0.00  0.00    +0.150 HD
ENDROOT
BRANCH   2   5
ATOM      5  C   UNL     1      35.062 -18.664 -23.692  0.00  0.00    +0.095 C 
ATOM      6  C   UNL     1      34.527 -19.517 -24.839  0.00  0.00    +0.026 C 
BRANCH   5   9
ATOM      7  F   UNL     1      37.035 -21.155 -19.984  0.00  0.00    -0.203 F 
ATOM      8  F   UNL     1      32.416 -20.060 -19.834  0.00  0.00    -0.203 F 
ATOM      9  C   UNL     1      34.943 -19.354 -22.350  0.00  0.00    +0.000 C 
ATOM     10  C   UNL     1      33.712 -19.394 -21.694  0.00  0.00    +0.028 C 
ATOM     11  C   UNL     1      36.062 -19.949 -21.769  0.00  0.00    +0.028 C 
ATOM     12  C   UNL     1      34.722 -20.624 -19.877  0.00  0.00    +0.119 C 
ATOM     13  C   UNL     1      35.952 -20.584 -20.532  0.00  0.00    +0.157 C 
ATOM     14  C   UNL     1      33.602 -20.029 -20.457  0.00  0.00    +0.157 C 
BRANCH  12  15
ATOM     15  N   UNL     1      34.610 -21.275 -18.610  0.00  0.00    -0.214 N 
ATOM     16  H   UNL     1      35.050 -20.905 -17.811  0.00  0.00    +0.174 HD
BRANCH  15  17
ATOM     17  S   UNL     1      33.681 -22.722 -18.518  0.00  0.00    +0.056 S 
ATOM     18  O   UNL     1      32.289 -22.362 -18.318  0.00  0.00    -0.154 OA
ATOM     19  O   UNL     1      34.060 -23.648 -19.567  0.00  0.00    -0.154 OA
ATOM     20  C   UNL     1      34.272 -23.376 -16.973  0.00  0.00    +0.200 C 
ENDBRANCH  15  17
ENDBRANCH  12  15
ENDBRANCH   5   9
ENDBRANCH   2   5
BRANCH   3  22
ATOM     21  C   UNL     1      34.229 -14.289 -23.874  0.00  0.00    +0.007 C 
ATOM     22  C   UNL     1      33.606 -15.290 -24.512  0.00  0.00    +0.058 C 
BRANCH  21  25
ATOM     23  N   UNL     1      32.063 -11.680 -22.232  0.00  0.00    -0.406 NA
ATOM     24  C   UNL     1      32.650 -12.854 -22.558  0.00  0.00    +0.108 C 
ATOM     25  C   UNL     1      33.610 -12.991 -23.547  0.00  0.00    +0.022 C 
ATOM     26  C   UNL     1      33.992 -11.853 -24.247  0.00  0.00    -0.017 C 
ATOM     27  C   UNL     1      32.460 -10.595 -22.933  0.00  0.00    +0.184 C 
ATOM     28  C   UNL     1      33.412 -10.627 -23.939  0.00  0.00    +0.089 C 
BRANCH  27  32
ATOM     29  F   UNL     1      30.546  -9.190 -23.064  0.00  0.00    -0.164 F 
ATOM     30  F   UNL     1      31.709  -9.091 -21.230  0.00  0.00    -0.164 F 
ATOM     31  F   UNL     1      32.485  -8.206 -23.051  0.00  0.00    -0.164 F 
ATOM     32  C   UNL     1      31.816  -9.297 -22.576  0.00  0.00    +0.442 C 
ENDBRANCH  27  32
BRANCH  24  33
ATOM     33  C   UNL     1      32.192 -14.037 -21.769  0.00  0.00    +0.059 C 
BRANCH  33  34
ATOM     34  C   UNL     1      33.072 -14.289 -20.539  0.00  0.00    +0.007 C 
ATOM     35  C   UNL     1      33.734 -15.656 -20.584  0.00  0.00    +0.000 C 
ENDBRANCH  33  34
ENDBRANCH  24  33
ENDBRANCH  21  25
ENDBRANCH   3  22
TORSDOF 9
ENDMDL
MODEL 4
REMARK VINA RESULT:     -10.4      5.304     10.560
REMARK  Name = 56649347
REMARK  9 active torsions:
REMARK  status: ('A' for Active; 'I' for Inactive)
REMARK    1  A    between atoms: N_2  and  C_5
REMARK    2  A    between atoms: C_3  and  C_22
REMARK    3  A    between atoms: C_5  and  C_9
REMARK    4  A    between atoms: C_12  and  N_15
REMARK    5  A    between atoms: N_15  and  S_17
REMARK    6  A    between atoms: C_21  and  C_25
REMARK    7  A    between atoms: C_24  and  C_33
REMARK    8  A    between atoms: C_27  and  C_32
REMARK    9  A    between atoms: C_33  and  C_34
REMARK                            x       y       z     vdW  Elec       q    Type
REMARK                         _______ _______ _______ _____ _____    ______ ____
ROOT
ATOM      1  O   UNL     1      35.909 -22.150 -20.291  0.00  0.00    -0.270 OA
ATOM      2  N   UNL     1      35.018 -20.003 -20.326  0.00  0.00    -0.299 N 
ATOM      3  C   UNL     1      35.108 -21.312 -19.886  0.00  0.00    +0.246 C 
ATOM      4  H   UNL     1      34.334 -19.419 -19.927  0.00  0.00    +0.150 HD
ENDROOT
BRANCH   2   5
ATOM      5  C   UNL     1      35.885 -19.453 -21.346  0.00  0.00    +0.095 C 
ATOM      6  C   UNL     1      37.343 -19.551 -20.905  0.00  0.00    +0.026 C 
BRANCH   5   9
ATOM      7  F   UNL     1      34.501 -14.945 -20.075  0.00  0.00    -0.203 F 
ATOM      8  F   UNL     1      35.001 -15.997 -24.679  0.00  0.00    -0.203 F 
ATOM      9  C   UNL     1      35.482 -18.040 -21.711  0.00  0.00    +0.000 C 
ATOM     10  C   UNL     1      35.423 -17.657 -23.052  0.00  0.00    +0.028 C 
ATOM     11  C   UNL     1      35.171 -17.122 -20.709  0.00  0.00    +0.028 C 
ATOM     12  C   UNL     1      34.741 -15.437 -22.386  0.00  0.00    +0.119 C 
ATOM     13  C   UNL     1      34.801 -15.820 -21.046  0.00  0.00    +0.157 C 
ATOM     14  C   UNL     1      35.053 -16.356 -23.389  0.00  0.00    +0.157 C 
BRANCH  12  15
ATOM     15  N   UNL     1      34.362 -14.104 -22.731  0.00  0.00    -0.214 N 
ATOM     16  H   UNL     1      35.035 -13.389 -22.801  0.00  0.00    +0.174 HD
BRANCH  15  17
ATOM     17  S   UNL     1      32.696 -13.782 -23.023  0.00  0.00    +0.056 S 
ATOM     18  O   UNL     1      32.421 -14.029 -24.427  0.00  0.00    -0.154 OA
ATOM     19  O   UNL     1      31.865 -14.374 -21.994  0.00  0.00    -0.154 OA
ATOM     20  C   UNL     1      32.673 -12.018 -22.796  0.00  0.00    +0.200 C 
ENDBRANCH  15  17
ENDBRANCH  12  15
ENDBRANCH   5   9
ENDBRANCH   2   5
BRANCH   3  22
ATOM     21  C   UNL     1      34.239 -22.702 -18.062  0.00  0.00    +0.007 C 
ATOM     22  C   UNL     1      34.099 -21.613 -18.831  0.00  0.00    +0.058 C 
BRANCH  21  25
ATOM     23  N   UNL     1      32.914 -24.062 -14.808  0.00  0.00    -0.406 NA
ATOM     24  C   UNL     1      33.738 -23.693 -15.814  0.00  0.00    +0.108 C 
ATOM     25  C   UNL     1      33.310 -23.091 -16.986  0.00  0.00    +0.022 C 
ATOM     26  C   UNL     1      31.948 -22.851 -17.135  0.00  0.00    -0.017 C 
ATOM     27  C   UNL     1      31.597 -23.813 -14.988  0.00  0.00    +0.184 C 
ATOM     28  C   UNL     1      31.069 -23.215 -16.121  0.00  0.00    +0.089 C 
BRANCH  27  32
ATOM     29  F   UNL     1      29.419 -24.486 -14.315  0.00  0.00    -0.164 F 
ATOM     30  F   UNL     1      31.090 -25.338 -13.217  0.00  0.00    -0.164 F 
ATOM     31  F   UNL     1      30.542 -23.262 -12.913  0.00  0.00    -0.164 F 
ATOM     32  C   UNL     1      30.684 -24.216 -13.879  0.00  0.00    +0.442 C 
ENDBRANCH  27  32
BRANCH  24  33
ATOM     33  C   UNL     1      35.187 -23.982 -15.590  0.00  0.00    +0.059 C 
BRANCH  33  34
ATOM     34  C   UNL     1      35.931 -22.781 -14.992  0.00  0.00    +0.007 C 
ATOM     35  C   UNL     1      37.161 -22.414 -15.805  0.00  0.00    +0.000 C 
ENDBRANCH  33  34
ENDBRANCH  24  33
ENDBRANCH  21  25
ENDBRANCH   3  22
TORSDOF 9
ENDMDL
MODEL 5
REMARK VINA RESULT:     -10.4      5.210     11.066
REMARK  Name = 56649347
REMARK  9 active torsions:
REMARK  status: ('A' for Active; 'I' for Inactive)
REMARK    1  A    between atoms: N_2  and  C_5
REMARK    2  A    between atoms: C_3  and  C_22
REMARK    3  A    between atoms: C_5  and  C_9
REMARK    4  A    between atoms: C_12  and  N_15
REMARK    5  A    between atoms: N_15  and  S_17
REMARK    6  A    between atoms: C_21  and  C_25
REMARK    7  A    between atoms: C_24  and  C_33
REMARK    8  A    between atoms: C_27  and  C_32
REMARK    9  A    between atoms: C_33  and  C_34
REMARK                            x       y       z     vdW  Elec       q    Type
REMARK                         _______ _______ _______ _____ _____    ______ ____
ROOT
ATOM      1  O   UNL     1      32.993 -20.196 -21.060  0.00  0.00    -0.270 OA
ATOM      2  N   UNL     1      35.024 -19.660 -22.057  0.00  0.00    -0.299 N 
ATOM      3  C   UNL     1      34.220 -20.147 -21.041  0.00  0.00    +0.246 C 
ATOM      4  H   UNL     1      36.000 -19.670 -21.930  0.00  0.00    +0.150 HD
ENDROOT
BRANCH   2   5
ATOM      5  C   UNL     1      34.496 -19.136 -23.298  0.00  0.00    +0.095 C 
ATOM      6  C   UNL     1      35.291 -19.685 -24.480  0.00  0.00    +0.026 C 
BRANCH   5   9
ATOM      7  F   UNL     1      34.766 -14.880 -20.919  0.00  0.00    -0.203 F 
ATOM      8  F   UNL     1      33.943 -14.865 -25.597  0.00  0.00    -0.203 F 
ATOM      9  C   UNL     1      34.446 -17.624 -23.284  0.00  0.00    +0.000 C 
ATOM     10  C   UNL     1      34.212 -16.922 -24.467  0.00  0.00    +0.028 C 
ATOM     11  C   UNL     1      34.632 -16.930 -22.088  0.00  0.00    +0.028 C 
ATOM     12  C   UNL     1      34.353 -14.836 -23.258  0.00  0.00    +0.119 C 
ATOM     13  C   UNL     1      34.587 -15.536 -22.075  0.00  0.00    +0.157 C 
ATOM     14  C   UNL     1      34.166 -15.529 -24.454  0.00  0.00    +0.157 C 
BRANCH  12  15
ATOM     15  N   UNL     1      34.306 -13.409 -23.245  0.00  0.00    -0.214 N 
ATOM     16  H   UNL     1      35.125 -12.875 -23.360  0.00  0.00    +0.174 HD
BRANCH  15  17
ATOM     17  S   UNL     1      32.778 -12.647 -23.022  0.00  0.00    +0.056 S 
ATOM     18  O   UNL     1      31.859 -13.162 -24.021  0.00  0.00    -0.154 OA
ATOM     19  O   UNL     1      32.408 -12.626 -21.621  0.00  0.00    -0.154 OA
ATOM     20  C   UNL     1      33.183 -10.983 -23.504  0.00  0.00    +0.200 C 
ENDBRANCH  15  17
ENDBRANCH  12  15
ENDBRANCH   5   9
ENDBRANCH   2   5
BRANCH   3  22
ATOM     21  C   UNL     1      34.560 -21.622 -19.112  0.00  0.00    +0.007 C 
ATOM     22  C   UNL     1      35.023 -20.625 -19.880  0.00  0.00    +0.058 C 
BRANCH  21  25
ATOM     23  N   UNL     1      35.285 -23.564 -15.966  0.00  0.00    -0.406 NA
ATOM     24  C   UNL     1      34.663 -23.035 -17.043  0.00  0.00    +0.108 C 
ATOM     25  C   UNL     1      35.271 -22.179 -17.947  0.00  0.00    +0.022 C 
ATOM     26  C   UNL     1      36.604 -21.845 -17.732  0.00  0.00    -0.017 C 
ATOM     27  C   UNL     1      36.580 -23.217 -15.789  0.00  0.00    +0.184 C 
ATOM     28  C   UNL     1      37.278 -22.370 -16.636  0.00  0.00    +0.089 C 
BRANCH  27  32
ATOM     29  F   UNL     1      36.619 -24.887 -14.097  0.00  0.00    -0.164 F 
ATOM     30  F   UNL     1      38.542 -24.226 -14.865  0.00  0.00    -0.164 F 
ATOM     31  F   UNL     1      37.397 -22.928 -13.560  0.00  0.00    -0.164 F 
ATOM     32  C   UNL     1      37.272 -23.800 -14.603  0.00  0.00    +0.442 C 
ENDBRANCH  27  32
BRANCH  24  33
ATOM     33  C   UNL     1      33.233 -23.433 -17.213  0.00  0.00    +0.059 C 
BRANCH  33  34
ATOM     34  C   UNL     1      32.458 -23.388 -15.890  0.00  0.00    +0.007 C 
ATOM     35  C   UNL     1      31.004 -22.999 -16.098  0.00  0.00    +0.000 C 
ENDBRANCH  33  34
ENDBRANCH  24  33
ENDBRANCH  21  25
ENDBRANCH   3  22
TORSDOF 9
ENDMDL
MODEL 6
REMARK VINA RESULT:     -10.3      6.353      9.912
REMARK  Name = 56649347
REMARK  9 active torsions:
REMARK  status: ('A' for Active; 'I' for Inactive)
REMARK    1  A    between atoms: N_2  and  C_5
REMARK    2  A    between atoms: C_3  and  C_22
REMARK    3  A    between atoms: C_5  and  C_9
REMARK    4  A    between atoms: C_12  and  N_15
REMARK    5  A    between atoms: N_15  and  S_17
REMARK    6  A    between atoms: C_21  and  C_25
REMARK    7  A    between atoms: C_24  and  C_33
REMARK    8  A    between atoms: C_27  and  C_32
REMARK    9  A    between atoms: C_33  and  C_34
REMARK                            x       y       z     vdW  Elec       q    Type
REMARK                         _______ _______ _______ _____ _____    ______ ____
ROOT
ATOM      1  O   UNL     1      34.788 -16.367 -25.233  0.00  0.00    -0.270 OA
ATOM      2  N   UNL     1      34.856 -17.093 -23.026  0.00  0.00    -0.299 N 
ATOM      3  C   UNL     1      34.715 -16.148 -24.027  0.00  0.00    +0.246 C 
ATOM      4  H   UNL     1      34.777 -16.801 -22.089  0.00  0.00    +0.150 HD
ENDROOT
BRANCH   2   5
ATOM      5  C   UNL     1      35.113 -18.492 -23.292  0.00  0.00    +0.095 C 
ATOM      6  C   UNL     1      34.193 -18.994 -24.402  0.00  0.00    +0.026 C 
BRANCH   5   9
ATOM      7  F   UNL     1      37.119 -21.420 -19.938  0.00  0.00    -0.203 F 
ATOM      8  F   UNL     1      32.533 -20.251 -19.539  0.00  0.00    -0.203 F 
ATOM      9  C   UNL     1      35.011 -19.324 -22.032  0.00  0.00    +0.000 C 
ATOM     10  C   UNL     1      33.797 -19.410 -21.349  0.00  0.00    +0.028 C 
ATOM     11  C   UNL     1      36.131 -20.004 -21.552  0.00  0.00    +0.028 C 
ATOM     12  C   UNL     1      34.823 -20.856 -19.709  0.00  0.00    +0.119 C 
ATOM     13  C   UNL     1      36.037 -20.769 -20.390  0.00  0.00    +0.157 C 
ATOM     14  C   UNL     1      33.704 -20.176 -20.188  0.00  0.00    +0.157 C 
BRANCH  12  15
ATOM     15  N   UNL     1      34.728 -21.640 -18.519  0.00  0.00    -0.214 N 
ATOM     16  H   UNL     1      35.278 -21.431 -17.730  0.00  0.00    +0.174 HD
BRANCH  15  17
ATOM     17  S   UNL     1      33.622 -22.960 -18.501  0.00  0.00    +0.056 S 
ATOM     18  O   UNL     1      32.279 -22.431 -18.350  0.00  0.00    -0.154 OA
ATOM     19  O   UNL     1      33.928 -23.907 -19.556  0.00  0.00    -0.154 OA
ATOM     20  C   UNL     1      34.057 -23.713 -16.949  0.00  0.00    +0.200 C 
ENDBRANCH  15  17
ENDBRANCH  12  15
ENDBRANCH   5   9
ENDBRANCH   2   5
BRANCH   3  22
ATOM     21  C   UNL     1      33.311 -14.154 -23.771  0.00  0.00    +0.007 C 
ATOM     22  C   UNL     1      34.454 -14.789 -23.473  0.00  0.00    +0.058 C 
BRANCH  21  25
ATOM     23  N   UNL     1      33.046 -10.407 -23.468  0.00  0.00    -0.406 NA
ATOM     24  C   UNL     1      33.364 -11.650 -23.896  0.00  0.00    +0.108 C 
ATOM     25  C   UNL     1      32.945 -12.815 -23.274  0.00  0.00    +0.022 C 
ATOM     26  C   UNL     1      32.149 -12.698 -22.140  0.00  0.00    -0.017 C 
ATOM     27  C   UNL     1      32.271 -10.333 -22.363  0.00  0.00    +0.184 C 
ATOM     28  C   UNL     1      31.800 -11.437 -21.670  0.00  0.00    +0.089 C 
BRANCH  27  32
ATOM     29  F   UNL     1      32.975  -8.103 -21.930  0.00  0.00    -0.164 F 
ATOM     30  F   UNL     1      30.930  -8.368 -22.621  0.00  0.00    -0.164 F 
ATOM     31  F   UNL     1      31.469  -8.932 -20.598  0.00  0.00    -0.164 F 
ATOM     32  C   UNL     1      31.916  -8.964 -21.888  0.00  0.00    +0.442 C 
ENDBRANCH  27  32
BRANCH  24  33
ATOM     33  C   UNL     1      34.223 -11.703 -25.117  0.00  0.00    +0.059 C 
BRANCH  33  34
ATOM     34  C   UNL     1      35.103 -10.456 -25.262  0.00  0.00    +0.007 C 
ATOM     35  C   UNL     1      35.824 -10.421 -26.599  0.00  0.00    +0.000 C 
ENDBRANCH  33  34
ENDBRANCH  24  33
ENDBRANCH  21  25
ENDBRANCH   3  22
TORSDOF 9
ENDMDL
MODEL 7
REMARK VINA RESULT:     -10.1      3.687      5.651
REMARK  Name = 56649347
REMARK  9 active torsions:
REMARK  status: ('A' for Active; 'I' for Inactive)
REMARK    1  A    between atoms: N_2  and  C_5
REMARK    2  A    between atoms: C_3  and  C_22
REMARK    3  A    between atoms: C_5  and  C_9
REMARK    4  A    between atoms: C_12  and  N_15
REMARK    5  A    between atoms: N_15  and  S_17
REMARK    6  A    between atoms: C_21  and  C_25
REMARK    7  A    between atoms: C_24  and  C_33
REMARK    8  A    between atoms: C_27  and  C_32
REMARK    9  A    between atoms: C_33  and  C_34
REMARK                            x       y       z     vdW  Elec       q    Type
REMARK                         _______ _______ _______ _____ _____    ______ ____
ROOT
ATOM      1  O   UNL     1      36.382 -20.321 -20.779  0.00  0.00    -0.270 OA
ATOM      2  N   UNL     1      34.404 -21.128 -19.862  0.00  0.00    -0.299 N 
ATOM      3  C   UNL     1      35.199 -20.180 -20.483  0.00  0.00    +0.246 C 
ATOM      4  H   UNL     1      33.465 -20.903 -19.672  0.00  0.00    +0.150 HD
ENDROOT
BRANCH   2   5
ATOM      5  C   UNL     1      34.890 -22.436 -19.478  0.00  0.00    +0.095 C 
ATOM      6  C   UNL     1      33.960 -23.520 -20.016  0.00  0.00    +0.026 C 
BRANCH   5   9
ATOM      7  F   UNL     1      37.643 -21.801 -15.495  0.00  0.00    -0.203 F 
ATOM      8  F   UNL     1      33.282 -23.624 -15.025  0.00  0.00    -0.203 F 
ATOM      9  C   UNL     1      35.093 -22.534 -17.982  0.00  0.00    +0.000 C 
ATOM     10  C   UNL     1      34.078 -23.044 -17.172  0.00  0.00    +0.028 C 
ATOM     11  C   UNL     1      36.295 -22.115 -17.412  0.00  0.00    +0.028 C 
ATOM     12  C   UNL     1      35.467 -22.715 -15.224  0.00  0.00    +0.119 C 
ATOM     13  C   UNL     1      36.482 -22.205 -16.032  0.00  0.00    +0.157 C 
ATOM     14  C   UNL     1      34.265 -23.134 -15.794  0.00  0.00    +0.157 C 
BRANCH  12  15
ATOM     15  N   UNL     1      35.659 -22.807 -13.811  0.00  0.00    -0.214 N 
ATOM     16  H   UNL     1      35.234 -22.163 -13.200  0.00  0.00    +0.174 HD
BRANCH  15  17
ATOM     17  S   UNL     1      36.652 -24.077 -13.206  0.00  0.00    +0.056 S 
ATOM     18  O   UNL     1      36.533 -25.216 -14.098  0.00  0.00    -0.154 OA
ATOM     19  O   UNL     1      37.956 -23.576 -12.819  0.00  0.00    -0.154 OA
ATOM     20  C   UNL     1      35.764 -24.490 -11.721  0.00  0.00    +0.200 C 
ENDBRANCH  15  17
ENDBRANCH  12  15
ENDBRANCH   5   9
ENDBRANCH   2   5
BRANCH   3  22
ATOM     21  C   UNL     1      35.090 -17.853 -21.247  0.00  0.00    +0.007 C 
ATOM     22  C   UNL     1      34.446 -18.926 -20.767  0.00  0.00    +0.058 C 
BRANCH  21  25
ATOM     23  N   UNL     1      33.959 -14.809 -23.158  0.00  0.00    -0.406 NA
ATOM     24  C   UNL     1      34.536 -15.986 -22.826  0.00  0.00    +0.108 C 
ATOM     25  C   UNL     1      34.447 -16.566 -21.572  0.00  0.00    +0.022 C 
ATOM     26  C   UNL     1      33.718 -15.898 -20.595  0.00  0.00    -0.017 C 
ATOM     27  C   UNL     1      33.258 -14.188 -22.183  0.00  0.00    +0.184 C 
ATOM     28  C   UNL     1      33.108 -14.686 -20.898  0.00  0.00    +0.089 C 
BRANCH  27  32
ATOM     29  F   UNL     1      31.564 -13.045 -23.399  0.00  0.00    -0.164 F 
ATOM     30  F   UNL     1      32.119 -12.209 -21.470  0.00  0.00    -0.164 F 
ATOM     31  F   UNL     1      33.464 -12.014 -23.160  0.00  0.00    -0.164 F 
ATOM     32  C   UNL     1      32.617 -12.890 -22.544  0.00  0.00    +0.442 C 
ENDBRANCH  27  32
BRANCH  24  33
ATOM     33  C   UNL     1      35.306 -16.649 -23.922  0.00  0.00    +0.059 C 
BRANCH  33  34
ATOM     34  C   UNL     1      34.390 -17.365 -24.921  0.00  0.00    +0.007 C 
ATOM     35  C   UNL     1      34.453 -18.876 -24.768  0.00  0.00    +0.000 C 
ENDBRANCH  33  34
ENDBRANCH  24  33
ENDBRANCH  21  25
ENDBRANCH   3  22
TORSDOF 9
ENDMDL
MODEL 8
REMARK VINA RESULT:     -10.1      6.900     10.572
REMARK  Name = 56649347
REMARK  9 active torsions:
REMARK  status: ('A' for Active; 'I' for Inactive)
REMARK    1  A    between atoms: N_2  and  C_5
REMARK    2  A    between atoms: C_3  and  C_22
REMARK    3  A    between atoms: C_5  and  C_9
REMARK    4  A    between atoms: C_12  and  N_15
REMARK    5  A    between atoms: N_15  and  S_17
REMARK    6  A    between atoms: C_21  and  C_25
REMARK    7  A    between atoms: C_24  and  C_33
REMARK    8  A    between atoms: C_27  and  C_32
REMARK    9  A    between atoms: C_33  and  C_34
REMARK                            x       y       z     vdW  Elec       q    Type
REMARK                         _______ _______ _______ _____ _____    ______ ____
ROOT
ATOM      1  O   UNL     1      33.226 -15.932 -22.862  0.00  0.00    -0.270 OA
ATOM      2  N   UNL     1      35.162 -15.998 -24.147  0.00  0.00    -0.299 N 
ATOM      3  C   UNL     1      34.180 -15.375 -23.397  0.00  0.00    +0.246 C 
ATOM      4  H   UNL     1      35.883 -15.447 -24.529  0.00  0.00    +0.150 HD
ENDROOT
BRANCH   2   5
ATOM      5  C   UNL     1      35.179 -17.423 -24.396  0.00  0.00    +0.095 C 
ATOM      6  C   UNL     1      34.068 -17.799 -25.374  0.00  0.00    +0.026 C 
BRANCH   5   9
ATOM      7  F   UNL     1      32.737 -20.246 -21.247  0.00  0.00    -0.203 F 
ATOM      8  F   UNL     1      37.227 -19.045 -20.272  0.00  0.00    -0.203 F 
ATOM      9  C   UNL     1      35.109 -18.211 -23.106  0.00  0.00    +0.000 C 
ATOM     10  C   UNL     1      36.219 -18.269 -22.262  0.00  0.00    +0.028 C 
ATOM     11  C   UNL     1      33.935 -18.881 -22.759  0.00  0.00    +0.028 C 
ATOM     12  C   UNL     1      34.981 -19.664 -20.728  0.00  0.00    +0.119 C 
ATOM     13  C   UNL     1      33.871 -19.608 -21.571  0.00  0.00    +0.157 C 
ATOM     14  C   UNL     1      36.155 -18.995 -21.074  0.00  0.00    +0.157 C 
BRANCH  12  15
ATOM     15  N   UNL     1      34.915 -20.409 -19.511  0.00  0.00    -0.214 N 
ATOM     16  H   UNL     1      34.434 -20.057 -18.728  0.00  0.00    +0.174 HD
BRANCH  15  17
ATOM     17  S   UNL     1      35.698 -21.942 -19.452  0.00  0.00    +0.056 S 
ATOM     18  O   UNL     1      34.695 -22.961 -19.205  0.00  0.00    -0.154 OA
ATOM     19  O   UNL     1      36.642 -22.084 -20.544  0.00  0.00    -0.154 OA
ATOM     20  C   UNL     1      36.629 -21.760 -17.947  0.00  0.00    +0.200 C 
ENDBRANCH  15  17
ENDBRANCH  12  15
ENDBRANCH   5   9
ENDBRANCH   2   5
BRANCH   3  22
ATOM     21  C   UNL     1      33.521 -13.054 -23.833  0.00  0.00    +0.007 C 
ATOM     22  C   UNL     1      34.407 -13.905 -23.298  0.00  0.00    +0.058 C 
BRANCH  21  25
ATOM     23  N   UNL     1      32.875  -9.446 -22.962  0.00  0.00    -0.406 NA
ATOM     24  C   UNL     1      32.794 -10.794 -23.027  0.00  0.00    +0.108 C 
ATOM     25  C   UNL     1      33.639 -11.585 -23.787  0.00  0.00    +0.022 C 
ATOM     26  C   UNL     1      34.631 -10.953 -24.528  0.00  0.00    -0.017 C 
ATOM     27  C   UNL     1      33.851  -8.866 -23.695  0.00  0.00    +0.184 C 
ATOM     28  C   UNL     1      34.747  -9.568 -24.486  0.00  0.00    +0.089 C 
BRANCH  27  32
ATOM     29  F   UNL     1      35.231  -6.930 -23.729  0.00  0.00    -0.164 F 
ATOM     30  F   UNL     1      33.254  -6.740 -24.614  0.00  0.00    -0.164 F 
ATOM     31  F   UNL     1      33.468  -6.854 -22.459  0.00  0.00    -0.164 F 
ATOM     32  C   UNL     1      33.946  -7.379 -23.625  0.00  0.00    +0.442 C 
ENDBRANCH  27  32
BRANCH  24  33
ATOM     33  C   UNL     1      31.704 -11.407 -22.209  0.00  0.00    +0.059 C 
BRANCH  33  34
ATOM     34  C   UNL     1      31.391 -10.586 -20.952  0.00  0.00    +0.007 C 
ATOM     35  C   UNL     1      31.624 -11.384 -19.680  0.00  0.00    +0.000 C 
ENDBRANCH  33  34
ENDBRANCH  24  33
ENDBRANCH  21  25
ENDBRANCH   3  22
TORSDOF 9
ENDMDL
MODEL 9
REMARK VINA RESULT:     -10.0      4.321      6.444
REMARK  Name = 56649347
REMARK  9 active torsions:
REMARK  status: ('A' for Active; 'I' for Inactive)
REMARK    1  A    between atoms: N_2  and  C_5
REMARK    2  A    between atoms: C_3  and  C_22
REMARK    3  A    between atoms: C_5  and  C_9
REMARK    4  A    between atoms: C_12  and  N_15
REMARK    5  A    between atoms: N_15  and  S_17
REMARK    6  A    between atoms: C_21  and  C_25
REMARK    7  A    between atoms: C_24  and  C_33
REMARK    8  A    between atoms: C_27  and  C_32
REMARK    9  A    between atoms: C_33  and  C_34
REMARK                            x       y       z     vdW  Elec       q    Type
REMARK                         _______ _______ _______ _____ _____    ______ ____
ROOT
ATOM      1  O   UNL     1      36.167 -20.670 -20.194  0.00  0.00    -0.270 OA
ATOM      2  N   UNL     1      34.001 -21.378 -19.732  0.00  0.00    -0.299 N 
ATOM      3  C   UNL     1      34.950 -20.517 -20.255  0.00  0.00    +0.246 C 
ATOM      4  H   UNL     1      33.049 -21.151 -19.842  0.00  0.00    +0.150 HD
ENDROOT
BRANCH   2   5
ATOM      5  C   UNL     1      34.343 -22.597 -19.032  0.00  0.00    +0.095 C 
ATOM      6  C   UNL     1      34.181 -23.799 -19.959  0.00  0.00    +0.026 C 
BRANCH   5   9
ATOM      7  F   UNL     1      30.108 -22.509 -16.602  0.00  0.00    -0.203 F 
ATOM      8  F   UNL     1      34.108 -23.495 -14.239  0.00  0.00    -0.203 F 
ATOM      9  C   UNL     1      33.550 -22.740 -17.750  0.00  0.00    +0.000 C 
ATOM     10  C   UNL     1      34.202 -23.056 -16.558  0.00  0.00    +0.028 C 
ATOM     11  C   UNL     1      32.167 -22.556 -17.761  0.00  0.00    +0.028 C 
ATOM     12  C   UNL     1      32.089 -23.005 -15.389  0.00  0.00    +0.119 C 
ATOM     13  C   UNL     1      31.436 -22.690 -16.581  0.00  0.00    +0.157 C 
ATOM     14  C   UNL     1      33.472 -23.189 -15.378  0.00  0.00    +0.157 C 
BRANCH  12  15
ATOM     15  N   UNL     1      31.340 -23.142 -14.181  0.00  0.00    -0.214 N 
ATOM     16  H   UNL     1      31.100 -22.353 -13.642  0.00  0.00    +0.174 HD
BRANCH  15  17
ATOM     17  S   UNL     1      30.867 -24.724 -13.692  0.00  0.00    +0.056 S 
ATOM     18  O   UNL     1      31.879 -25.664 -14.138  0.00  0.00    -0.154 OA
ATOM     19  O   UNL     1      30.412 -24.727 -12.315  0.00  0.00    -0.154 OA
ATOM     20  C   UNL     1      29.446 -24.963 -14.736  0.00  0.00    +0.200 C 
ENDBRANCH  15  17
ENDBRANCH  12  15
ENDBRANCH   5   9
ENDBRANCH   2   5
BRANCH   3  22
ATOM     21  C   UNL     1      34.996 -18.186 -21.016  0.00  0.00    +0.007 C 
ATOM     22  C   UNL     1      34.324 -19.342 -20.926  0.00  0.00    +0.058 C 
BRANCH  21  25
ATOM     23  N   UNL     1      34.231 -15.582 -23.629  0.00  0.00    -0.406 NA
ATOM     24  C   UNL     1      34.691 -16.689 -23.004  0.00  0.00    +0.108 C 
ATOM     25  C   UNL     1      34.480 -16.966 -21.663  0.00  0.00    +0.022 C 
ATOM     26  C   UNL     1      33.749 -16.050 -20.915  0.00  0.00    -0.017 C 
ATOM     27  C   UNL     1      33.525 -14.713 -22.870  0.00  0.00    +0.184 C 
ATOM     28  C   UNL     1      33.259 -14.899 -21.523  0.00  0.00    +0.089 C 
BRANCH  27  32
ATOM     29  F   UNL     1      33.919 -12.468 -23.547  0.00  0.00    -0.164 F 
ATOM     30  F   UNL     1      32.700 -13.690 -24.869  0.00  0.00    -0.164 F 
ATOM     31  F   UNL     1      31.880 -12.981 -22.991  0.00  0.00    -0.164 F 
ATOM     32  C   UNL     1      33.014 -13.490 -23.555  0.00  0.00    +0.442 C 
ENDBRANCH  27  32
BRANCH  24  33
ATOM     33  C   UNL     1      35.469 -17.630 -23.864  0.00  0.00    +0.059 C 
BRANCH  33  34
ATOM     34  C   UNL     1      34.586 -18.321 -24.911  0.00  0.00    +0.007 C 
ATOM     35  C   UNL     1      34.625 -19.834 -24.777  0.00  0.00    +0.000 C 
ENDBRANCH  33  34
ENDBRANCH  24  33
ENDBRANCH  21  25
ENDBRANCH   3  22
TORSDOF 9
ENDMDL
