MODEL 1
REMARK VINA RESULT:     -10.2      0.000      0.000
REMARK  Name = 12598931
REMARK  4 active torsions:
REMARK  status: ('A' for Active; 'I' for Inactive)
REMARK    1  A    between atoms: N_2  and  N_5
REMARK    2  A    between atoms: C_3  and  C_16
REMARK    3  A    between atoms: C_18  and  S_22
REMARK    4  A    between atoms: S_22  and  N_25
REMARK                            x       y       z     vdW  Elec       q    Type
REMARK                         _______ _______ _______ _____ _____    ______ ____
ROOT
ATOM      1  O   UNL     1      32.722 -13.406 -25.705  0.00  0.00    -0.269 OA
ATOM      2  N   UNL     1      34.171 -12.713 -24.030  0.00  0.00    -0.229 N 
ATOM      3  C   UNL     1      33.540 -13.663 -24.825  0.00  0.00    +0.262 C 
ATOM      4  H   UNL     1      34.818 -12.991 -23.342  0.00  0.00    +0.173 HD
ENDROOT
BRANCH   2   5
ATOM      5  N   UNL     1      33.884 -11.389 -24.214  0.00  0.00    -0.240 N 
ATOM      6  C   UNL     1      34.958 -10.449 -24.553  0.00  0.00    +0.097 C 
ATOM      7  C   UNL     1      34.451  -9.043 -24.134  0.00  0.00    +0.049 C 
ATOM      8  C   UNL     1      33.374  -9.392 -23.156  0.00  0.00    -0.006 C 
ATOM      9  C   UNL     1      33.082 -10.758 -23.246  0.00  0.00    +0.061 C 
ATOM     10  C   UNL     1      35.287 -10.517 -26.037  0.00  0.00    +0.024 C 
ATOM     11  C   UNL     1      32.697  -8.557 -22.284  0.00  0.00    -0.003 C 
ATOM     12  C   UNL     1      32.096 -11.315 -22.445  0.00  0.00    +0.016 C 
ATOM     13  C   UNL     1      31.708  -9.116 -21.474  0.00  0.00    -0.000 C 
ATOM     14  C   UNL     1      31.410 -10.485 -21.553  0.00  0.00    +0.001 C 
ENDBRANCH   2   5
BRANCH   3  16
ATOM     15 CL   UNL     1      34.924 -19.375 -23.777  0.00  0.00    -0.081 Cl
ATOM     16  C   UNL     1      33.887 -15.081 -24.550  0.00  0.00    +0.056 C 
ATOM     17  C   UNL     1      34.124 -15.469 -23.248  0.00  0.00    +0.025 C 
ATOM     18  C   UNL     1      34.448 -16.801 -22.991  0.00  0.00    +0.132 C 
ATOM     19  C   UNL     1      33.960 -15.964 -25.607  0.00  0.00    +0.006 C 
ATOM     20  C   UNL     1      34.528 -17.715 -24.042  0.00  0.00    +0.076 C 
ATOM     21  C   UNL     1      34.284 -17.296 -25.350  0.00  0.00    +0.013 C 
BRANCH  18  22
ATOM     22  S   UNL     1      34.744 -17.270 -21.328  0.00  0.00    +0.058 S 
ATOM     23  O   UNL     1      33.585 -18.009 -20.853  0.00  0.00    -0.153 OA
ATOM     24  O   UNL     1      36.068 -17.866 -21.251  0.00  0.00    -0.153 OA
BRANCH  22  25
ATOM     25  N   UNL     1      34.780 -15.743 -20.567  0.00  0.00    -0.203 NA
ATOM     26  H   UNL     1      35.580 -15.695 -19.937  0.00  0.00    +0.144 HD
ATOM     27  H   UNL     1      33.920 -15.607 -20.036  0.00  0.00    +0.144 HD
ENDBRANCH  22  25
ENDBRANCH  18  22
ENDBRANCH   3  16
TORSDOF 4
ENDMDL
MODEL 2
REMARK VINA RESULT:      -9.9      4.152      5.834
REMARK  Name = 12598931
REMARK  4 active torsions:
REMARK  status: ('A' for Active; 'I' for Inactive)
REMARK    1  A    between atoms: N_2  and  N_5
REMARK    2  A    between atoms: C_3  and  C_16
REMARK    3  A    between atoms: C_18  and  S_22
REMARK    4  A    between atoms: S_22  and  N_25
REMARK                            x       y       z     vdW  Elec       q    Type
REMARK                         _______ _______ _______ _____ _____    ______ ____
ROOT
ATOM      1  O   UNL     1      33.781 -19.307 -22.808  0.00  0.00    -0.269 OA
ATOM      2  N   UNL     1      34.695 -17.417 -21.820  0.00  0.00    -0.229 N 
ATOM      3  C   UNL     1      34.478 -18.784 -21.942  0.00  0.00    +0.262 C 
ATOM      4  H   UNL     1      35.267 -17.066 -21.100  0.00  0.00    +0.173 HD
ENDROOT
BRANCH   2   5
ATOM      5  N   UNL     1      34.104 -16.564 -22.711  0.00  0.00    -0.240 N 
ATOM      6  C   UNL     1      34.850 -16.109 -23.891  0.00  0.00    +0.097 C 
ATOM      7  C   UNL     1      34.176 -14.786 -24.344  0.00  0.00    +0.049 C 
ATOM      8  C   UNL     1      33.458 -14.373 -23.099  0.00  0.00    -0.006 C 
ATOM      9  C   UNL     1      33.442 -15.438 -22.191  0.00  0.00    +0.061 C 
ATOM     10  C   UNL     1      34.825 -17.166 -24.985  0.00  0.00    +0.024 C 
ATOM     11  C   UNL     1      32.849 -13.163 -22.816  0.00  0.00    -0.003 C 
ATOM     12  C   UNL     1      32.810 -15.298 -20.963  0.00  0.00    +0.016 C 
ATOM     13  C   UNL     1      32.217 -13.018 -21.581  0.00  0.00    -0.000 C 
ATOM     14  C   UNL     1      32.199 -14.078 -20.660  0.00  0.00    +0.001 C 
ENDBRANCH   2   5
BRANCH   3  16
ATOM     15 CL   UNL     1      37.166 -22.216 -17.864  0.00  0.00    -0.081 Cl
ATOM     16  C   UNL     1      35.135 -19.644 -20.924  0.00  0.00    +0.056 C 
ATOM     17  C   UNL     1      34.399 -20.644 -20.323  0.00  0.00    +0.025 C 
ATOM     18  C   UNL     1      35.016 -21.453 -19.368  0.00  0.00    +0.132 C 
ATOM     19  C   UNL     1      36.459 -19.416 -20.615  0.00  0.00    +0.006 C 
ATOM     20  C   UNL     1      36.355 -21.243 -19.037  0.00  0.00    +0.076 C 
ATOM     21  C   UNL     1      37.076 -20.224 -19.660  0.00  0.00    +0.013 C 
BRANCH  18  22
ATOM     22  S   UNL     1      34.061 -22.716 -18.618  0.00  0.00    +0.058 S 
ATOM     23  O   UNL     1      34.022 -23.852 -19.526  0.00  0.00    -0.153 OA
ATOM     24  O   UNL     1      34.529 -22.892 -17.252  0.00  0.00    -0.153 OA
BRANCH  22  25
ATOM     25  N   UNL     1      32.523 -21.977 -18.585  0.00  0.00    -0.203 NA
ATOM     26  H   UNL     1      31.884 -22.493 -19.191  0.00  0.00    +0.144 HD
ATOM     27  H   UNL     1      32.601 -21.014 -18.913  0.00  0.00    +0.144 HD
ENDBRANCH  22  25
ENDBRANCH  18  22
ENDBRANCH   3  16
TORSDOF 4
ENDMDL
MODEL 3
REMARK VINA RESULT:      -9.8      4.760      7.017
REMARK  Name = 12598931
REMARK  4 active torsions:
REMARK  status: ('A' for Active; 'I' for Inactive)
REMARK    1  A    between atoms: N_2  and  N_5
REMARK    2  A    between atoms: C_3  and  C_16
REMARK    3  A    between atoms: C_18  and  S_22
REMARK    4  A    between atoms: S_22  and  N_25
REMARK                            x       y       z     vdW  Elec       q    Type
REMARK                         _______ _______ _______ _____ _____    ______ ____
ROOT
ATOM      1  O   UNL     1      33.012 -19.852 -21.568  0.00  0.00    -0.269 OA
ATOM      2  N   UNL     1      35.012 -18.718 -21.884  0.00  0.00    -0.229 N 
ATOM      3  C   UNL     1      34.190 -19.658 -21.275  0.00  0.00    +0.262 C 
ATOM      4  H   UNL     1      35.948 -18.616 -21.598  0.00  0.00    +0.173 HD
ENDROOT
BRANCH   2   5
ATOM      5  N   UNL     1      34.505 -17.935 -22.885  0.00  0.00    -0.240 N 
ATOM      6  C   UNL     1      35.070 -18.021 -24.237  0.00  0.00    +0.097 C 
ATOM      7  C   UNL     1      34.715 -16.683 -24.939  0.00  0.00    +0.049 C 
ATOM      8  C   UNL     1      34.435 -15.795 -23.769  0.00  0.00    -0.006 C 
ATOM      9  C   UNL     1      34.320 -16.568 -22.609  0.00  0.00    +0.061 C 
ATOM     10  C   UNL     1      34.507 -19.223 -24.981  0.00  0.00    +0.024 C 
ATOM     11  C   UNL     1      34.272 -14.420 -23.749  0.00  0.00    -0.003 C 
ATOM     12  C   UNL     1      34.040 -15.963 -21.392  0.00  0.00    +0.016 C 
ATOM     13  C   UNL     1      33.995 -13.809 -22.526  0.00  0.00    -0.000 C 
ATOM     14  C   UNL     1      33.881 -14.574 -21.355  0.00  0.00    +0.001 C 
ENDBRANCH   2   5
BRANCH   3  16
ATOM     15 CL   UNL     1      36.711 -22.842 -16.900  0.00  0.00    -0.081 Cl
ATOM     16  C   UNL     1      34.804 -20.455 -20.183  0.00  0.00    +0.056 C 
ATOM     17  C   UNL     1      34.012 -21.332 -19.471  0.00  0.00    +0.025 C 
ATOM     18  C   UNL     1      34.590 -22.081 -18.446  0.00  0.00    +0.132 C 
ATOM     19  C   UNL     1      36.148 -20.294 -19.917  0.00  0.00    +0.006 C 
ATOM     20  C   UNL     1      35.947 -21.937 -18.156  0.00  0.00    +0.076 C 
ATOM     21  C   UNL     1      36.726 -21.043 -18.892  0.00  0.00    +0.013 C 
BRANCH  18  22
ATOM     22  S   UNL     1      33.563 -23.187 -17.556  0.00  0.00    +0.058 S 
ATOM     23  O   UNL     1      33.624 -24.485 -18.208  0.00  0.00    -0.153 OA
ATOM     24  O   UNL     1      33.882 -23.068 -16.141  0.00  0.00    -0.153 OA
BRANCH  22  25
ATOM     25  N   UNL     1      32.028 -22.495 -17.837  0.00  0.00    -0.203 NA
ATOM     26  H   UNL     1      31.998 -22.105 -18.778  0.00  0.00    +0.144 HD
ATOM     27  H   UNL     1      31.859 -21.755 -17.156  0.00  0.00    +0.144 HD
ENDBRANCH  22  25
ENDBRANCH  18  22
ENDBRANCH   3  16
TORSDOF 4
ENDMDL
MODEL 4
REMARK VINA RESULT:      -9.5      1.909      2.486
REMARK  Name = 12598931
REMARK  4 active torsions:
REMARK  status: ('A' for Active; 'I' for Inactive)
REMARK    1  A    between atoms: N_2  and  N_5
REMARK    2  A    between atoms: C_3  and  C_16
REMARK    3  A    between atoms: C_18  and  S_22
REMARK    4  A    between atoms: S_22  and  N_25
REMARK                            x       y       z     vdW  Elec       q    Type
REMARK                         _______ _______ _______ _____ _____    ______ ____
ROOT
ATOM      1  O   UNL     1      33.087 -12.838 -25.092  0.00  0.00    -0.269 OA
ATOM      2  N   UNL     1      34.108 -11.711 -23.340  0.00  0.00    -0.229 N 
ATOM      3  C   UNL     1      33.631 -12.842 -23.991  0.00  0.00    +0.262 C 
ATOM      4  H   UNL     1      34.535 -11.788 -22.456  0.00  0.00    +0.173 HD
ENDROOT
BRANCH   2   5
ATOM      5  N   UNL     1      33.979 -10.489 -23.941  0.00  0.00    -0.240 N 
ATOM      6  C   UNL     1      35.147  -9.851 -24.558  0.00  0.00    +0.097 C 
ATOM      7  C   UNL     1      34.830  -8.333 -24.614  0.00  0.00    +0.049 C 
ATOM      8  C   UNL     1      33.756  -8.212 -23.581  0.00  0.00    -0.006 C 
ATOM      9  C   UNL     1      33.296  -9.486 -23.230  0.00  0.00    +0.061 C 
ATOM     10  C   UNL     1      35.411 -10.430 -25.940  0.00  0.00    +0.024 C 
ATOM     11  C   UNL     1      33.218  -7.063 -23.026  0.00  0.00    -0.003 C 
ATOM     12  C   UNL     1      32.278  -9.628 -22.297  0.00  0.00    +0.016 C 
ATOM     13  C   UNL     1      32.198  -7.203 -22.084  0.00  0.00    -0.000 C 
ATOM     14  C   UNL     1      31.732  -8.477 -21.721  0.00  0.00    +0.001 C 
ENDBRANCH   2   5
BRANCH   3  16
ATOM     15 CL   UNL     1      34.252 -17.989 -21.029  0.00  0.00    -0.081 Cl
ATOM     16  C   UNL     1      33.788 -14.130 -23.266  0.00  0.00    +0.056 C 
ATOM     17  C   UNL     1      34.200 -15.243 -23.968  0.00  0.00    +0.025 C 
ATOM     18  C   UNL     1      34.349 -16.452 -23.287  0.00  0.00    +0.132 C 
ATOM     19  C   UNL     1      33.518 -14.169 -21.914  0.00  0.00    +0.006 C 
ATOM     20  C   UNL     1      34.082 -16.519 -21.919  0.00  0.00    +0.076 C 
ATOM     21  C   UNL     1      33.667 -15.377 -21.233  0.00  0.00    +0.013 C 
BRANCH  18  22
ATOM     22  S   UNL     1      34.874 -17.852 -24.200  0.00  0.00    +0.058 S 
ATOM     23  O   UNL     1      36.112 -18.337 -23.612  0.00  0.00    -0.153 OA
ATOM     24  O   UNL     1      33.739 -18.750 -24.351  0.00  0.00    -0.153 OA
BRANCH  22  25
ATOM     25  N   UNL     1      35.218 -17.137 -25.712  0.00  0.00    -0.203 NA
ATOM     26  H   UNL     1      34.509 -17.417 -26.390  0.00  0.00    +0.144 HD
ATOM     27  H   UNL     1      36.136 -17.446 -26.032  0.00  0.00    +0.144 HD
ENDBRANCH  22  25
ENDBRANCH  18  22
ENDBRANCH   3  16
TORSDOF 4
ENDMDL
MODEL 5
REMARK VINA RESULT:      -9.4      1.580      2.773
REMARK  Name = 12598931
REMARK  4 active torsions:
REMARK  status: ('A' for Active; 'I' for Inactive)
REMARK    1  A    between atoms: N_2  and  N_5
REMARK    2  A    between atoms: C_3  and  C_16
REMARK    3  A    between atoms: C_18  and  S_22
REMARK    4  A    between atoms: S_22  and  N_25
REMARK                            x       y       z     vdW  Elec       q    Type
REMARK                         _______ _______ _______ _____ _____    ______ ____
ROOT
ATOM      1  O   UNL     1      33.379 -13.283 -21.356  0.00  0.00    -0.269 OA
ATOM      2  N   UNL     1      32.938 -12.261 -23.392  0.00  0.00    -0.229 N 
ATOM      3  C   UNL     1      33.305 -13.328 -22.581  0.00  0.00    +0.262 C 
ATOM      4  H   UNL     1      32.900 -12.369 -24.370  0.00  0.00    +0.173 HD
ENDROOT
BRANCH   2   5
ATOM      5  N   UNL     1      32.631 -11.059 -22.816  0.00  0.00    -0.240 N 
ATOM      6  C   UNL     1      31.227 -10.699 -22.583  0.00  0.00    +0.097 C 
ATOM      7  C   UNL     1      31.190  -9.150 -22.483  0.00  0.00    +0.049 C 
ATOM      8  C   UNL     1      32.467  -8.774 -23.164  0.00  0.00    -0.006 C 
ATOM      9  C   UNL     1      33.265  -9.912 -23.329  0.00  0.00    +0.061 C 
ATOM     10  C   UNL     1      30.703 -11.364 -21.319  0.00  0.00    +0.024 C 
ATOM     11  C   UNL     1      32.890  -7.522 -23.574  0.00  0.00    -0.003 C 
ATOM     12  C   UNL     1      34.514  -9.809 -23.923  0.00  0.00    +0.016 C 
ATOM     13  C   UNL     1      34.144  -7.416 -24.176  0.00  0.00    -0.000 C 
ATOM     14  C   UNL     1      34.951  -8.552 -24.350  0.00  0.00    +0.001 C 
ENDBRANCH   2   5
BRANCH   3  16
ATOM     15 CL   UNL     1      34.650 -18.395 -25.438  0.00  0.00    -0.081 Cl
ATOM     16  C   UNL     1      33.646 -14.594 -23.280  0.00  0.00    +0.056 C 
ATOM     17  C   UNL     1      34.192 -15.631 -22.553  0.00  0.00    +0.025 C 
ATOM     18  C   UNL     1      34.511 -16.820 -23.209  0.00  0.00    +0.132 C 
ATOM     19  C   UNL     1      33.403 -14.692 -24.635  0.00  0.00    +0.006 C 
ATOM     20  C   UNL     1      34.275 -16.945 -24.579  0.00  0.00    +0.076 C 
ATOM     21  C   UNL     1      33.721 -15.881 -25.291  0.00  0.00    +0.013 C 
BRANCH  18  22
ATOM     22  S   UNL     1      35.204 -18.122 -22.263  0.00  0.00    +0.058 S 
ATOM     23  O   UNL     1      34.263 -19.230 -22.261  0.00  0.00    -0.153 OA
ATOM     24  O   UNL     1      36.573 -18.330 -22.708  0.00  0.00    -0.153 OA
BRANCH  22  25
ATOM     25  N   UNL     1      35.230 -17.411 -20.711  0.00  0.00    -0.203 NA
ATOM     26  H   UNL     1      34.821 -18.056 -20.035  0.00  0.00    +0.144 HD
ATOM     27  H   UNL     1      34.691 -16.545 -20.725  0.00  0.00    +0.144 HD
ENDBRANCH  22  25
ENDBRANCH  18  22
ENDBRANCH   3  16
TORSDOF 4
ENDMDL
MODEL 6
REMARK VINA RESULT:      -9.3      4.135      7.738
REMARK  Name = 12598931
REMARK  4 active torsions:
REMARK  status: ('A' for Active; 'I' for Inactive)
REMARK    1  A    between atoms: N_2  and  N_5
REMARK    2  A    between atoms: C_3  and  C_16
REMARK    3  A    between atoms: C_18  and  S_22
REMARK    4  A    between atoms: S_22  and  N_25
REMARK                            x       y       z     vdW  Elec       q    Type
REMARK                         _______ _______ _______ _____ _____    ______ ____
ROOT
ATOM      1  O   UNL     1      31.874 -13.141 -22.907  0.00  0.00    -0.269 OA
ATOM      2  N   UNL     1      34.117 -13.730 -22.868  0.00  0.00    -0.229 N 
ATOM      3  C   UNL     1      33.059 -12.847 -23.044  0.00  0.00    +0.262 C 
ATOM      4  H   UNL     1      35.045 -13.426 -22.995  0.00  0.00    +0.173 HD
ENDROOT
BRANCH   2   5
ATOM      5  N   UNL     1      33.856 -15.026 -22.517  0.00  0.00    -0.240 N 
ATOM      6  C   UNL     1      34.261 -15.521 -21.196  0.00  0.00    +0.097 C 
ATOM      7  C   UNL     1      34.358 -17.065 -21.325  0.00  0.00    +0.049 C 
ATOM      8  C   UNL     1      34.492 -17.235 -22.805  0.00  0.00    -0.006 C 
ATOM      9  C   UNL     1      34.188 -16.029 -23.446  0.00  0.00    +0.061 C 
ATOM     10  C   UNL     1      33.258 -15.100 -20.132  0.00  0.00    +0.024 C 
ATOM     11  C   UNL     1      34.830 -18.375 -23.515  0.00  0.00    -0.003 C 
ATOM     12  C   UNL     1      34.224 -15.946 -24.831  0.00  0.00    +0.016 C 
ATOM     13  C   UNL     1      34.871 -18.293 -24.907  0.00  0.00    -0.000 C 
ATOM     14  C   UNL     1      34.572 -17.087 -25.560  0.00  0.00    +0.001 C 
ENDBRANCH   2   5
BRANCH   3  16
ATOM     15 CL   UNL     1      34.557  -7.307 -24.686  0.00  0.00    -0.081 Cl
ATOM     16  C   UNL     1      33.421 -11.463 -23.445  0.00  0.00    +0.056 C 
ATOM     17  C   UNL     1      32.715 -10.408 -22.907  0.00  0.00    +0.025 C 
ATOM     18  C   UNL     1      33.056  -9.108 -23.283  0.00  0.00    +0.132 C 
ATOM     19  C   UNL     1      34.452 -11.279 -24.343  0.00  0.00    +0.006 C 
ATOM     20  C   UNL     1      34.095  -8.894 -24.190  0.00  0.00    +0.076 C 
ATOM     21  C   UNL     1      34.792  -9.980 -24.719  0.00  0.00    +0.013 C 
BRANCH  18  22
ATOM     22  S   UNL     1      32.145  -7.784 -22.585  0.00  0.00    +0.058 S 
ATOM     23  O   UNL     1      33.033  -6.638 -22.464  0.00  0.00    -0.153 OA
ATOM     24  O   UNL     1      30.891  -7.659 -23.312  0.00  0.00    -0.153 OA
BRANCH  22  25
ATOM     25  N   UNL     1      31.822  -8.403 -21.027  0.00  0.00    -0.203 NA
ATOM     26  H   UNL     1      31.001  -9.007 -21.065  0.00  0.00    +0.144 HD
ATOM     27  H   UNL     1      31.648  -7.631 -20.384  0.00  0.00    +0.144 HD
ENDBRANCH  22  25
ENDBRANCH  18  22
ENDBRANCH   3  16
TORSDOF 4
ENDMDL
MODEL 7
REMARK VINA RESULT:      -8.8      8.549     12.561
REMARK  Name = 12598931
REMARK  4 active torsions:
REMARK  status: ('A' for Active; 'I' for Inactive)
REMARK    1  A    between atoms: N_2  and  N_5
REMARK    2  A    between atoms: C_3  and  C_16
REMARK    3  A    between atoms: C_18  and  S_22
REMARK    4  A    between atoms: S_22  and  N_25
REMARK                            x       y       z     vdW  Elec       q    Type
REMARK                         _______ _______ _______ _____ _____    ______ ____
ROOT
ATOM      1  O   UNL     1      34.049 -23.636 -18.306  0.00  0.00    -0.269 OA
ATOM      2  N   UNL     1      35.229 -22.638 -16.575  0.00  0.00    -0.229 N 
ATOM      3  C   UNL     1      34.802 -22.757 -17.892  0.00  0.00    +0.262 C 
ATOM      4  H   UNL     1      35.834 -21.907 -16.312  0.00  0.00    +0.173 HD
ENDROOT
BRANCH   2   5
ATOM      5  N   UNL     1      34.800 -23.547 -15.647  0.00  0.00    -0.240 N 
ATOM      6  C   UNL     1      33.649 -23.232 -14.794  0.00  0.00    +0.097 C 
ATOM      7  C   UNL     1      33.779 -24.138 -13.541  0.00  0.00    +0.049 C 
ATOM      8  C   UNL     1      35.231 -24.495 -13.579  0.00  0.00    -0.006 C 
ATOM      9  C   UNL     1      35.772 -24.136 -14.818  0.00  0.00    +0.061 C 
ATOM     10  C   UNL     1      32.343 -23.473 -15.538  0.00  0.00    +0.024 C 
ATOM     11  C   UNL     1      35.994 -25.111 -12.601  0.00  0.00    -0.003 C 
ATOM     12  C   UNL     1      37.107 -24.388 -15.097  0.00  0.00    +0.016 C 
ATOM     13  C   UNL     1      37.338 -25.362 -12.877  0.00  0.00    -0.000 C 
ATOM     14  C   UNL     1      37.892 -25.002 -14.116  0.00  0.00    +0.001 C 
ENDBRANCH   2   5
BRANCH   3  16
ATOM     15 CL   UNL     1      36.966 -18.700 -21.699  0.00  0.00    -0.081 Cl
ATOM     16  C   UNL     1      35.327 -21.746 -18.845  0.00  0.00    +0.056 C 
ATOM     17  C   UNL     1      34.438 -21.057 -19.643  0.00  0.00    +0.025 C 
ATOM     18  C   UNL     1      34.931 -20.106 -20.536  0.00  0.00    +0.132 C 
ATOM     19  C   UNL     1      36.688 -21.527 -18.899  0.00  0.00    +0.006 C 
ATOM     20  C   UNL     1      36.304 -19.866 -20.612  0.00  0.00    +0.076 C 
ATOM     21  C   UNL     1      37.182 -20.577 -19.793  0.00  0.00    +0.013 C 
BRANCH  18  22
ATOM     22  S   UNL     1      33.782 -19.244 -21.539  0.00  0.00    +0.058 S 
ATOM     23  O   UNL     1      33.717 -17.868 -21.073  0.00  0.00    -0.153 OA
ATOM     24  O   UNL     1      34.089 -19.527 -22.932  0.00  0.00    -0.153 OA
BRANCH  22  25
ATOM     25  N   UNL     1      32.331 -20.041 -21.120  0.00  0.00    -0.203 NA
ATOM     26  H   UNL     1      31.814 -20.274 -21.968  0.00  0.00    +0.144 HD
ATOM     27  H   UNL     1      31.764 -19.429 -20.533  0.00  0.00    +0.144 HD
ENDBRANCH  22  25
ENDBRANCH  18  22
ENDBRANCH   3  16
TORSDOF 4
ENDMDL
MODEL 8
REMARK VINA RESULT:      -8.8      4.094      6.987
REMARK  Name = 12598931
REMARK  4 active torsions:
REMARK  status: ('A' for Active; 'I' for Inactive)
REMARK    1  A    between atoms: N_2  and  N_5
REMARK    2  A    between atoms: C_3  and  C_16
REMARK    3  A    between atoms: C_18  and  S_22
REMARK    4  A    between atoms: S_22  and  N_25
REMARK                            x       y       z     vdW  Elec       q    Type
REMARK                         _______ _______ _______ _____ _____    ______ ____
ROOT
ATOM      1  O   UNL     1      34.474 -11.245 -25.163  0.00  0.00    -0.269 OA
ATOM      2  N   UNL     1      33.139 -12.842 -24.136  0.00  0.00    -0.229 N 
ATOM      3  C   UNL     1      33.651 -11.561 -24.306  0.00  0.00    +0.262 C 
ATOM      4  H   UNL     1      32.481 -13.024 -23.427  0.00  0.00    +0.173 HD
ENDROOT
BRANCH   2   5
ATOM      5  N   UNL     1      33.560 -13.846 -24.964  0.00  0.00    -0.240 N 
ATOM      6  C   UNL     1      32.718 -14.266 -26.090  0.00  0.00    +0.097 C 
ATOM      7  C   UNL     1      33.159 -15.711 -26.444  0.00  0.00    +0.049 C 
ATOM      8  C   UNL     1      33.839 -16.136 -25.181  0.00  0.00    -0.006 C 
ATOM      9  C   UNL     1      34.050 -15.020 -24.363  0.00  0.00    +0.061 C 
ATOM     10  C   UNL     1      32.879 -13.316 -27.267  0.00  0.00    +0.024 C 
ATOM     11  C   UNL     1      34.255 -17.403 -24.809  0.00  0.00    -0.003 C 
ATOM     12  C   UNL     1      34.687 -15.163 -23.138  0.00  0.00    +0.016 C 
ATOM     13  C   UNL     1      34.891 -17.550 -23.576  0.00  0.00    -0.000 C 
ATOM     14  C   UNL     1      35.105 -16.438 -22.746  0.00  0.00    +0.001 C 
ENDBRANCH   2   5
BRANCH   3  16
ATOM     15 CL   UNL     1      31.708  -7.374 -20.521  0.00  0.00    -0.081 Cl
ATOM     16  C   UNL     1      33.163 -10.529 -23.356  0.00  0.00    +0.056 C 
ATOM     17  C   UNL     1      32.680 -10.930 -22.127  0.00  0.00    +0.025 C 
ATOM     18  C   UNL     1      32.223  -9.961 -21.234  0.00  0.00    +0.132 C 
ATOM     19  C   UNL     1      33.210  -9.203 -23.732  0.00  0.00    +0.006 C 
ATOM     20  C   UNL     1      32.260  -8.612 -21.590  0.00  0.00    +0.076 C 
ATOM     21  C   UNL     1      32.753  -8.234 -22.839  0.00  0.00    +0.013 C 
BRANCH  18  22
ATOM     22  S   UNL     1      31.615 -10.496 -19.680  0.00  0.00    +0.058 S 
ATOM     23  O   UNL     1      32.449  -9.910 -18.642  0.00  0.00    -0.153 OA
ATOM     24  O   UNL     1      30.175 -10.290 -19.659  0.00  0.00    -0.153 OA
BRANCH  22  25
ATOM     25  N   UNL     1      31.933 -12.170 -19.771  0.00  0.00    -0.203 NA
ATOM     26  H   UNL     1      32.844 -12.321 -20.205  0.00  0.00    +0.144 HD
ATOM     27  H   UNL     1      31.210 -12.624 -20.329  0.00  0.00    +0.144 HD
ENDBRANCH  22  25
ENDBRANCH  18  22
ENDBRANCH   3  16
TORSDOF 4
ENDMDL
MODEL 9
REMARK VINA RESULT:      -8.7      3.876      6.238
REMARK  Name = 12598931
REMARK  4 active torsions:
REMARK  status: ('A' for Active; 'I' for Inactive)
REMARK    1  A    between atoms: N_2  and  N_5
REMARK    2  A    between atoms: C_3  and  C_16
REMARK    3  A    between atoms: C_18  and  S_22
REMARK    4  A    between atoms: S_22  and  N_25
REMARK                            x       y       z     vdW  Elec       q    Type
REMARK                         _______ _______ _______ _____ _____    ______ ____
ROOT
ATOM      1  O   UNL     1      32.557  -7.610 -21.083  0.00  0.00    -0.269 OA
ATOM      2  N   UNL     1      31.980  -7.767 -23.324  0.00  0.00    -0.229 N 
ATOM      3  C   UNL     1      32.262  -8.285 -22.066  0.00  0.00    +0.262 C 
ATOM      4  H   UNL     1      31.750  -8.368 -24.070  0.00  0.00    +0.173 HD
ENDROOT
BRANCH   2   5
ATOM      5  N   UNL     1      32.024  -6.413 -23.516  0.00  0.00    -0.240 N 
ATOM      6  C   UNL     1      30.781  -5.633 -23.503  0.00  0.00    +0.097 C 
ATOM      7  C   UNL     1      31.083  -4.328 -24.287  0.00  0.00    +0.049 C 
ATOM      8  C   UNL     1      32.286  -4.726 -25.081  0.00  0.00    -0.006 C 
ATOM      9  C   UNL     1      32.793  -5.935 -24.592  0.00  0.00    +0.061 C 
ATOM     10  C   UNL     1      30.336  -5.351 -22.076  0.00  0.00    +0.024 C 
ATOM     11  C   UNL     1      32.890  -4.052 -26.129  0.00  0.00    -0.003 C 
ATOM     12  C   UNL     1      33.927  -6.498 -25.161  0.00  0.00    +0.016 C 
ATOM     13  C   UNL     1      34.027  -4.618 -26.706  0.00  0.00    -0.000 C 
ATOM     14  C   UNL     1      34.542  -5.833 -26.226  0.00  0.00    +0.001 C 
ENDBRANCH   2   5
BRANCH   3  16
ATOM     15 CL   UNL     1      32.051 -14.225 -21.514  0.00  0.00    -0.081 Cl
ATOM     16  C   UNL     1      32.215  -9.765 -21.942  0.00  0.00    +0.056 C 
ATOM     17  C   UNL     1      32.799 -10.535 -22.926  0.00  0.00    +0.025 C 
ATOM     18  C   UNL     1      32.756 -11.924 -22.808  0.00  0.00    +0.132 C 
ATOM     19  C   UNL     1      31.591 -10.320 -20.845  0.00  0.00    +0.006 C 
ATOM     20  C   UNL     1      32.130 -12.512 -21.708  0.00  0.00    +0.076 C 
ATOM     21  C   UNL     1      31.548 -11.709 -20.727  0.00  0.00    +0.013 C 
BRANCH  18  22
ATOM     22  S   UNL     1      33.505 -12.881 -24.071  0.00  0.00    +0.058 S 
ATOM     23  O   UNL     1      32.509 -13.806 -24.588  0.00  0.00    -0.153 OA
ATOM     24  O   UNL     1      34.199 -11.978 -24.976  0.00  0.00    -0.153 OA
BRANCH  22  25
ATOM     25  N   UNL     1      34.660 -13.755 -23.168  0.00  0.00    -0.203 NA
ATOM     26  H   UNL     1      34.466 -14.753 -23.243  0.00  0.00    +0.144 HD
ATOM     27  H   UNL     1      34.612 -13.471 -22.189  0.00  0.00    +0.144 HD
ENDBRANCH  22  25
ENDBRANCH  18  22
ENDBRANCH   3  16
TORSDOF 4
ENDMDL
