MODEL 1
REMARK VINA RESULT:     -11.2      0.000      0.000
REMARK  Name = 25065981
REMARK  7 active torsions:
REMARK  status: ('A' for Active; 'I' for Inactive)
REMARK    1  A    between atoms: C_1  and  C_3
REMARK    2  A    between atoms: C_1  and  C_16
REMARK    3  A    between atoms: C_11  and  O_13
REMARK    4  A    between atoms: C_16  and  O_17
REMARK    5  A    between atoms: O_17  and  C_18
REMARK    6  A    between atoms: C_21  and  C_25
REMARK    7  A    between atoms: C_25  and  N_26
REMARK                            x       y       z     vdW  Elec       q    Type
REMARK                         _______ _______ _______ _____ _____    ______ ____
ROOT
ATOM      1  C   UNL     1      35.258 -16.981 -22.824  0.00  0.00    +0.122 C 
ATOM      2  C   UNL     1      34.618 -17.299 -24.190  0.00  0.00    +0.016 C 
ENDROOT
BRANCH   1   3
ATOM      3  C   UNL     1      35.354 -18.167 -21.925  0.00  0.00    -0.012 C 
ATOM      4  C   UNL     1      34.264 -19.920 -20.637  0.00  0.00    -0.000 C 
ATOM      5  C   UNL     1      34.192 -18.802 -21.483  0.00  0.00    -0.004 C 
ATOM      6  C   UNL     1      35.532 -20.402 -20.233  0.00  0.00    +0.003 C 
ATOM      7  C   UNL     1      36.600 -18.641 -21.528  0.00  0.00    -0.004 C 
ATOM      8  C   UNL     1      36.691 -19.751 -20.688  0.00  0.00    -0.000 C 
ATOM      9  C   UNL     1      33.106 -20.571 -20.182  0.00  0.00    +0.003 C 
ATOM     10  C   UNL     1      35.605 -21.520 -19.386  0.00  0.00    +0.037 C 
ATOM     11  C   UNL     1      34.444 -22.154 -18.945  0.00  0.00    +0.139 C 
ATOM     12  C   UNL     1      33.197 -21.681 -19.342  0.00  0.00    +0.037 C 
BRANCH  11  13
ATOM     13  O   UNL     1      34.530 -23.238 -18.125  0.00  0.00    -0.471 OA
ATOM     14  C   UNL     1      33.777 -23.198 -16.914  0.00  0.00    +0.252 C 
ENDBRANCH  11  13
ENDBRANCH   1   3
BRANCH   1  16
ATOM     15  O   UNL     1      34.866 -15.255 -21.138  0.00  0.00    -0.249 OA
ATOM     16  C   UNL     1      34.516 -15.805 -22.174  0.00  0.00    +0.325 C 
BRANCH  16  17
ATOM     17  O   UNL     1      33.415 -15.457 -22.956  0.00  0.00    -0.424 OA
BRANCH  17  18
ATOM     18  C   UNL     1      33.194 -14.078 -23.007  0.00  0.00    +0.148 C 
ATOM     19  C   UNL     1      32.268 -13.488 -22.146  0.00  0.00    +0.038 C 
ATOM     20  C   UNL     1      33.899 -13.293 -23.918  0.00  0.00    +0.038 C 
ATOM     21  C   UNL     1      32.752 -11.326 -23.111  0.00  0.00    +0.020 C 
ATOM     22  C   UNL     1      32.047 -12.112 -22.199  0.00  0.00    +0.005 C 
ATOM     23  C   UNL     1      33.678 -11.916 -23.970  0.00  0.00    +0.005 C 
BRANCH  21  25
ATOM     24  S   UNL     1      33.697  -8.731 -23.529  0.00  0.00    -0.035 S 
ATOM     25  C   UNL     1      32.520  -9.892 -23.165  0.00  0.00    +0.078 C 
BRANCH  25  26
ATOM     26  N   UNL     1      31.224  -9.469 -22.902  0.00  0.00    -0.352 N 
ATOM     27  H   UNL     1      31.049  -8.524 -22.684  0.00  0.00    +0.143 HD
ATOM     28  H   UNL     1      30.479 -10.112 -22.932  0.00  0.00    +0.143 HD
ENDBRANCH  25  26
ENDBRANCH  21  25
ENDBRANCH  17  18
ENDBRANCH  16  17
ENDBRANCH   1  16
TORSDOF 7
ENDMDL
MODEL 2
REMARK VINA RESULT:     -10.8      1.179      1.880
REMARK  Name = 25065981
REMARK  7 active torsions:
REMARK  status: ('A' for Active; 'I' for Inactive)
REMARK    1  A    between atoms: C_1  and  C_3
REMARK    2  A    between atoms: C_1  and  C_16
REMARK    3  A    between atoms: C_11  and  O_13
REMARK    4  A    between atoms: C_16  and  O_17
REMARK    5  A    between atoms: O_17  and  C_18
REMARK    6  A    between atoms: C_21  and  C_25
REMARK    7  A    between atoms: C_25  and  N_26
REMARK                            x       y       z     vdW  Elec       q    Type
REMARK                         _______ _______ _______ _____ _____    ______ ____
ROOT
ATOM      1  C   UNL     1      35.251 -18.061 -22.822  0.00  0.00    +0.122 C 
ATOM      2  C   UNL     1      34.671 -18.305 -24.229  0.00  0.00    +0.016 C 
ENDROOT
BRANCH   1   3
ATOM      3  C   UNL     1      34.788 -19.055 -21.812  0.00  0.00    -0.012 C 
ATOM      4  C   UNL     1      35.296 -20.629 -20.026  0.00  0.00    -0.000 C 
ATOM      5  C   UNL     1      35.715 -19.690 -20.983  0.00  0.00    -0.004 C 
ATOM      6  C   UNL     1      33.918 -20.929 -19.908  0.00  0.00    +0.003 C 
ATOM      7  C   UNL     1      33.433 -19.351 -21.695  0.00  0.00    -0.004 C 
ATOM      8  C   UNL     1      32.999 -20.281 -20.750  0.00  0.00    -0.000 C 
ATOM      9  C   UNL     1      36.214 -21.276 -19.184  0.00  0.00    +0.003 C 
ATOM     10  C   UNL     1      33.499 -21.868 -18.952  0.00  0.00    +0.037 C 
ATOM     11  C   UNL     1      34.425 -22.501 -18.123  0.00  0.00    +0.139 C 
ATOM     12  C   UNL     1      35.780 -22.206 -18.239  0.00  0.00    +0.037 C 
BRANCH  11  13
ATOM     13  O   UNL     1      34.004 -23.409 -17.200  0.00  0.00    -0.471 OA
ATOM     14  C   UNL     1      34.596 -23.341 -15.905  0.00  0.00    +0.252 C 
ENDBRANCH  11  13
ENDBRANCH   1   3
BRANCH   1  16
ATOM     15  O   UNL     1      35.131 -16.181 -21.263  0.00  0.00    -0.249 OA
ATOM     16  C   UNL     1      34.970 -16.613 -22.398  0.00  0.00    +0.325 C 
BRANCH  16  17
ATOM     17  O   UNL     1      34.537 -15.878 -23.501  0.00  0.00    -0.424 OA
BRANCH  17  18
ATOM     18  C   UNL     1      33.804 -14.742 -23.148  0.00  0.00    +0.148 C 
ATOM     19  C   UNL     1      32.912 -14.793 -22.076  0.00  0.00    +0.038 C 
ATOM     20  C   UNL     1      33.962 -13.559 -23.868  0.00  0.00    +0.038 C 
ATOM     21  C   UNL     1      32.337 -12.476 -22.446  0.00  0.00    +0.020 C 
ATOM     22  C   UNL     1      32.179 -13.660 -21.725  0.00  0.00    +0.005 C 
ATOM     23  C   UNL     1      33.228 -12.425 -23.517  0.00  0.00    +0.005 C 
BRANCH  21  25
ATOM     24  S   UNL     1      32.006  -9.702 -22.451  0.00  0.00    -0.035 S 
ATOM     25  C   UNL     1      31.572 -11.295 -22.079  0.00  0.00    +0.078 C 
BRANCH  25  26
ATOM     26  N   UNL     1      30.395 -11.520 -21.377  0.00  0.00    -0.352 N 
ATOM     27  H   UNL     1      29.902 -12.364 -21.499  0.00  0.00    +0.143 HD
ATOM     28  H   UNL     1      30.051 -10.836 -20.758  0.00  0.00    +0.143 HD
ENDBRANCH  25  26
ENDBRANCH  21  25
ENDBRANCH  17  18
ENDBRANCH  16  17
ENDBRANCH   1  16
TORSDOF 7
ENDMDL
MODEL 3
REMARK VINA RESULT:     -10.4      1.927      3.253
REMARK  Name = 25065981
REMARK  7 active torsions:
REMARK  status: ('A' for Active; 'I' for Inactive)
REMARK    1  A    between atoms: C_1  and  C_3
REMARK    2  A    between atoms: C_1  and  C_16
REMARK    3  A    between atoms: C_11  and  O_13
REMARK    4  A    between atoms: C_16  and  O_17
REMARK    5  A    between atoms: O_17  and  C_18
REMARK    6  A    between atoms: C_21  and  C_25
REMARK    7  A    between atoms: C_25  and  N_26
REMARK                            x       y       z     vdW  Elec       q    Type
REMARK                         _______ _______ _______ _____ _____    ______ ____
ROOT
ATOM      1  C   UNL     1      35.009 -19.830 -21.501  0.00  0.00    +0.122 C 
ATOM      2  C   UNL     1      33.552 -19.413 -21.784  0.00  0.00    +0.016 C 
ENDROOT
BRANCH   1   3
ATOM      3  C   UNL     1      35.162 -20.635 -20.255  0.00  0.00    -0.012 C 
ATOM      4  C   UNL     1      34.176 -22.021 -18.515  0.00  0.00    -0.000 C 
ATOM      5  C   UNL     1      34.050 -21.259 -19.688  0.00  0.00    -0.004 C 
ATOM      6  C   UNL     1      35.448 -22.152 -17.909  0.00  0.00    +0.003 C 
ATOM      7  C   UNL     1      36.412 -20.764 -19.659  0.00  0.00    -0.004 C 
ATOM      8  C   UNL     1      36.556 -21.518 -18.494  0.00  0.00    -0.000 C 
ATOM      9  C   UNL     1      33.068 -22.656 -17.931  0.00  0.00    +0.003 C 
ATOM     10  C   UNL     1      35.574 -22.914 -16.735  0.00  0.00    +0.037 C 
ATOM     11  C   UNL     1      34.463 -23.538 -16.169  0.00  0.00    +0.139 C 
ATOM     12  C   UNL     1      33.212 -23.409 -16.766  0.00  0.00    +0.037 C 
BRANCH  11  13
ATOM     13  O   UNL     1      34.602 -24.274 -15.032  0.00  0.00    -0.471 OA
ATOM     14  C   UNL     1      35.708 -25.171 -14.970  0.00  0.00    +0.252 C 
ENDBRANCH  11  13
ENDBRANCH   1   3
BRANCH   1  16
ATOM     15  O   UNL     1      36.874 -18.441 -22.253  0.00  0.00    -0.249 OA
ATOM     16  C   UNL     1      35.907 -18.586 -21.515  0.00  0.00    +0.325 C 
BRANCH  16  17
ATOM     17  O   UNL     1      35.436 -17.656 -20.589  0.00  0.00    -0.424 OA
BRANCH  17  18
ATOM     18  C   UNL     1      34.851 -16.538 -21.186  0.00  0.00    +0.148 C 
ATOM     19  C   UNL     1      34.123 -15.634 -20.411  0.00  0.00    +0.038 C 
ATOM     20  C   UNL     1      34.991 -16.326 -22.557  0.00  0.00    +0.038 C 
ATOM     21  C   UNL     1      33.677 -14.306 -22.380  0.00  0.00    +0.020 C 
ATOM     22  C   UNL     1      33.537 -14.518 -21.008  0.00  0.00    +0.005 C 
ATOM     23  C   UNL     1      34.404 -15.209 -23.154  0.00  0.00    +0.005 C 
BRANCH  21  25
ATOM     24  S   UNL     1      33.714 -12.286 -24.309  0.00  0.00    -0.035 S 
ATOM     25  C   UNL     1      33.066 -13.143 -23.001  0.00  0.00    +0.078 C 
BRANCH  25  26
ATOM     26  N   UNL     1      31.853 -12.727 -22.466  0.00  0.00    -0.352 N 
ATOM     27  H   UNL     1      31.448 -11.880 -22.762  0.00  0.00    +0.143 HD
ATOM     28  H   UNL     1      31.397 -13.280 -21.790  0.00  0.00    +0.143 HD
ENDBRANCH  25  26
ENDBRANCH  21  25
ENDBRANCH  17  18
ENDBRANCH  16  17
ENDBRANCH   1  16
TORSDOF 7
ENDMDL
MODEL 4
REMARK VINA RESULT:     -10.4      4.417      9.654
REMARK  Name = 25065981
REMARK  7 active torsions:
REMARK  status: ('A' for Active; 'I' for Inactive)
REMARK    1  A    between atoms: C_1  and  C_3
REMARK    2  A    between atoms: C_1  and  C_16
REMARK    3  A    between atoms: C_11  and  O_13
REMARK    4  A    between atoms: C_16  and  O_17
REMARK    5  A    between atoms: O_17  and  C_18
REMARK    6  A    between atoms: C_21  and  C_25
REMARK    7  A    between atoms: C_25  and  N_26
REMARK                            x       y       z     vdW  Elec       q    Type
REMARK                         _______ _______ _______ _____ _____    ______ ____
ROOT
ATOM      1  C   UNL     1      33.901 -16.019 -22.838  0.00  0.00    +0.122 C 
ATOM      2  C   UNL     1      34.538 -16.245 -24.224  0.00  0.00    +0.016 C 
ENDROOT
BRANCH   1   3
ATOM      3  C   UNL     1      33.373 -14.638 -22.649  0.00  0.00    -0.012 C 
ATOM      4  C   UNL     1      33.322 -12.298 -23.314  0.00  0.00    -0.000 C 
ATOM      5  C   UNL     1      33.810 -13.604 -23.479  0.00  0.00    -0.004 C 
ATOM      6  C   UNL     1      32.378 -12.035 -22.293  0.00  0.00    +0.003 C 
ATOM      7  C   UNL     1      32.444 -14.379 -21.645  0.00  0.00    -0.004 C 
ATOM      8  C   UNL     1      31.949 -13.087 -21.466  0.00  0.00    -0.000 C 
ATOM      9  C   UNL     1      33.751 -11.246 -24.139  0.00  0.00    +0.003 C 
ATOM     10  C   UNL     1      31.890 -10.728 -22.127  0.00  0.00    +0.037 C 
ATOM     11  C   UNL     1      32.327  -9.696 -22.957  0.00  0.00    +0.139 C 
ATOM     12  C   UNL     1      33.255  -9.954 -23.961  0.00  0.00    +0.037 C 
BRANCH  11  13
ATOM     13  O   UNL     1      31.845  -8.434 -22.785  0.00  0.00    -0.471 OA
ATOM     14  C   UNL     1      31.149  -7.849 -23.883  0.00  0.00    +0.252 C 
ENDBRANCH  11  13
ENDBRANCH   1   3
BRANCH   1  16
ATOM     15  O   UNL     1      35.012 -15.857 -20.667  0.00  0.00    -0.249 OA
ATOM     16  C   UNL     1      34.900 -16.425 -21.746  0.00  0.00    +0.325 C 
BRANCH  16  17
ATOM     17  O   UNL     1      35.624 -17.541 -22.165  0.00  0.00    -0.424 OA
BRANCH  17  18
ATOM     18  C   UNL     1      35.373 -18.678 -21.393  0.00  0.00    +0.148 C 
ATOM     19  C   UNL     1      34.062 -19.112 -21.198  0.00  0.00    +0.038 C 
ATOM     20  C   UNL     1      36.433 -19.377 -20.817  0.00  0.00    +0.038 C 
ATOM     21  C   UNL     1      34.871 -20.946 -19.849  0.00  0.00    +0.020 C 
ATOM     22  C   UNL     1      33.811 -20.246 -20.426  0.00  0.00    +0.005 C 
ATOM     23  C   UNL     1      36.181 -20.512 -20.044  0.00  0.00    +0.005 C 
BRANCH  21  25
ATOM     24  S   UNL     1      35.264 -22.425 -17.512  0.00  0.00    -0.035 S 
ATOM     25  C   UNL     1      34.609 -22.128 -19.044  0.00  0.00    +0.078 C 
BRANCH  25  26
ATOM     26  N   UNL     1      33.745 -23.066 -19.595  0.00  0.00    -0.352 N 
ATOM     27  H   UNL     1      33.503 -23.013 -20.548  0.00  0.00    +0.143 HD
ATOM     28  H   UNL     1      33.375 -23.785 -19.033  0.00  0.00    +0.143 HD
ENDBRANCH  25  26
ENDBRANCH  21  25
ENDBRANCH  17  18
ENDBRANCH  16  17
ENDBRANCH   1  16
TORSDOF 7
ENDMDL
MODEL 5
REMARK VINA RESULT:     -10.3      4.363      9.541
REMARK  Name = 25065981
REMARK  7 active torsions:
REMARK  status: ('A' for Active; 'I' for Inactive)
REMARK    1  A    between atoms: C_1  and  C_3
REMARK    2  A    between atoms: C_1  and  C_16
REMARK    3  A    between atoms: C_11  and  O_13
REMARK    4  A    between atoms: C_16  and  O_17
REMARK    5  A    between atoms: O_17  and  C_18
REMARK    6  A    between atoms: C_21  and  C_25
REMARK    7  A    between atoms: C_25  and  N_26
REMARK                            x       y       z     vdW  Elec       q    Type
REMARK                         _______ _______ _______ _____ _____    ______ ____
ROOT
ATOM      1  C   UNL     1      33.623 -15.584 -23.523  0.00  0.00    +0.122 C 
ATOM      2  C   UNL     1      34.041 -16.011 -24.944  0.00  0.00    +0.016 C 
ENDROOT
BRANCH   1   3
ATOM      3  C   UNL     1      33.356 -14.122 -23.399  0.00  0.00    -0.012 C 
ATOM      4  C   UNL     1      32.270 -12.274 -22.248  0.00  0.00    -0.000 C 
ATOM      5  C   UNL     1      32.531 -13.648 -22.378  0.00  0.00    -0.004 C 
ATOM      6  C   UNL     1      32.853 -11.369 -23.165  0.00  0.00    +0.003 C 
ATOM      7  C   UNL     1      33.930 -13.231 -24.302  0.00  0.00    -0.004 C 
ATOM      8  C   UNL     1      33.682 -11.863 -24.187  0.00  0.00    -0.000 C 
ATOM      9  C   UNL     1      31.443 -11.780 -21.227  0.00  0.00    +0.003 C 
ATOM     10  C   UNL     1      32.592  -9.995 -23.035  0.00  0.00    +0.037 C 
ATOM     11  C   UNL     1      31.768  -9.521 -22.014  0.00  0.00    +0.139 C 
ATOM     12  C   UNL     1      31.194 -10.412 -21.112  0.00  0.00    +0.037 C 
BRANCH  11  13
ATOM     13  O   UNL     1      31.525  -8.186 -21.901  0.00  0.00    -0.471 OA
ATOM     14  C   UNL     1      31.417  -7.440 -23.111  0.00  0.00    +0.252 C 
ENDBRANCH  11  13
ENDBRANCH   1   3
BRANCH   1  16
ATOM     15  O   UNL     1      34.891 -15.551 -21.433  0.00  0.00    -0.249 OA
ATOM     16  C   UNL     1      34.665 -16.083 -22.513  0.00  0.00    +0.325 C 
BRANCH  16  17
ATOM     17  O   UNL     1      35.281 -17.233 -23.004  0.00  0.00    -0.424 OA
BRANCH  17  18
ATOM     18  C   UNL     1      35.284 -18.286 -22.087  0.00  0.00    +0.148 C 
ATOM     19  C   UNL     1      36.482 -18.693 -21.497  0.00  0.00    +0.038 C 
ATOM     20  C   UNL     1      34.092 -18.932 -21.763  0.00  0.00    +0.038 C 
ATOM     21  C   UNL     1      35.292 -20.393 -20.258  0.00  0.00    +0.020 C 
ATOM     22  C   UNL     1      36.485 -19.747 -20.583  0.00  0.00    +0.005 C 
ATOM     23  C   UNL     1      34.096 -19.986 -20.848  0.00  0.00    +0.005 C 
BRANCH  21  25
ATOM     24  S   UNL     1      33.982 -22.510 -18.991  0.00  0.00    -0.035 S 
ATOM     25  C   UNL     1      35.297 -21.491 -19.305  0.00  0.00    +0.078 C 
BRANCH  25  26
ATOM     26  N   UNL     1      36.485 -21.703 -18.618  0.00  0.00    -0.352 N 
ATOM     27  H   UNL     1      36.614 -22.530 -18.100  0.00  0.00    +0.143 HD
ATOM     28  H   UNL     1      37.199 -21.025 -18.649  0.00  0.00    +0.143 HD
ENDBRANCH  25  26
ENDBRANCH  21  25
ENDBRANCH  17  18
ENDBRANCH  16  17
ENDBRANCH   1  16
TORSDOF 7
ENDMDL
MODEL 6
REMARK VINA RESULT:     -10.1      3.007      4.702
REMARK  Name = 25065981
REMARK  7 active torsions:
REMARK  status: ('A' for Active; 'I' for Inactive)
REMARK    1  A    between atoms: C_1  and  C_3
REMARK    2  A    between atoms: C_1  and  C_16
REMARK    3  A    between atoms: C_11  and  O_13
REMARK    4  A    between atoms: C_16  and  O_17
REMARK    5  A    between atoms: O_17  and  C_18
REMARK    6  A    between atoms: C_21  and  C_25
REMARK    7  A    between atoms: C_25  and  N_26
REMARK                            x       y       z     vdW  Elec       q    Type
REMARK                         _______ _______ _______ _____ _____    ______ ____
ROOT
ATOM      1  C   UNL     1      34.311 -20.481 -20.903  0.00  0.00    +0.122 C 
ATOM      2  C   UNL     1      32.955 -19.749 -20.948  0.00  0.00    +0.016 C 
ENDROOT
BRANCH   1   3
ATOM      3  C   UNL     1      34.521 -21.259 -19.649  0.00  0.00    -0.012 C 
ATOM      4  C   UNL     1      35.985 -21.981 -17.844  0.00  0.00    -0.000 C 
ATOM      5  C   UNL     1      35.769 -21.253 -19.026  0.00  0.00    -0.004 C 
ATOM      6  C   UNL     1      34.918 -22.725 -17.286  0.00  0.00    +0.003 C 
ATOM      7  C   UNL     1      33.472 -21.991 -19.100  0.00  0.00    -0.004 C 
ATOM      8  C   UNL     1      33.667 -22.720 -17.926  0.00  0.00    -0.000 C 
ATOM      9  C   UNL     1      37.234 -21.987 -17.204  0.00  0.00    +0.003 C 
ATOM     10  C   UNL     1      35.132 -23.454 -16.104  0.00  0.00    +0.037 C 
ATOM     11  C   UNL     1      36.380 -23.447 -15.482  0.00  0.00    +0.139 C 
ATOM     12  C   UNL     1      37.429 -22.716 -16.031  0.00  0.00    +0.037 C 
BRANCH  11  13
ATOM     13  O   UNL     1      36.573 -24.158 -14.336  0.00  0.00    -0.471 OA
ATOM     14  C   UNL     1      36.822 -25.555 -14.472  0.00  0.00    +0.252 C 
ENDBRANCH  11  13
ENDBRANCH   1   3
BRANCH   1  16
ATOM     15  O   UNL     1      36.023 -18.842 -20.302  0.00  0.00    -0.249 OA
ATOM     16  C   UNL     1      35.441 -19.477 -21.172  0.00  0.00    +0.325 C 
BRANCH  16  17
ATOM     17  O   UNL     1      35.708 -19.429 -22.540  0.00  0.00    -0.424 OA
BRANCH  17  18
ATOM     18  C   UNL     1      35.166 -18.304 -23.164  0.00  0.00    +0.148 C 
ATOM     19  C   UNL     1      35.066 -17.099 -22.467  0.00  0.00    +0.038 C 
ATOM     20  C   UNL     1      34.723 -18.384 -24.484  0.00  0.00    +0.038 C 
ATOM     21  C   UNL     1      34.079 -16.056 -24.410  0.00  0.00    +0.020 C 
ATOM     22  C   UNL     1      34.522 -15.976 -23.090  0.00  0.00    +0.005 C 
ATOM     23  C   UNL     1      34.180 -17.260 -25.107  0.00  0.00    +0.005 C 
BRANCH  21  25
ATOM     24  S   UNL     1      33.493 -13.325 -24.402  0.00  0.00    -0.035 S 
ATOM     25  C   UNL     1      33.512 -14.885 -25.058  0.00  0.00    +0.078 C 
BRANCH  25  26
ATOM     26  N   UNL     1      32.956 -15.088 -26.315  0.00  0.00    -0.352 N 
ATOM     27  H   UNL     1      31.979 -15.159 -26.416  0.00  0.00    +0.143 HD
ATOM     28  H   UNL     1      33.539 -15.160 -27.106  0.00  0.00    +0.143 HD
ENDBRANCH  25  26
ENDBRANCH  21  25
ENDBRANCH  17  18
ENDBRANCH  16  17
ENDBRANCH   1  16
TORSDOF 7
ENDMDL
MODEL 7
REMARK VINA RESULT:     -10.1      5.125      9.660
REMARK  Name = 25065981
REMARK  7 active torsions:
REMARK  status: ('A' for Active; 'I' for Inactive)
REMARK    1  A    between atoms: C_1  and  C_3
REMARK    2  A    between atoms: C_1  and  C_16
REMARK    3  A    between atoms: C_11  and  O_13
REMARK    4  A    between atoms: C_16  and  O_17
REMARK    5  A    between atoms: O_17  and  C_18
REMARK    6  A    between atoms: C_21  and  C_25
REMARK    7  A    between atoms: C_25  and  N_26
REMARK                            x       y       z     vdW  Elec       q    Type
REMARK                         _______ _______ _______ _____ _____    ______ ____
ROOT
ATOM      1  C   UNL     1      35.850 -19.676 -21.593  0.00  0.00    +0.122 C 
ATOM      2  C   UNL     1      36.967 -19.148 -20.672  0.00  0.00    +0.016 C 
ENDROOT
BRANCH   1   3
ATOM      3  C   UNL     1      35.319 -18.644 -22.529  0.00  0.00    -0.012 C 
ATOM      4  C   UNL     1      34.664 -16.342 -22.967  0.00  0.00    -0.000 C 
ATOM      5  C   UNL     1      35.163 -17.326 -22.098  0.00  0.00    -0.004 C 
ATOM      6  C   UNL     1      34.317 -16.700 -24.291  0.00  0.00    +0.003 C 
ATOM      7  C   UNL     1      34.977 -18.996 -23.832  0.00  0.00    -0.004 C 
ATOM      8  C   UNL     1      34.480 -18.032 -24.709  0.00  0.00    -0.000 C 
ATOM      9  C   UNL     1      34.501 -15.012 -22.550  0.00  0.00    +0.003 C 
ATOM     10  C   UNL     1      33.817 -15.716 -25.161  0.00  0.00    +0.037 C 
ATOM     11  C   UNL     1      33.663 -14.399 -24.730  0.00  0.00    +0.139 C 
ATOM     12  C   UNL     1      34.004 -14.047 -23.427  0.00  0.00    +0.037 C 
BRANCH  11  13
ATOM     13  O   UNL     1      33.178 -13.456 -25.584  0.00  0.00    -0.471 OA
ATOM     14  C   UNL     1      33.177 -13.777 -26.973  0.00  0.00    +0.252 C 
ENDBRANCH  11  13
ENDBRANCH   1   3
BRANCH   1  16
ATOM     15  O   UNL     1      33.756 -19.737 -20.333  0.00  0.00    -0.249 OA
ATOM     16  C   UNL     1      34.751 -20.324 -20.741  0.00  0.00    +0.325 C 
BRANCH  16  17
ATOM     17  O   UNL     1      35.050 -21.671 -20.534  0.00  0.00    -0.424 OA
BRANCH  17  18
ATOM     18  C   UNL     1      35.143 -22.009 -19.183  0.00  0.00    +0.148 C 
ATOM     19  C   UNL     1      34.066 -22.623 -18.542  0.00  0.00    +0.038 C 
ATOM     20  C   UNL     1      36.312 -21.733 -18.474  0.00  0.00    +0.038 C 
ATOM     21  C   UNL     1      35.328 -22.682 -16.482  0.00  0.00    +0.020 C 
ATOM     22  C   UNL     1      34.159 -22.959 -17.191  0.00  0.00    +0.005 C 
ATOM     23  C   UNL     1      36.404 -22.069 -17.123  0.00  0.00    +0.005 C 
BRANCH  21  25
ATOM     24  S   UNL     1      36.858 -23.421 -14.264  0.00  0.00    -0.035 S 
ATOM     25  C   UNL     1      35.423 -23.033 -15.074  0.00  0.00    +0.078 C 
BRANCH  25  26
ATOM     26  N   UNL     1      34.232 -23.035 -14.360  0.00  0.00    -0.352 N 
ATOM     27  H   UNL     1      34.245 -22.933 -13.380  0.00  0.00    +0.143 HD
ATOM     28  H   UNL     1      33.374 -23.139 -14.832  0.00  0.00    +0.143 HD
ENDBRANCH  25  26
ENDBRANCH  21  25
ENDBRANCH  17  18
ENDBRANCH  16  17
ENDBRANCH   1  16
TORSDOF 7
ENDMDL
MODEL 8
REMARK VINA RESULT:     -10.0      5.120      9.804
REMARK  Name = 25065981
REMARK  7 active torsions:
REMARK  status: ('A' for Active; 'I' for Inactive)
REMARK    1  A    between atoms: C_1  and  C_3
REMARK    2  A    between atoms: C_1  and  C_16
REMARK    3  A    between atoms: C_11  and  O_13
REMARK    4  A    between atoms: C_16  and  O_17
REMARK    5  A    between atoms: O_17  and  C_18
REMARK    6  A    between atoms: C_21  and  C_25
REMARK    7  A    between atoms: C_25  and  N_26
REMARK                            x       y       z     vdW  Elec       q    Type
REMARK                         _______ _______ _______ _____ _____    ______ ____
ROOT
ATOM      1  C   UNL     1      35.635 -20.428 -20.799  0.00  0.00    +0.122 C 
ATOM      2  C   UNL     1      36.779 -20.162 -19.801  0.00  0.00    +0.016 C 
ENDROOT
BRANCH   1   3
ATOM      3  C   UNL     1      35.285 -19.240 -21.629  0.00  0.00    -0.012 C 
ATOM      4  C   UNL     1      34.835 -16.855 -21.798  0.00  0.00    -0.000 C 
ATOM      5  C   UNL     1      35.164 -17.985 -21.032  0.00  0.00    -0.004 C 
ATOM      6  C   UNL     1      34.626 -17.000 -23.190  0.00  0.00    +0.003 C 
ATOM      7  C   UNL     1      35.080 -19.382 -22.998  0.00  0.00    -0.004 C 
ATOM      8  C   UNL     1      34.753 -18.271 -23.775  0.00  0.00    -0.000 C 
ATOM      9  C   UNL     1      34.708 -15.584 -21.214  0.00  0.00    +0.003 C 
ATOM     10  C   UNL     1      34.296 -15.870 -23.957  0.00  0.00    +0.037 C 
ATOM     11  C   UNL     1      34.176 -14.616 -23.360  0.00  0.00    +0.139 C 
ATOM     12  C   UNL     1      34.381 -14.473 -21.991  0.00  0.00    +0.037 C 
BRANCH  11  13
ATOM     13  O   UNL     1      33.857 -13.530 -24.117  0.00  0.00    -0.471 OA
ATOM     14  C   UNL     1      33.182 -12.458 -23.462  0.00  0.00    +0.252 C 
ENDBRANCH  11  13
ENDBRANCH   1   3
BRANCH   1  16
ATOM     15  O   UNL     1      33.395 -20.380 -19.821  0.00  0.00    -0.249 OA
ATOM     16  C   UNL     1      34.426 -21.002 -20.048  0.00  0.00    +0.325 C 
BRANCH  16  17
ATOM     17  O   UNL     1      34.678 -22.328 -19.696  0.00  0.00    -0.424 OA
BRANCH  17  18
ATOM     18  C   UNL     1      34.313 -22.624 -18.381  0.00  0.00    +0.148 C 
ATOM     19  C   UNL     1      35.271 -22.590 -17.367  0.00  0.00    +0.038 C 
ATOM     20  C   UNL     1      32.992 -22.955 -18.082  0.00  0.00    +0.038 C 
ATOM     21  C   UNL     1      33.585 -23.220 -15.755  0.00  0.00    +0.020 C 
ATOM     22  C   UNL     1      34.907 -22.888 -16.054  0.00  0.00    +0.005 C 
ATOM     23  C   UNL     1      32.628 -23.253 -16.768  0.00  0.00    +0.005 C 
BRANCH  21  25
ATOM     24  S   UNL     1      31.619 -23.758 -13.845  0.00  0.00    -0.035 S 
ATOM     25  C   UNL     1      33.207 -23.530 -14.386  0.00  0.00    +0.078 C 
BRANCH  25  26
ATOM     26  N   UNL     1      34.247 -23.650 -13.473  0.00  0.00    -0.352 N 
ATOM     27  H   UNL     1      34.586 -24.542 -13.228  0.00  0.00    +0.143 HD
ATOM     28  H   UNL     1      34.646 -22.845 -13.071  0.00  0.00    +0.143 HD
ENDBRANCH  25  26
ENDBRANCH  21  25
ENDBRANCH  17  18
ENDBRANCH  16  17
ENDBRANCH   1  16
TORSDOF 7
ENDMDL
MODEL 9
REMARK VINA RESULT:     -10.0      3.206      6.131
REMARK  Name = 25065981
REMARK  7 active torsions:
REMARK  status: ('A' for Active; 'I' for Inactive)
REMARK    1  A    between atoms: C_1  and  C_3
REMARK    2  A    between atoms: C_1  and  C_16
REMARK    3  A    between atoms: C_11  and  O_13
REMARK    4  A    between atoms: C_16  and  O_17
REMARK    5  A    between atoms: O_17  and  C_18
REMARK    6  A    between atoms: C_21  and  C_25
REMARK    7  A    between atoms: C_25  and  N_26
REMARK                            x       y       z     vdW  Elec       q    Type
REMARK                         _______ _______ _______ _____ _____    ______ ____
ROOT
ATOM      1  C   UNL     1      31.499 -11.762 -22.209  0.00  0.00    +0.122 C 
ATOM      2  C   UNL     1      30.543 -11.476 -21.033  0.00  0.00    +0.016 C 
ENDROOT
BRANCH   1   3
ATOM      3  C   UNL     1      32.294 -13.011 -22.034  0.00  0.00    -0.012 C 
ATOM      4  C   UNL     1      33.566 -14.845 -23.004  0.00  0.00    -0.000 C 
ATOM      5  C   UNL     1      32.815 -13.667 -23.150  0.00  0.00    -0.004 C 
ATOM      6  C   UNL     1      33.791 -15.365 -21.708  0.00  0.00    +0.003 C 
ATOM      7  C   UNL     1      32.516 -13.523 -20.759  0.00  0.00    -0.004 C 
ATOM      8  C   UNL     1      33.259 -14.692 -20.595  0.00  0.00    -0.000 C 
ATOM      9  C   UNL     1      34.097 -15.518 -24.115  0.00  0.00    +0.003 C 
ATOM     10  C   UNL     1      34.541 -16.543 -21.560  0.00  0.00    +0.037 C 
ATOM     11  C   UNL     1      35.063 -17.198 -22.676  0.00  0.00    +0.139 C 
ATOM     12  C   UNL     1      34.841 -16.687 -23.951  0.00  0.00    +0.037 C 
BRANCH  11  13
ATOM     13  O   UNL     1      35.789 -18.339 -22.518  0.00  0.00    -0.471 OA
ATOM     14  C   UNL     1      35.979 -18.809 -21.185  0.00  0.00    +0.252 C 
ENDBRANCH  11  13
ENDBRANCH   1   3
BRANCH   1  16
ATOM     15  O   UNL     1      33.116 -10.394 -23.430  0.00  0.00    -0.249 OA
ATOM     16  C   UNL     1      32.380 -10.531 -22.460  0.00  0.00    +0.325 C 
BRANCH  16  17
ATOM     17  O   UNL     1      32.188  -9.600 -21.439  0.00  0.00    -0.424 OA
BRANCH  17  18
ATOM     18  C   UNL     1      31.925  -8.314 -21.914  0.00  0.00    +0.148 C 
ATOM     19  C   UNL     1      32.382  -7.201 -21.206  0.00  0.00    +0.038 C 
ATOM     20  C   UNL     1      31.204  -8.140 -23.095  0.00  0.00    +0.038 C 
ATOM     21  C   UNL     1      31.395  -5.743 -22.861  0.00  0.00    +0.020 C 
ATOM     22  C   UNL     1      32.117  -5.917 -21.679  0.00  0.00    +0.005 C 
ATOM     23  C   UNL     1      30.939  -6.855 -23.568  0.00  0.00    +0.005 C 
BRANCH  21  25
ATOM     24  S   UNL     1      31.475  -3.849 -24.912  0.00  0.00    -0.035 S 
ATOM     25  C   UNL     1      31.119  -4.403 -23.353  0.00  0.00    +0.078 C 
BRANCH  25  26
ATOM     26  N   UNL     1      30.510  -3.534 -22.458  0.00  0.00    -0.352 N 
ATOM     27  H   UNL     1      29.741  -3.837 -21.922  0.00  0.00    +0.143 HD
ATOM     28  H   UNL     1      30.846  -2.613 -22.358  0.00  0.00    +0.143 HD
ENDBRANCH  25  26
ENDBRANCH  21  25
ENDBRANCH  17  18
ENDBRANCH  16  17
ENDBRANCH   1  16
TORSDOF 7
ENDMDL
