MODEL 1
REMARK VINA RESULT:      -9.4      0.000      0.000
REMARK  Name = 10041070
REMARK  3 active torsions:
REMARK  status: ('A' for Active; 'I' for Inactive)
REMARK    1  A    between atoms: C_4  and  O_20
REMARK    2  A    between atoms: C_4  and  C_22
REMARK    3  A    between atoms: C_22  and  C_23
REMARK                            x       y       z     vdW  Elec       q    Type
REMARK                         _______ _______ _______ _____ _____    ______ ____
ROOT
ATOM      1  O   UNL     1      36.096 -23.655 -14.766  0.00  0.00    -0.291 OA
ATOM      2  C   UNL     1      35.111 -18.882 -21.613  0.00  0.00    +0.042 C 
ATOM      3  C   UNL     1      34.045 -19.362 -20.599  0.00  0.00    +0.010 C 
ATOM      4  C   UNL     1      34.604 -17.432 -21.870  0.00  0.00    +0.096 C 
ATOM      5  C   UNL     1      34.280 -20.815 -20.175  0.00  0.00    +0.023 C 
ATOM      6  C   UNL     1      32.731 -18.952 -21.246  0.00  0.00    +0.003 C 
ATOM      7  C   UNL     1      33.058 -17.604 -21.921  0.00  0.00    +0.028 C 
ATOM      8  C   UNL     1      36.467 -19.086 -20.988  0.00  0.00    -0.025 C 
ATOM      9  C   UNL     1      35.660 -20.908 -19.489  0.00  0.00    -0.027 C 
ATOM     10  C   UNL     1      35.133 -19.685 -22.944  0.00  0.00    +0.007 C 
ATOM     11  C   UNL     1      33.145 -21.343 -19.292  0.00  0.00    +0.009 C 
ATOM     12  C   UNL     1      36.694 -20.019 -20.044  0.00  0.00    -0.009 C 
ATOM     13  C   UNL     1      35.870 -21.739 -18.435  0.00  0.00    -0.030 C 
ATOM     14  C   UNL     1      33.533 -22.705 -18.732  0.00  0.00    +0.026 C 
ATOM     15  C   UNL     1      34.787 -22.585 -17.902  0.00  0.00    -0.024 C 
ATOM     16  C   UNL     1      37.196 -21.920 -17.719  0.00  0.00    +0.034 C 
ATOM     17  C   UNL     1      34.858 -23.215 -16.717  0.00  0.00    +0.033 C 
ATOM     18  C   UNL     1      37.039 -21.985 -16.205  0.00  0.00    +0.074 C 
ATOM     19  C   UNL     1      36.022 -23.027 -15.818  0.00  0.00    +0.173 C 
ENDROOT
BRANCH   4  20
ATOM     20  O   UNL     1      35.071 -16.936 -23.123  0.00  0.00    -0.386 OA
ATOM     21  H   UNL     1      34.805 -17.544 -23.830  0.00  0.00    +0.210 HD
ENDBRANCH   4  20
BRANCH   4  22
ATOM     22  C   UNL     1      35.012 -16.406 -20.802  0.00  0.00    +0.053 C 
BRANCH  22  23
ATOM     23  C   UNL     1      34.495 -15.047 -21.143  0.00  0.00    -0.024 C 
ATOM     24  C   UNL     1      33.404 -14.507 -20.588  0.00  0.00    -0.005 C 
ENDBRANCH  22  23
ENDBRANCH   4  22
TORSDOF 3
ENDMDL
MODEL 2
REMARK VINA RESULT:      -9.1      2.294      7.657
REMARK  Name = 10041070
REMARK  3 active torsions:
REMARK  status: ('A' for Active; 'I' for Inactive)
REMARK    1  A    between atoms: C_4  and  O_20
REMARK    2  A    between atoms: C_4  and  C_22
REMARK    3  A    between atoms: C_22  and  C_23
REMARK                            x       y       z     vdW  Elec       q    Type
REMARK                         _______ _______ _______ _____ _____    ______ ____
ROOT
ATOM      1  O   UNL     1      34.554 -18.704 -21.975  0.00  0.00    -0.291 OA
ATOM      2  C   UNL     1      34.094 -23.979 -15.448  0.00  0.00    +0.042 C 
ATOM      3  C   UNL     1      35.048 -22.779 -15.666  0.00  0.00    +0.010 C 
ATOM      4  C   UNL     1      33.795 -23.813 -13.929  0.00  0.00    +0.096 C 
ATOM      5  C   UNL     1      35.543 -22.703 -17.112  0.00  0.00    +0.023 C 
ATOM      6  C   UNL     1      36.038 -22.901 -14.518  0.00  0.00    +0.003 C 
ATOM      7  C   UNL     1      35.178 -23.404 -13.341  0.00  0.00    +0.028 C 
ATOM      8  C   UNL     1      32.964 -23.856 -16.438  0.00  0.00    -0.025 C 
ATOM      9  C   UNL     1      34.324 -22.512 -18.039  0.00  0.00    -0.027 C 
ATOM     10  C   UNL     1      34.743 -25.366 -15.718  0.00  0.00    +0.007 C 
ATOM     11  C   UNL     1      36.603 -21.613 -17.298  0.00  0.00    +0.009 C 
ATOM     12  C   UNL     1      33.097 -23.203 -17.608  0.00  0.00    -0.009 C 
ATOM     13  C   UNL     1      34.397 -21.735 -19.151  0.00  0.00    -0.030 C 
ATOM     14  C   UNL     1      36.900 -21.443 -18.782  0.00  0.00    +0.026 C 
ATOM     15  C   UNL     1      35.645 -21.041 -19.517  0.00  0.00    -0.024 C 
ATOM     16  C   UNL     1      33.263 -21.512 -20.135  0.00  0.00    +0.034 C 
ATOM     17  C   UNL     1      35.703 -20.064 -20.438  0.00  0.00    +0.033 C 
ATOM     18  C   UNL     1      33.151 -20.061 -20.582  0.00  0.00    +0.074 C 
ATOM     19  C   UNL     1      34.475 -19.558 -21.096  0.00  0.00    +0.173 C 
ENDROOT
BRANCH   4  20
ATOM     20  O   UNL     1      33.375 -25.045 -13.348  0.00  0.00    -0.386 OA
ATOM     21  H   UNL     1      32.583 -24.895 -12.807  0.00  0.00    +0.210 HD
ENDBRANCH   4  20
BRANCH   4  22
ATOM     22  C   UNL     1      32.720 -22.769 -13.593  0.00  0.00    +0.053 C 
BRANCH  22  23
ATOM     23  C   UNL     1      31.380 -23.412 -13.444  0.00  0.00    -0.024 C 
ATOM     24  C   UNL     1      30.366 -23.222 -14.296  0.00  0.00    -0.005 C 
ENDBRANCH  22  23
ENDBRANCH   4  22
TORSDOF 3
ENDMDL
MODEL 3
REMARK VINA RESULT:      -8.5      6.268     10.539
REMARK  Name = 10041070
REMARK  3 active torsions:
REMARK  status: ('A' for Active; 'I' for Inactive)
REMARK    1  A    between atoms: C_4  and  O_20
REMARK    2  A    between atoms: C_4  and  C_22
REMARK    3  A    between atoms: C_22  and  C_23
REMARK                            x       y       z     vdW  Elec       q    Type
REMARK                         _______ _______ _______ _____ _____    ______ ____
ROOT
ATOM      1  O   UNL     1      34.069 -16.322 -21.173  0.00  0.00    -0.291 OA
ATOM      2  C   UNL     1      32.117  -8.371 -23.074  0.00  0.00    +0.042 C 
ATOM      3  C   UNL     1      32.424  -8.995 -21.690  0.00  0.00    +0.010 C 
ATOM      4  C   UNL     1      32.842  -7.002 -22.918  0.00  0.00    +0.096 C 
ATOM      5  C   UNL     1      31.791 -10.381 -21.541  0.00  0.00    +0.023 C 
ATOM      6  C   UNL     1      32.078  -7.880 -20.715  0.00  0.00    +0.003 C 
ATOM      7  C   UNL     1      32.519  -6.598 -21.449  0.00  0.00    +0.028 C 
ATOM      8  C   UNL     1      32.589  -9.337 -24.130  0.00  0.00    -0.025 C 
ATOM      9  C   UNL     1      32.384 -11.311 -22.620  0.00  0.00    -0.027 C 
ATOM     10  C   UNL     1      30.604  -8.147 -23.350  0.00  0.00    +0.007 C 
ATOM     11  C   UNL     1      31.962 -10.937 -20.124  0.00  0.00    +0.009 C 
ATOM     12  C   UNL     1      32.685 -10.661 -23.907  0.00  0.00    -0.009 C 
ATOM     13  C   UNL     1      32.627 -12.623 -22.367  0.00  0.00    -0.030 C 
ATOM     14  C   UNL     1      31.505 -12.390 -20.092  0.00  0.00    +0.026 C 
ATOM     15  C   UNL     1      32.334 -13.213 -21.048  0.00  0.00    -0.024 C 
ATOM     16  C   UNL     1      33.178 -13.618 -23.372  0.00  0.00    +0.034 C 
ATOM     17  C   UNL     1      32.792 -14.415 -20.659  0.00  0.00    +0.033 C 
ATOM     18  C   UNL     1      34.231 -14.538 -22.768  0.00  0.00    +0.074 C 
ATOM     19  C   UNL     1      33.707 -15.201 -21.521  0.00  0.00    +0.173 C 
ENDROOT
BRANCH   4  20
ATOM     20  O   UNL     1      32.304  -6.028 -23.810  0.00  0.00    -0.386 OA
ATOM     21  H   UNL     1      32.915  -5.894 -24.551  0.00  0.00    +0.210 HD
ENDBRANCH   4  20
BRANCH   4  22
ATOM     22  C   UNL     1      34.358  -7.042 -23.161  0.00  0.00    +0.053 C 
BRANCH  22  23
ATOM     23  C   UNL     1      34.661  -7.253 -24.608  0.00  0.00    -0.024 C 
ATOM     24  C   UNL     1      34.706  -6.266 -25.510  0.00  0.00    -0.005 C 
ENDBRANCH  22  23
ENDBRANCH   4  22
TORSDOF 3
ENDMDL
MODEL 4
REMARK VINA RESULT:      -8.2      5.489      8.570
REMARK  Name = 10041070
REMARK  3 active torsions:
REMARK  status: ('A' for Active; 'I' for Inactive)
REMARK    1  A    between atoms: C_4  and  O_20
REMARK    2  A    between atoms: C_4  and  C_22
REMARK    3  A    between atoms: C_22  and  C_23
REMARK                            x       y       z     vdW  Elec       q    Type
REMARK                         _______ _______ _______ _____ _____    ______ ____
ROOT
ATOM      1  O   UNL     1      28.196 -21.989 -15.866  0.00  0.00    -0.291 OA
ATOM      2  C   UNL     1      36.071 -24.501 -14.343  0.00  0.00    +0.042 C 
ATOM      3  C   UNL     1      35.570 -23.385 -15.294  0.00  0.00    +0.010 C 
ATOM      4  C   UNL     1      37.345 -23.813 -13.769  0.00  0.00    +0.096 C 
ATOM      5  C   UNL     1      34.303 -23.805 -16.042  0.00  0.00    +0.023 C 
ATOM      6  C   UNL     1      36.822 -22.986 -16.061  0.00  0.00    +0.003 C 
ATOM      7  C   UNL     1      37.947 -23.094 -15.011  0.00  0.00    +0.028 C 
ATOM      8  C   UNL     1      34.941 -24.853 -13.410  0.00  0.00    -0.025 C 
ATOM      9  C   UNL     1      33.190 -24.079 -15.008  0.00  0.00    -0.027 C 
ATOM     10  C   UNL     1      36.455 -25.825 -15.062  0.00  0.00    +0.007 C 
ATOM     11  C   UNL     1      33.890 -22.769 -17.093  0.00  0.00    +0.009 C 
ATOM     12  C   UNL     1      33.649 -24.669 -13.740  0.00  0.00    -0.009 C 
ATOM     13  C   UNL     1      31.894 -23.765 -15.265  0.00  0.00    -0.030 C 
ATOM     14  C   UNL     1      32.520 -23.134 -17.651  0.00  0.00    +0.026 C 
ATOM     15  C   UNL     1      31.497 -23.146 -16.543  0.00  0.00    -0.024 C 
ATOM     16  C   UNL     1      30.731 -24.024 -14.325  0.00  0.00    +0.034 C 
ATOM     17  C   UNL     1      30.297 -22.577 -16.746  0.00  0.00    +0.033 C 
ATOM     18  C   UNL     1      29.756 -22.855 -14.263  0.00  0.00    +0.074 C 
ATOM     19  C   UNL     1      29.308 -22.461 -15.647  0.00  0.00    +0.173 C 
ENDROOT
BRANCH   4  20
ATOM     20  O   UNL     1      38.274 -24.776 -13.277  0.00  0.00    -0.386 OA
ATOM     21  H   UNL     1      39.159 -24.381 -13.238  0.00  0.00    +0.210 HD
ENDBRANCH   4  20
BRANCH   4  22
ATOM     22  C   UNL     1      37.083 -22.820 -12.627  0.00  0.00    +0.053 C 
BRANCH  22  23
ATOM     23  C   UNL     1      37.214 -23.488 -11.298  0.00  0.00    -0.024 C 
ATOM     24  C   UNL     1      36.172 -23.918 -10.577  0.00  0.00    -0.005 C 
ENDBRANCH  22  23
ENDBRANCH   4  22
TORSDOF 3
ENDMDL
MODEL 5
REMARK VINA RESULT:      -8.2      5.292      8.934
REMARK  Name = 10041070
REMARK  3 active torsions:
REMARK  status: ('A' for Active; 'I' for Inactive)
REMARK    1  A    between atoms: C_4  and  O_20
REMARK    2  A    between atoms: C_4  and  C_22
REMARK    3  A    between atoms: C_22  and  C_23
REMARK                            x       y       z     vdW  Elec       q    Type
REMARK                         _______ _______ _______ _____ _____    ______ ____
ROOT
ATOM      1  O   UNL     1      35.444 -17.836 -22.309  0.00  0.00    -0.291 OA
ATOM      2  C   UNL     1      31.850 -10.239 -22.182  0.00  0.00    +0.042 C 
ATOM      3  C   UNL     1      32.347 -11.102 -20.996  0.00  0.00    +0.010 C 
ATOM      4  C   UNL     1      32.295  -8.829 -21.694  0.00  0.00    +0.096 C 
ATOM      5  C   UNL     1      32.012 -12.583 -21.193  0.00  0.00    +0.023 C 
ATOM      6  C   UNL     1      31.837 -10.352 -19.775  0.00  0.00    +0.003 C 
ATOM      7  C   UNL     1      31.975  -8.868 -20.171  0.00  0.00    +0.028 C 
ATOM      8  C   UNL     1      32.449 -10.803 -23.445  0.00  0.00    -0.025 C 
ATOM      9  C   UNL     1      32.721 -13.081 -22.470  0.00  0.00    -0.027 C 
ATOM     10  C   UNL     1      30.310 -10.272 -22.393  0.00  0.00    +0.007 C 
ATOM     11  C   UNL     1      32.364 -13.418 -19.958  0.00  0.00    +0.009 C 
ATOM     12  C   UNL     1      32.819 -12.093 -23.556  0.00  0.00    -0.009 C 
ATOM     13  C   UNL     1      33.233 -14.337 -22.549  0.00  0.00    -0.030 C 
ATOM     14  C   UNL     1      32.209 -14.897 -20.286  0.00  0.00    +0.026 C 
ATOM     15  C   UNL     1      33.133 -15.275 -21.416  0.00  0.00    -0.024 C 
ATOM     16  C   UNL     1      33.919 -14.924 -23.769  0.00  0.00    +0.034 C 
ATOM     17  C   UNL     1      33.841 -16.415 -21.337  0.00  0.00    +0.033 C 
ATOM     18  C   UNL     1      35.164 -15.726 -23.413  0.00  0.00    +0.074 C 
ATOM     19  C   UNL     1      34.848 -16.764 -22.368  0.00  0.00    +0.173 C 
ENDROOT
BRANCH   4  20
ATOM     20  O   UNL     1      31.527  -7.802 -22.317  0.00  0.00    -0.386 OA
ATOM     21  H   UNL     1      30.582  -7.997 -22.215  0.00  0.00    +0.210 HD
ENDBRANCH   4  20
BRANCH   4  22
ATOM     22  C   UNL     1      33.773  -8.496 -21.941  0.00  0.00    +0.053 C 
BRANCH  22  23
ATOM     23  C   UNL     1      33.913  -7.412 -22.960  0.00  0.00    -0.024 C 
ATOM     24  C   UNL     1      34.507  -7.580 -24.146  0.00  0.00    -0.005 C 
ENDBRANCH  22  23
ENDBRANCH   4  22
TORSDOF 3
ENDMDL
MODEL 6
REMARK VINA RESULT:      -7.8      9.772     15.895
REMARK  Name = 10041070
REMARK  3 active torsions:
REMARK  status: ('A' for Active; 'I' for Inactive)
REMARK    1  A    between atoms: C_4  and  O_20
REMARK    2  A    between atoms: C_4  and  C_22
REMARK    3  A    between atoms: C_22  and  C_23
REMARK                            x       y       z     vdW  Elec       q    Type
REMARK                         _______ _______ _______ _____ _____    ______ ____
ROOT
ATOM      1  O   UNL     1      33.690  -2.614 -29.666  0.00  0.00    -0.291 OA
ATOM      2  C   UNL     1      33.104  -7.999 -23.239  0.00  0.00    +0.042 C 
ATOM      3  C   UNL     1      31.972  -7.335 -24.061  0.00  0.00    +0.010 C 
ATOM      4  C   UNL     1      32.506  -9.426 -23.061  0.00  0.00    +0.096 C 
ATOM      5  C   UNL     1      32.281  -5.868 -24.370  0.00  0.00    +0.023 C 
ATOM      6  C   UNL     1      30.712  -7.712 -23.296  0.00  0.00    +0.003 C 
ATOM      7  C   UNL     1      30.997  -9.145 -22.800  0.00  0.00    +0.028 C 
ATOM      8  C   UNL     1      34.390  -7.831 -24.007  0.00  0.00    -0.025 C 
ATOM      9  C   UNL     1      33.573  -5.805 -25.211  0.00  0.00    -0.027 C 
ATOM     10  C   UNL     1      33.351  -7.344 -21.850  0.00  0.00    +0.007 C 
ATOM     11  C   UNL     1      31.100  -5.166 -25.048  0.00  0.00    +0.009 C 
ATOM     12  C   UNL     1      34.584  -6.823 -24.878  0.00  0.00    -0.009 C 
ATOM     13  C   UNL     1      33.730  -4.885 -26.198  0.00  0.00    -0.030 C 
ATOM     14  C   UNL     1      31.537  -3.784 -25.519  0.00  0.00    +0.026 C 
ATOM     15  C   UNL     1      32.670  -3.909 -26.507  0.00  0.00    -0.024 C 
ATOM     16  C   UNL     1      34.974  -4.729 -27.054  0.00  0.00    +0.034 C 
ATOM     17  C   UNL     1      32.656  -3.164 -27.626  0.00  0.00    +0.033 C 
ATOM     18  C   UNL     1      34.647  -4.492 -28.523  0.00  0.00    +0.074 C 
ATOM     19  C   UNL     1      33.686  -3.343 -28.677  0.00  0.00    +0.173 C 
ENDROOT
BRANCH   4  20
ATOM     20  O   UNL     1      33.072 -10.084 -21.930  0.00  0.00    -0.386 OA
ATOM     21  H   UNL     1      33.477 -10.920 -22.211  0.00  0.00    +0.210 HD
ENDBRANCH   4  20
BRANCH   4  22
ATOM     22  C   UNL     1      32.696 -10.360 -24.265  0.00  0.00    +0.053 C 
BRANCH  22  23
ATOM     23  C   UNL     1      33.752 -11.379 -23.988  0.00  0.00    -0.024 C 
ATOM     24  C   UNL     1      33.641 -12.672 -24.315  0.00  0.00    -0.005 C 
ENDBRANCH  22  23
ENDBRANCH   4  22
TORSDOF 3
ENDMDL
MODEL 7
REMARK VINA RESULT:      -7.6      2.918      8.389
REMARK  Name = 10041070
REMARK  3 active torsions:
REMARK  status: ('A' for Active; 'I' for Inactive)
REMARK    1  A    between atoms: C_4  and  O_20
REMARK    2  A    between atoms: C_4  and  C_22
REMARK    3  A    between atoms: C_22  and  C_23
REMARK                            x       y       z     vdW  Elec       q    Type
REMARK                         _______ _______ _______ _____ _____    ______ ____
ROOT
ATOM      1  O   UNL     1      34.942 -20.505 -21.837  0.00  0.00    -0.291 OA
ATOM      2  C   UNL     1      37.039 -23.935 -14.456  0.00  0.00    +0.042 C 
ATOM      3  C   UNL     1      36.015 -24.431 -15.505  0.00  0.00    +0.010 C 
ATOM      4  C   UNL     1      37.660 -25.296 -14.021  0.00  0.00    +0.096 C 
ATOM      5  C   UNL     1      35.210 -23.274 -16.103  0.00  0.00    +0.023 C 
ATOM      6  C   UNL     1      35.308 -25.576 -14.795  0.00  0.00    +0.003 C 
ATOM      7  C   UNL     1      36.426 -26.244 -13.970  0.00  0.00    +0.028 C 
ATOM      8  C   UNL     1      37.917 -22.905 -15.120  0.00  0.00    -0.025 C 
ATOM      9  C   UNL     1      36.185 -22.313 -16.814  0.00  0.00    -0.027 C 
ATOM     10  C   UNL     1      36.402 -23.221 -13.231  0.00  0.00    +0.007 C 
ATOM     11  C   UNL     1      34.093 -23.772 -17.027  0.00  0.00    +0.009 C 
ATOM     12  C   UNL     1      37.503 -22.174 -16.172  0.00  0.00    -0.009 C 
ATOM     13  C   UNL     1      35.838 -21.676 -17.962  0.00  0.00    -0.030 C 
ATOM     14  C   UNL     1      33.469 -22.586 -17.750  0.00  0.00    +0.026 C 
ATOM     15  C   UNL     1      34.514 -21.878 -18.577  0.00  0.00    -0.024 C 
ATOM     16  C   UNL     1      36.717 -20.693 -18.714  0.00  0.00    +0.034 C 
ATOM     17  C   UNL     1      34.216 -21.493 -19.830  0.00  0.00    +0.033 C 
ATOM     18  C   UNL     1      36.670 -20.900 -20.222  0.00  0.00    +0.074 C 
ATOM     19  C   UNL     1      35.247 -20.903 -20.716  0.00  0.00    +0.173 C 
ENDROOT
BRANCH   4  20
ATOM     20  O   UNL     1      38.246 -25.204 -12.725  0.00  0.00    -0.386 OA
ATOM     21  H   UNL     1      37.716 -24.610 -12.171  0.00  0.00    +0.210 HD
ENDBRANCH   4  20
BRANCH   4  22
ATOM     22  C   UNL     1      38.740 -25.843 -14.964  0.00  0.00    +0.053 C 
BRANCH  22  23
ATOM     23  C   UNL     1      40.104 -25.630 -14.394  0.00  0.00    -0.024 C 
ATOM     24  C   UNL     1      40.970 -26.620 -14.150  0.00  0.00    -0.005 C 
ENDBRANCH  22  23
ENDBRANCH   4  22
TORSDOF 3
ENDMDL
MODEL 8
REMARK VINA RESULT:      -7.5     12.983     16.314
REMARK  Name = 10041070
REMARK  3 active torsions:
REMARK  status: ('A' for Active; 'I' for Inactive)
REMARK    1  A    between atoms: C_4  and  O_20
REMARK    2  A    between atoms: C_4  and  C_22
REMARK    3  A    between atoms: C_22  and  C_23
REMARK                            x       y       z     vdW  Elec       q    Type
REMARK                         _______ _______ _______ _____ _____    ______ ____
ROOT
ATOM      1  O   UNL     1      32.689  -8.164 -20.240  0.00  0.00    -0.291 OA
ATOM      2  C   UNL     1      33.734  -4.062 -27.501  0.00  0.00    +0.042 C 
ATOM      3  C   UNL     1      32.788  -3.729 -26.321  0.00  0.00    +0.010 C 
ATOM      4  C   UNL     1      34.198  -2.626 -27.887  0.00  0.00    +0.096 C 
ATOM      5  C   UNL     1      32.143  -4.990 -25.739  0.00  0.00    +0.023 C 
ATOM      6  C   UNL     1      31.924  -2.603 -26.867  0.00  0.00    +0.003 C 
ATOM      7  C   UNL     1      32.895  -1.786 -27.744  0.00  0.00    +0.028 C 
ATOM      8  C   UNL     1      34.754  -5.056 -27.008  0.00  0.00    -0.025 C 
ATOM      9  C   UNL     1      33.259  -5.910 -25.204  0.00  0.00    -0.027 C 
ATOM     10  C   UNL     1      33.031  -4.741 -28.710  0.00  0.00    +0.007 C 
ATOM     11  C   UNL     1      31.092  -4.655 -24.676  0.00  0.00    +0.009 C 
ATOM     12  C   UNL     1      34.510  -5.891 -25.980  0.00  0.00    -0.009 C 
ATOM     13  C   UNL     1      33.084  -6.654 -24.081  0.00  0.00    -0.030 C 
ATOM     14  C   UNL     1      30.642  -5.938 -23.989  0.00  0.00    +0.026 C 
ATOM     15  C   UNL     1      31.819  -6.609 -23.325  0.00  0.00    -0.024 C 
ATOM     16  C   UNL     1      34.111  -7.607 -23.497  0.00  0.00    +0.034 C 
ATOM     17  C   UNL     1      31.683  -7.105 -22.084  0.00  0.00    +0.033 C 
ATOM     18  C   UNL     1      34.204  -7.511 -21.980  0.00  0.00    +0.074 C 
ATOM     19  C   UNL     1      32.844  -7.664 -21.351  0.00  0.00    +0.173 C 
ENDROOT
BRANCH   4  20
ATOM     20  O   UNL     1      34.652  -2.576 -29.237  0.00  0.00    -0.386 OA
ATOM     21  H   UNL     1      34.975  -1.683 -29.437  0.00  0.00    +0.210 HD
ENDBRANCH   4  20
BRANCH   4  22
ATOM     22  C   UNL     1      35.324  -2.054 -27.014  0.00  0.00    +0.053 C 
BRANCH  22  23
ATOM     23  C   UNL     1      36.590  -1.921 -27.796  0.00  0.00    -0.024 C 
ATOM     24  C   UNL     1      37.654  -2.713 -27.627  0.00  0.00    -0.005 C 
ENDBRANCH  22  23
ENDBRANCH   4  22
TORSDOF 3
ENDMDL
MODEL 9
REMARK VINA RESULT:      -7.5      3.815      7.640
REMARK  Name = 10041070
REMARK  3 active torsions:
REMARK  status: ('A' for Active; 'I' for Inactive)
REMARK    1  A    between atoms: C_4  and  O_20
REMARK    2  A    between atoms: C_4  and  C_22
REMARK    3  A    between atoms: C_22  and  C_23
REMARK                            x       y       z     vdW  Elec       q    Type
REMARK                         _______ _______ _______ _____ _____    ______ ____
ROOT
ATOM      1  O   UNL     1      37.238 -20.363 -19.926  0.00  0.00    -0.291 OA
ATOM      2  C   UNL     1      31.200 -23.971 -15.325  0.00  0.00    +0.042 C 
ATOM      3  C   UNL     1      32.378 -23.080 -14.860  0.00  0.00    +0.010 C 
ATOM      4  C   UNL     1      30.075 -23.438 -14.390  0.00  0.00    +0.096 C 
ATOM      5  C   UNL     1      33.670 -23.410 -15.613  0.00  0.00    +0.023 C 
ATOM      6  C   UNL     1      32.322 -23.182 -13.344  0.00  0.00    +0.003 C 
ATOM      7  C   UNL     1      30.812 -23.233 -13.034  0.00  0.00    +0.028 C 
ATOM      8  C   UNL     1      31.057 -23.805 -16.816  0.00  0.00    -0.025 C 
ATOM      9  C   UNL     1      33.443 -23.147 -17.116  0.00  0.00    -0.027 C 
ATOM     10  C   UNL     1      31.420 -25.492 -15.087  0.00  0.00    +0.007 C 
ATOM     11  C   UNL     1      34.870 -22.640 -15.053  0.00  0.00    +0.009 C 
ATOM     12  C   UNL     1      32.088 -23.449 -17.606  0.00  0.00    -0.009 C 
ATOM     13  C   UNL     1      34.432 -22.648 -17.903  0.00  0.00    -0.030 C 
ATOM     14  C   UNL     1      36.073 -22.845 -15.966  0.00  0.00    +0.026 C 
ATOM     15  C   UNL     1      35.762 -22.334 -17.351  0.00  0.00    -0.024 C 
ATOM     16  C   UNL     1      34.312 -22.386 -19.393  0.00  0.00    +0.034 C 
ATOM     17  C   UNL     1      36.679 -21.602 -18.006  0.00  0.00    +0.033 C 
ATOM     18  C   UNL     1      34.949 -21.066 -19.809  0.00  0.00    +0.074 C 
ATOM     19  C   UNL     1      36.370 -20.982 -19.316  0.00  0.00    +0.173 C 
ENDROOT
BRANCH   4  20
ATOM     20  O   UNL     1      29.038 -24.404 -14.228  0.00  0.00    -0.386 OA
ATOM     21  H   UNL     1      29.100 -25.066 -14.934  0.00  0.00    +0.210 HD
ENDBRANCH   4  20
BRANCH   4  22
ATOM     22  C   UNL     1      29.407 -22.138 -14.859  0.00  0.00    +0.053 C 
BRANCH  22  23
ATOM     23  C   UNL     1      28.050 -22.408 -15.421  0.00  0.00    -0.024 C 
ATOM     24  C   UNL     1      27.786 -22.463 -16.731  0.00  0.00    -0.005 C 
ENDBRANCH  22  23
ENDBRANCH   4  22
TORSDOF 3
ENDMDL
