MODEL 1
REMARK VINA RESULT:      -9.6      0.000      0.000
REMARK  Name = 656968
REMARK  4 active torsions:
REMARK  status: ('A' for Active; 'I' for Inactive)
REMARK    1  A    between atoms: N_1  and  C_9
REMARK    2  A    between atoms: C_4  and  C_16
REMARK    3  A    between atoms: C_16  and  O_17
REMARK    4  A    between atoms: O_17  and  C_18
REMARK                            x       y       z     vdW  Elec       q    Type
REMARK                         _______ _______ _______ _____ _____    ______ ____
ROOT
ATOM      1  N   UNL     1      34.978 -18.200 -21.794  0.00  0.00    -0.233 N 
ATOM      2  N   UNL     1      34.866 -16.978 -21.235  0.00  0.00    -0.170 NA
ATOM      3  C   UNL     1      34.834 -18.185 -23.156  0.00  0.00    +0.068 A 
ATOM      4  C   UNL     1      34.616 -16.874 -23.504  0.00  0.00    +0.104 A 
ATOM      5  C   UNL     1      34.646 -16.177 -22.281  0.00  0.00    +0.087 A 
ATOM      6  C   UNL     1      34.917 -19.406 -23.985  0.00  0.00    +0.052 C 
ATOM      7  C   UNL     1      34.470 -14.731 -22.060  0.00  0.00    +0.054 C 
ENDROOT
BRANCH   1   9
ATOM      8 CL   UNL     1      32.521 -19.767 -20.913  0.00  0.00    -0.081 Cl
ATOM      9  C   UNL     1      35.216 -19.309 -20.997  0.00  0.00    +0.093 C 
ATOM     10  C   UNL     1      34.172 -20.108 -20.530  0.00  0.00    +0.075 C 
ATOM     11  C   UNL     1      36.534 -19.619 -20.666  0.00  0.00    +0.020 C 
ATOM     12  C   UNL     1      34.448 -21.217 -19.730  0.00  0.00    +0.013 C 
ATOM     13  C   UNL     1      36.810 -20.728 -19.866  0.00  0.00    +0.002 C 
ATOM     14  C   UNL     1      35.767 -21.527 -19.398  0.00  0.00    +0.001 C 
ENDBRANCH   1   9
BRANCH   4  16
ATOM     15  O   UNL     1      35.040 -16.766 -25.832  0.00  0.00    -0.245 OA
ATOM     16  C   UNL     1      34.408 -16.377 -24.831  0.00  0.00    +0.344 C 
BRANCH  16  17
ATOM     17  O   UNL     1      33.431 -15.405 -24.928  0.00  0.00    -0.445 OA
BRANCH  17  18
ATOM     18  C   UNL     1      32.903 -15.135 -26.230  0.00  0.00    +0.209 C 
ATOM     19  C   UNL     1      33.135 -13.676 -26.564  0.00  0.00    +0.051 C 
ENDBRANCH  17  18
ENDBRANCH  16  17
ENDBRANCH   4  16
TORSDOF 4
ENDMDL
MODEL 2
REMARK VINA RESULT:      -9.5      1.209      1.656
REMARK  Name = 656968
REMARK  4 active torsions:
REMARK  status: ('A' for Active; 'I' for Inactive)
REMARK    1  A    between atoms: N_1  and  C_9
REMARK    2  A    between atoms: C_4  and  C_16
REMARK    3  A    between atoms: C_16  and  O_17
REMARK    4  A    between atoms: O_17  and  C_18
REMARK                            x       y       z     vdW  Elec       q    Type
REMARK                         _______ _______ _______ _____ _____    ______ ____
ROOT
ATOM      1  N   UNL     1      34.562 -18.184 -21.829  0.00  0.00    -0.233 N 
ATOM      2  N   UNL     1      34.505 -16.967 -21.252  0.00  0.00    -0.170 NA
ATOM      3  C   UNL     1      34.547 -18.132 -23.198  0.00  0.00    +0.068 A 
ATOM      4  C   UNL     1      34.476 -16.801 -23.530  0.00  0.00    +0.104 A 
ATOM      5  C   UNL     1      34.453 -16.131 -22.292  0.00  0.00    +0.087 A 
ATOM      6  C   UNL     1      34.600 -19.340 -24.048  0.00  0.00    +0.052 C 
ATOM      7  C   UNL     1      34.383 -14.679 -22.049  0.00  0.00    +0.054 C 
ENDROOT
BRANCH   1   9
ATOM      8 CL   UNL     1      37.356 -19.167 -21.124  0.00  0.00    -0.081 Cl
ATOM      9  C   UNL     1      34.627 -19.324 -21.044  0.00  0.00    +0.093 C 
ATOM     10  C   UNL     1      35.849 -19.873 -20.654  0.00  0.00    +0.075 C 
ATOM     11  C   UNL     1      33.434 -19.924 -20.643  0.00  0.00    +0.020 C 
ATOM     12  C   UNL     1      35.877 -21.022 -19.864  0.00  0.00    +0.013 C 
ATOM     13  C   UNL     1      33.461 -21.073 -19.853  0.00  0.00    +0.002 C 
ATOM     14  C   UNL     1      34.683 -21.621 -19.463  0.00  0.00    +0.001 C 
ENDBRANCH   1   9
BRANCH   4  16
ATOM     15  O   UNL     1      35.123 -16.688 -25.806  0.00  0.00    -0.245 OA
ATOM     16  C   UNL     1      34.437 -16.262 -24.856  0.00  0.00    +0.344 C 
BRANCH  16  17
ATOM     17  O   UNL     1      33.561 -15.206 -25.017  0.00  0.00    -0.445 OA
BRANCH  17  18
ATOM     18  C   UNL     1      32.935 -15.062 -26.295  0.00  0.00    +0.209 C 
ATOM     19  C   UNL     1      33.162 -13.654 -26.801  0.00  0.00    +0.051 C 
ENDBRANCH  17  18
ENDBRANCH  16  17
ENDBRANCH   4  16
TORSDOF 4
ENDMDL
MODEL 3
REMARK VINA RESULT:      -9.4      3.574      6.806
REMARK  Name = 656968
REMARK  4 active torsions:
REMARK  status: ('A' for Active; 'I' for Inactive)
REMARK    1  A    between atoms: N_1  and  C_9
REMARK    2  A    between atoms: C_4  and  C_16
REMARK    3  A    between atoms: C_16  and  O_17
REMARK    4  A    between atoms: O_17  and  C_18
REMARK                            x       y       z     vdW  Elec       q    Type
REMARK                         _______ _______ _______ _____ _____    ______ ____
ROOT
ATOM      1  N   UNL     1      34.914 -19.311 -20.779  0.00  0.00    -0.233 N 
ATOM      2  N   UNL     1      36.091 -19.700 -20.250  0.00  0.00    -0.170 NA
ATOM      3  C   UNL     1      33.897 -20.198 -20.545  0.00  0.00    +0.068 A 
ATOM      4  C   UNL     1      34.446 -21.227 -19.818  0.00  0.00    +0.104 A 
ATOM      5  C   UNL     1      35.799 -20.866 -19.666  0.00  0.00    +0.087 A 
ATOM      6  C   UNL     1      32.517 -19.985 -21.029  0.00  0.00    +0.052 C 
ATOM      7  C   UNL     1      36.860 -21.609 -18.965  0.00  0.00    +0.054 C 
ENDROOT
BRANCH   1   9
ATOM      8 CL   UNL     1      35.002 -19.526 -23.815  0.00  0.00    -0.081 Cl
ATOM      9  C   UNL     1      34.827 -18.117 -21.478  0.00  0.00    +0.093 C 
ATOM     10  C   UNL     1      34.856 -18.084 -22.873  0.00  0.00    +0.075 C 
ATOM     11  C   UNL     1      34.707 -16.931 -20.755  0.00  0.00    +0.020 C 
ATOM     12  C   UNL     1      34.767 -16.864 -23.543  0.00  0.00    +0.013 C 
ATOM     13  C   UNL     1      34.617 -15.711 -21.425  0.00  0.00    +0.002 C 
ATOM     14  C   UNL     1      34.647 -15.678 -22.819  0.00  0.00    +0.001 C 
ENDBRANCH   1   9
BRANCH   4  16
ATOM     15  O   UNL     1      34.014 -23.552 -19.700  0.00  0.00    -0.245 OA
ATOM     16  C   UNL     1      33.755 -22.387 -19.342  0.00  0.00    +0.344 C 
BRANCH  16  17
ATOM     17  O   UNL     1      32.750 -22.119 -18.433  0.00  0.00    -0.445 OA
BRANCH  17  18
ATOM     18  C   UNL     1      32.685 -22.944 -17.266  0.00  0.00    +0.209 C 
ATOM     19  C   UNL     1      31.292 -22.860 -16.679  0.00  0.00    +0.051 C 
ENDBRANCH  17  18
ENDBRANCH  16  17
ENDBRANCH   4  16
TORSDOF 4
ENDMDL
MODEL 4
REMARK VINA RESULT:      -8.9      1.140      2.050
REMARK  Name = 656968
REMARK  4 active torsions:
REMARK  status: ('A' for Active; 'I' for Inactive)
REMARK    1  A    between atoms: N_1  and  C_9
REMARK    2  A    between atoms: C_4  and  C_16
REMARK    3  A    between atoms: C_16  and  O_17
REMARK    4  A    between atoms: O_17  and  C_18
REMARK                            x       y       z     vdW  Elec       q    Type
REMARK                         _______ _______ _______ _____ _____    ______ ____
ROOT
ATOM      1  N   UNL     1      34.990 -18.520 -22.051  0.00  0.00    -0.233 N 
ATOM      2  N   UNL     1      34.962 -18.853 -23.356  0.00  0.00    -0.170 NA
ATOM      3  C   UNL     1      34.729 -17.195 -21.826  0.00  0.00    +0.068 A 
ATOM      4  C   UNL     1      34.518 -16.632 -23.062  0.00  0.00    +0.104 A 
ATOM      5  C   UNL     1      34.674 -17.700 -23.965  0.00  0.00    +0.087 A 
ATOM      6  C   UNL     1      34.706 -16.598 -20.474  0.00  0.00    +0.052 C 
ATOM      7  C   UNL     1      34.555 -17.668 -25.434  0.00  0.00    +0.054 C 
ENDROOT
BRANCH   1   9
ATOM      8 CL   UNL     1      32.591 -20.042 -20.956  0.00  0.00    -0.081 Cl
ATOM      9  C   UNL     1      35.265 -19.484 -21.093  0.00  0.00    +0.093 C 
ATOM     10  C   UNL     1      34.250 -20.248 -20.515  0.00  0.00    +0.075 C 
ATOM     11  C   UNL     1      36.591 -19.682 -20.710  0.00  0.00    +0.020 C 
ATOM     12  C   UNL     1      34.563 -21.209 -19.554  0.00  0.00    +0.013 C 
ATOM     13  C   UNL     1      36.904 -20.643 -19.749  0.00  0.00    +0.002 C 
ATOM     14  C   UNL     1      35.890 -21.407 -19.171  0.00  0.00    +0.001 C 
ENDBRANCH   1   9
BRANCH   4  16
ATOM     15  O   UNL     1      34.874 -14.297 -22.889  0.00  0.00    -0.245 OA
ATOM     16  C   UNL     1      34.210 -15.258 -23.322  0.00  0.00    +0.344 C 
BRANCH  16  17
ATOM     17  O   UNL     1      33.091 -15.064 -24.108  0.00  0.00    -0.445 OA
BRANCH  17  18
ATOM     18  C   UNL     1      33.090 -13.929 -24.980  0.00  0.00    +0.209 C 
ATOM     19  C   UNL     1      33.082 -14.409 -26.416  0.00  0.00    +0.051 C 
ENDBRANCH  17  18
ENDBRANCH  16  17
ENDBRANCH   4  16
TORSDOF 4
ENDMDL
MODEL 5
REMARK VINA RESULT:      -8.8      1.668      2.713
REMARK  Name = 656968
REMARK  4 active torsions:
REMARK  status: ('A' for Active; 'I' for Inactive)
REMARK    1  A    between atoms: N_1  and  C_9
REMARK    2  A    between atoms: C_4  and  C_16
REMARK    3  A    between atoms: C_16  and  O_17
REMARK    4  A    between atoms: O_17  and  C_18
REMARK                            x       y       z     vdW  Elec       q    Type
REMARK                         _______ _______ _______ _____ _____    ______ ____
ROOT
ATOM      1  N   UNL     1      34.949 -18.034 -22.162  0.00  0.00    -0.233 N 
ATOM      2  N   UNL     1      34.895 -18.268 -23.488  0.00  0.00    -0.170 NA
ATOM      3  C   UNL     1      34.571 -16.762 -21.823  0.00  0.00    +0.068 A 
ATOM      4  C   UNL     1      34.252 -16.131 -23.001  0.00  0.00    +0.104 A 
ATOM      5  C   UNL     1      34.470 -17.107 -23.992  0.00  0.00    +0.087 A 
ATOM      6  C   UNL     1      34.552 -16.275 -20.428  0.00  0.00    +0.052 C 
ATOM      7  C   UNL     1      34.284 -16.975 -25.448  0.00  0.00    +0.054 C 
ENDROOT
BRANCH   1   9
ATOM      8 CL   UNL     1      32.749 -19.817 -21.044  0.00  0.00    -0.081 Cl
ATOM      9  C   UNL     1      35.357 -19.036 -21.295  0.00  0.00    +0.093 C 
ATOM     10  C   UNL     1      34.444 -19.917 -20.716  0.00  0.00    +0.075 C 
ATOM     11  C   UNL     1      36.716 -19.151 -21.006  0.00  0.00    +0.020 C 
ATOM     12  C   UNL     1      34.890 -20.913 -19.848  0.00  0.00    +0.013 C 
ATOM     13  C   UNL     1      37.163 -20.147 -20.138  0.00  0.00    +0.002 C 
ATOM     14  C   UNL     1      36.249 -21.029 -19.559  0.00  0.00    +0.001 C 
ENDBRANCH   1   9
BRANCH   4  16
ATOM     15  O   UNL     1      34.478 -13.863 -23.647  0.00  0.00    -0.245 OA
ATOM     16  C   UNL     1      33.802 -14.778 -23.139  0.00  0.00    +0.344 C 
BRANCH  16  17
ATOM     17  O   UNL     1      32.529 -14.550 -22.654  0.00  0.00    -0.445 OA
BRANCH  17  18
ATOM     18  C   UNL     1      32.252 -13.249 -22.126  0.00  0.00    +0.209 C 
ATOM     19  C   UNL     1      32.331 -13.303 -20.615  0.00  0.00    +0.051 C 
ENDBRANCH  17  18
ENDBRANCH  16  17
ENDBRANCH   4  16
TORSDOF 4
ENDMDL
MODEL 6
REMARK VINA RESULT:      -8.5      3.539      7.002
REMARK  Name = 656968
REMARK  4 active torsions:
REMARK  status: ('A' for Active; 'I' for Inactive)
REMARK    1  A    between atoms: N_1  and  C_9
REMARK    2  A    between atoms: C_4  and  C_16
REMARK    3  A    between atoms: C_16  and  O_17
REMARK    4  A    between atoms: O_17  and  C_18
REMARK                            x       y       z     vdW  Elec       q    Type
REMARK                         _______ _______ _______ _____ _____    ______ ____
ROOT
ATOM      1  N   UNL     1      34.963 -19.562 -21.405  0.00  0.00    -0.233 N 
ATOM      2  N   UNL     1      36.174 -19.918 -20.932  0.00  0.00    -0.170 NA
ATOM      3  C   UNL     1      33.928 -20.192 -20.765  0.00  0.00    +0.068 A 
ATOM      4  C   UNL     1      34.502 -21.006 -19.819  0.00  0.00    +0.104 A 
ATOM      5  C   UNL     1      35.886 -20.796 -19.968  0.00  0.00    +0.087 A 
ATOM      6  C   UNL     1      32.510 -19.961 -21.112  0.00  0.00    +0.052 C 
ATOM      7  C   UNL     1      36.983 -21.417 -19.204  0.00  0.00    +0.054 C 
ENDROOT
BRANCH   1   9
ATOM      8 CL   UNL     1      34.948 -16.628 -20.592  0.00  0.00    -0.081 Cl
ATOM      9  C   UNL     1      34.862 -18.644 -22.438  0.00  0.00    +0.093 C 
ATOM     10  C   UNL     1      34.844 -17.270 -22.194  0.00  0.00    +0.075 C 
ATOM     11  C   UNL     1      34.776 -19.122 -23.745  0.00  0.00    +0.020 C 
ATOM     12  C   UNL     1      34.741 -16.375 -23.259  0.00  0.00    +0.013 C 
ATOM     13  C   UNL     1      34.673 -18.226 -24.810  0.00  0.00    +0.002 C 
ATOM     14  C   UNL     1      34.656 -16.853 -24.566  0.00  0.00    +0.001 C 
ENDBRANCH   1   9
BRANCH   4  16
ATOM     15  O   UNL     1      32.564 -21.959 -18.846  0.00  0.00    -0.245 OA
ATOM     16  C   UNL     1      33.804 -21.861 -18.905  0.00  0.00    +0.344 C 
BRANCH  16  17
ATOM     17  O   UNL     1      34.625 -22.591 -18.068  0.00  0.00    -0.445 OA
BRANCH  17  18
ATOM     18  C   UNL     1      34.026 -23.173 -16.907  0.00  0.00    +0.209 C 
ATOM     19  C   UNL     1      35.077 -23.315 -15.827  0.00  0.00    +0.051 C 
ENDBRANCH  17  18
ENDBRANCH  16  17
ENDBRANCH   4  16
TORSDOF 4
ENDMDL
MODEL 7
REMARK VINA RESULT:      -8.5      3.143      6.676
REMARK  Name = 656968
REMARK  4 active torsions:
REMARK  status: ('A' for Active; 'I' for Inactive)
REMARK    1  A    between atoms: N_1  and  C_9
REMARK    2  A    between atoms: C_4  and  C_16
REMARK    3  A    between atoms: C_16  and  O_17
REMARK    4  A    between atoms: O_17  and  C_18
REMARK                            x       y       z     vdW  Elec       q    Type
REMARK                         _______ _______ _______ _____ _____    ______ ____
ROOT
ATOM      1  N   UNL     1      34.795 -18.655 -21.839  0.00  0.00    -0.233 N 
ATOM      2  N   UNL     1      33.699 -19.232 -21.309  0.00  0.00    -0.170 NA
ATOM      3  C   UNL     1      35.966 -19.207 -21.390  0.00  0.00    +0.068 A 
ATOM      4  C   UNL     1      35.608 -20.203 -20.515  0.00  0.00    +0.104 A 
ATOM      5  C   UNL     1      34.201 -20.173 -20.504  0.00  0.00    +0.087 A 
ATOM      6  C   UNL     1      37.296 -18.738 -21.831  0.00  0.00    +0.052 C 
ATOM      7  C   UNL     1      33.282 -21.032 -19.736  0.00  0.00    +0.054 C 
ENDROOT
BRANCH   1   9
ATOM      8 CL   UNL     1      34.637 -15.860 -20.644  0.00  0.00    -0.081 Cl
ATOM      9  C   UNL     1      34.664 -17.612 -22.743  0.00  0.00    +0.093 C 
ATOM     10  C   UNL     1      34.581 -16.286 -22.319  0.00  0.00    +0.075 C 
ATOM     11  C   UNL     1      34.616 -17.914 -24.103  0.00  0.00    +0.020 C 
ATOM     12  C   UNL     1      34.450 -15.261 -23.256  0.00  0.00    +0.013 C 
ATOM     13  C   UNL     1      34.484 -16.890 -25.041  0.00  0.00    +0.002 C 
ATOM     14  C   UNL     1      34.401 -15.563 -24.617  0.00  0.00    +0.001 C 
ENDBRANCH   1   9
BRANCH   4  16
ATOM     15  O   UNL     1      37.188 -21.958 -20.321  0.00  0.00    -0.245 OA
ATOM     16  C   UNL     1      36.505 -21.057 -19.796  0.00  0.00    +0.344 C 
BRANCH  16  17
ATOM     17  O   UNL     1      36.563 -20.809 -18.438  0.00  0.00    -0.445 OA
BRANCH  17  18
ATOM     18  C   UNL     1      36.404 -21.927 -17.559  0.00  0.00    +0.209 C 
ATOM     19  C   UNL     1      37.351 -21.773 -16.388  0.00  0.00    +0.051 C 
ENDBRANCH  17  18
ENDBRANCH  16  17
ENDBRANCH   4  16
TORSDOF 4
ENDMDL
MODEL 8
REMARK VINA RESULT:      -8.5      4.811      6.920
REMARK  Name = 656968
REMARK  4 active torsions:
REMARK  status: ('A' for Active; 'I' for Inactive)
REMARK    1  A    between atoms: N_1  and  C_9
REMARK    2  A    between atoms: C_4  and  C_16
REMARK    3  A    between atoms: C_16  and  O_17
REMARK    4  A    between atoms: O_17  and  C_18
REMARK                            x       y       z     vdW  Elec       q    Type
REMARK                         _______ _______ _______ _____ _____    ______ ____
ROOT
ATOM      1  N   UNL     1      32.884 -12.929 -23.245  0.00  0.00    -0.233 N 
ATOM      2  N   UNL     1      31.990 -12.988 -22.238  0.00  0.00    -0.170 NA
ATOM      3  C   UNL     1      33.144 -11.650 -23.660  0.00  0.00    +0.068 A 
ATOM      4  C   UNL     1      32.372 -10.828 -22.876  0.00  0.00    +0.104 A 
ATOM      5  C   UNL     1      31.683 -11.707 -22.018  0.00  0.00    +0.087 A 
ATOM      6  C   UNL     1      34.090 -11.337 -24.752  0.00  0.00    +0.052 C 
ATOM      7  C   UNL     1      30.713 -11.366 -20.962  0.00  0.00    +0.054 C 
ENDROOT
BRANCH   1   9
ATOM      8 CL   UNL     1      34.734 -14.458 -21.372  0.00  0.00    -0.081 Cl
ATOM      9  C   UNL     1      33.438 -14.093 -23.752  0.00  0.00    +0.093 C 
ATOM     10  C   UNL     1      34.302 -14.882 -22.992  0.00  0.00    +0.075 C 
ATOM     11  C   UNL     1      33.114 -14.471 -25.055  0.00  0.00    +0.020 C 
ATOM     12  C   UNL     1      34.841 -16.048 -23.535  0.00  0.00    +0.013 C 
ATOM     13  C   UNL     1      33.654 -15.637 -25.598  0.00  0.00    +0.002 C 
ATOM     14  C   UNL     1      34.517 -16.425 -24.838  0.00  0.00    +0.001 C 
ENDBRANCH   1   9
BRANCH   4  16
ATOM     15  O   UNL     1      31.520  -8.766 -23.672  0.00  0.00    -0.245 OA
ATOM     16  C   UNL     1      32.315  -9.399 -22.951  0.00  0.00    +0.344 C 
BRANCH  16  17
ATOM     17  O   UNL     1      33.230  -8.749 -22.145  0.00  0.00    -0.445 OA
BRANCH  17  18
ATOM     18  C   UNL     1      33.684  -7.462 -22.576  0.00  0.00    +0.209 C 
ATOM     19  C   UNL     1      34.865  -7.641 -23.506  0.00  0.00    +0.051 C 
ENDBRANCH  17  18
ENDBRANCH  16  17
ENDBRANCH   4  16
TORSDOF 4
ENDMDL
MODEL 9
REMARK VINA RESULT:      -8.2      8.689     11.614
REMARK  Name = 656968
REMARK  4 active torsions:
REMARK  status: ('A' for Active; 'I' for Inactive)
REMARK    1  A    between atoms: N_1  and  C_9
REMARK    2  A    between atoms: C_4  and  C_16
REMARK    3  A    between atoms: C_16  and  O_17
REMARK    4  A    between atoms: O_17  and  C_18
REMARK                            x       y       z     vdW  Elec       q    Type
REMARK                         _______ _______ _______ _____ _____    ______ ____
ROOT
ATOM      1  N   UNL     1      35.709 -23.722 -14.826  0.00  0.00    -0.233 N 
ATOM      2  N   UNL     1      35.912 -22.852 -13.816  0.00  0.00    -0.170 NA
ATOM      3  C   UNL     1      36.240 -24.961 -14.584  0.00  0.00    +0.068 A 
ATOM      4  C   UNL     1      36.823 -24.892 -13.342  0.00  0.00    +0.104 A 
ATOM      5  C   UNL     1      36.589 -23.571 -12.917  0.00  0.00    +0.087 A 
ATOM      6  C   UNL     1      36.143 -26.078 -15.548  0.00  0.00    +0.052 C 
ATOM      7  C   UNL     1      36.997 -22.943 -11.648  0.00  0.00    +0.054 C 
ENDROOT
BRANCH   1   9
ATOM      8 CL   UNL     1      37.339 -22.234 -16.923  0.00  0.00    -0.081 Cl
ATOM      9  C   UNL     1      35.022 -23.321 -15.961  0.00  0.00    +0.093 C 
ATOM     10  C   UNL     1      35.658 -22.631 -16.994  0.00  0.00    +0.075 C 
ATOM     11  C   UNL     1      33.664 -23.624 -16.057  0.00  0.00    +0.020 C 
ATOM     12  C   UNL     1      34.935 -22.244 -18.122  0.00  0.00    +0.013 C 
ATOM     13  C   UNL     1      32.941 -23.236 -17.185  0.00  0.00    +0.002 C 
ATOM     14  C   UNL     1      33.577 -22.546 -18.218  0.00  0.00    +0.001 C 
ENDBRANCH   1   9
BRANCH   4  16
ATOM     15  O   UNL     1      37.049 -26.572 -11.688  0.00  0.00    -0.245 OA
ATOM     16  C   UNL     1      37.505 -25.957 -12.670  0.00  0.00    +0.344 C 
BRANCH  16  17
ATOM     17  O   UNL     1      38.743 -26.264 -13.201  0.00  0.00    -0.445 OA
BRANCH  17  18
ATOM     18  C   UNL     1      39.553 -25.173 -13.650  0.00  0.00    +0.209 C 
ATOM     19  C   UNL     1      40.163 -25.529 -14.989  0.00  0.00    +0.051 C 
ENDBRANCH  17  18
ENDBRANCH  16  17
ENDBRANCH   4  16
TORSDOF 4
ENDMDL
