MODEL 1
REMARK VINA RESULT:     -10.0      0.000      0.000
REMARK  Name = 456390
REMARK  5 active torsions:
REMARK  status: ('A' for Active; 'I' for Inactive)
REMARK    1  A    between atoms: C_1  and  N_5
REMARK    2  A    between atoms: C_1  and  C_16
REMARK    3  A    between atoms: C_16  and  C_17
REMARK    4  A    between atoms: C_17  and  C_19
REMARK    5  A    between atoms: C_20  and  O_26
REMARK                            x       y       z     vdW  Elec       q    Type
REMARK                         _______ _______ _______ _____ _____    ______ ____
ROOT
ATOM      1  C   UNL     1      32.713 -14.175 -23.295  0.00  0.00    +0.160 C 
ENDROOT
BRANCH   1   5
ATOM      2 BR   UNL     1      32.138  -6.007 -21.988  0.00  0.00    -0.048 Br
ATOM      3 CL   UNL     1      34.388  -6.806 -24.335  0.00  0.00    -0.082 Cl
ATOM      4  O   UNL     1      34.136 -12.077 -24.546  0.00  0.00    -0.274 OA
ATOM      5  N   UNL     1      32.541 -12.784 -22.997  0.00  0.00    -0.251 N 
ATOM      6  N   UNL     1      31.368 -11.172 -21.669  0.00  0.00    -0.252 NA
ATOM      7  C   UNL     1      33.303 -11.819 -23.683  0.00  0.00    +0.237 C 
ATOM      8  C   UNL     1      33.045 -10.412 -23.297  0.00  0.00    +0.139 C 
ATOM      9  C   UNL     1      31.620 -12.387 -22.030  0.00  0.00    +0.222 C 
ATOM     10  C   UNL     1      32.089 -10.148 -22.306  0.00  0.00    +0.069 C 
ATOM     11  C   UNL     1      33.746  -9.369 -23.913  0.00  0.00    +0.000 C 
ATOM     12  C   UNL     1      31.846  -8.819 -21.942  0.00  0.00    +0.023 C 
ATOM     13  C   UNL     1      33.491  -8.051 -23.537  0.00  0.00    +0.060 C 
ATOM     14  C   UNL     1      32.542  -7.775 -22.554  0.00  0.00    +0.046 C 
ENDBRANCH   1   5
BRANCH   1  16
ATOM     15  O   UNL     1      32.097 -15.444 -21.345  0.00  0.00    -0.294 OA
ATOM     16  C   UNL     1      32.995 -14.928 -22.010  0.00  0.00    +0.169 C 
BRANCH  16  17
ATOM     17  C   UNL     1      34.459 -15.057 -21.645  0.00  0.00    +0.047 C 
BRANCH  17  19
ATOM     18  N   UNL     1      34.244 -17.386 -20.976  0.00  0.00    +0.387 N 
ATOM     19  C   UNL     1      34.988 -16.478 -21.862  0.00  0.00    -0.027 C 
ATOM     20  C   UNL     1      34.864 -16.914 -23.335  0.00  0.00    +0.092 C 
ATOM     21  C   UNL     1      35.299 -18.369 -23.514  0.00  0.00    +0.025 C 
ATOM     22  C   UNL     1      34.572 -19.280 -22.534  0.00  0.00    -0.021 C 
ATOM     23  C   UNL     1      34.716 -18.765 -21.105  0.00  0.00    -0.081 C 
ATOM     24  H   UNL     1      33.255 -17.350 -21.219  0.00  0.00    -0.084 HD
ATOM     25  H   UNL     1      34.393 -17.085 -20.013  0.00  0.00    -0.084 HD
BRANCH  20  26
ATOM     26  O   UNL     1      35.695 -16.112 -24.168  0.00  0.00    -0.387 OA
ATOM     27  H   UNL     1      35.571 -15.176 -23.944  0.00  0.00    +0.210 HD
ENDBRANCH  20  26
ENDBRANCH  17  19
ENDBRANCH  16  17
ENDBRANCH   1  16
TORSDOF 5
ENDMDL
MODEL 2
REMARK VINA RESULT:      -9.9      7.683     11.619
REMARK  Name = 456390
REMARK  5 active torsions:
REMARK  status: ('A' for Active; 'I' for Inactive)
REMARK    1  A    between atoms: C_1  and  N_5
REMARK    2  A    between atoms: C_1  and  C_16
REMARK    3  A    between atoms: C_16  and  C_17
REMARK    4  A    between atoms: C_17  and  C_19
REMARK    5  A    between atoms: C_20  and  O_26
REMARK                            x       y       z     vdW  Elec       q    Type
REMARK                         _______ _______ _______ _____ _____    ______ ____
ROOT
ATOM      1  C   UNL     1      35.988 -21.673 -20.158  0.00  0.00    +0.160 C 
ENDROOT
BRANCH   1   5
ATOM      2 BR   UNL     1      31.098 -24.197 -13.955  0.00  0.00    -0.048 Br
ATOM      3 CL   UNL     1      34.327 -24.012 -13.090  0.00  0.00    -0.082 Cl
ATOM      4  O   UNL     1      36.701 -22.367 -17.512  0.00  0.00    -0.274 OA
ATOM      5  N   UNL     1      35.063 -22.101 -19.152  0.00  0.00    -0.251 N 
ATOM      6  N   UNL     1      32.770 -22.569 -18.638  0.00  0.00    -0.252 NA
ATOM      7  C   UNL     1      35.526 -22.423 -17.861  0.00  0.00    +0.237 C 
ATOM      8  C   UNL     1      34.484 -22.853 -16.899  0.00  0.00    +0.139 C 
ATOM      9  C   UNL     1      33.705 -22.198 -19.450  0.00  0.00    +0.222 C 
ATOM     10  C   UNL     1      33.151 -22.908 -17.329  0.00  0.00    +0.069 C 
ATOM     11  C   UNL     1      34.830 -23.197 -15.588  0.00  0.00    +0.000 C 
ATOM     12  C   UNL     1      32.167 -23.315 -16.420  0.00  0.00    +0.023 C 
ATOM     13  C   UNL     1      33.838 -23.600 -14.697  0.00  0.00    +0.060 C 
ATOM     14  C   UNL     1      32.508 -23.659 -15.111  0.00  0.00    +0.046 C 
ENDBRANCH   1   5
BRANCH   1  16
ATOM     15  O   UNL     1      36.757 -19.414 -19.850  0.00  0.00    -0.294 OA
ATOM     16  C   UNL     1      35.898 -20.168 -20.309  0.00  0.00    +0.169 C 
BRANCH  16  17
ATOM     17  C   UNL     1      34.721 -19.668 -21.118  0.00  0.00    +0.047 C 
BRANCH  17  19
ATOM     18  N   UNL     1      34.580 -18.934 -23.433  0.00  0.00    +0.387 N 
ATOM     19  C   UNL     1      35.122 -18.576 -22.114  0.00  0.00    -0.027 C 
ATOM     20  C   UNL     1      34.626 -17.187 -21.668  0.00  0.00    +0.092 C 
ATOM     21  C   UNL     1      34.945 -16.126 -22.722  0.00  0.00    +0.025 C 
ATOM     22  C   UNL     1      34.442 -16.554 -24.095  0.00  0.00    -0.021 C 
ATOM     23  C   UNL     1      34.949 -17.948 -24.450  0.00  0.00    -0.081 C 
ATOM     24  H   UNL     1      33.563 -18.982 -23.371  0.00  0.00    -0.084 HD
ATOM     25  H   UNL     1      34.970 -19.836 -23.705  0.00  0.00    -0.084 HD
BRANCH  20  26
ATOM     26  O   UNL     1      35.263 -16.792 -20.456  0.00  0.00    -0.387 OA
ATOM     27  H   UNL     1      36.203 -17.030 -20.492  0.00  0.00    +0.210 HD
ENDBRANCH  20  26
ENDBRANCH  17  19
ENDBRANCH  16  17
ENDBRANCH   1  16
TORSDOF 5
ENDMDL
MODEL 3
REMARK VINA RESULT:      -9.9      4.592      7.029
REMARK  Name = 456390
REMARK  5 active torsions:
REMARK  status: ('A' for Active; 'I' for Inactive)
REMARK    1  A    between atoms: C_1  and  N_5
REMARK    2  A    between atoms: C_1  and  C_16
REMARK    3  A    between atoms: C_16  and  C_17
REMARK    4  A    between atoms: C_17  and  C_19
REMARK    5  A    between atoms: C_20  and  O_26
REMARK                            x       y       z     vdW  Elec       q    Type
REMARK                         _______ _______ _______ _____ _____    ______ ____
ROOT
ATOM      1  C   UNL     1      36.339 -19.132 -20.929  0.00  0.00    +0.160 C 
ENDROOT
BRANCH   1   5
ATOM      2 BR   UNL     1      32.761 -14.006 -26.376  0.00  0.00    -0.048 Br
ATOM      3 CL   UNL     1      32.781 -12.798 -23.254  0.00  0.00    -0.082 Cl
ATOM      4  O   UNL     1      35.182 -16.593 -20.475  0.00  0.00    -0.274 OA
ATOM      5  N   UNL     1      35.741 -18.317 -21.943  0.00  0.00    -0.251 N 
ATOM      6  N   UNL     1      35.195 -18.130 -24.268  0.00  0.00    -0.252 NA
ATOM      7  C   UNL     1      35.193 -17.064 -21.608  0.00  0.00    +0.237 C 
ATOM      8  C   UNL     1      34.600 -16.305 -22.733  0.00  0.00    +0.139 C 
ATOM      9  C   UNL     1      35.702 -18.764 -23.263  0.00  0.00    +0.222 C 
ATOM     10  C   UNL     1      34.627 -16.870 -24.016  0.00  0.00    +0.069 C 
ATOM     11  C   UNL     1      34.027 -15.048 -22.516  0.00  0.00    +0.000 C 
ATOM     12  C   UNL     1      34.067 -16.153 -25.079  0.00  0.00    +0.023 C 
ATOM     13  C   UNL     1      33.474 -14.348 -23.586  0.00  0.00    +0.060 C 
ATOM     14  C   UNL     1      33.493 -14.898 -24.867  0.00  0.00    +0.046 C 
ENDBRANCH   1   5
BRANCH   1  16
ATOM     15  O   UNL     1      34.142 -20.092 -20.725  0.00  0.00    -0.294 OA
ATOM     16  C   UNL     1      35.347 -20.190 -20.490  0.00  0.00    +0.169 C 
BRANCH  16  17
ATOM     17  C   UNL     1      35.950 -21.400 -19.808  0.00  0.00    +0.047 C 
BRANCH  17  19
ATOM     18  N   UNL     1      34.309 -22.778 -18.657  0.00  0.00    +0.387 N 
ATOM     19  C   UNL     1      35.287 -21.697 -18.460  0.00  0.00    -0.027 C 
ATOM     20  C   UNL     1      36.324 -22.076 -17.386  0.00  0.00    +0.092 C 
ATOM     21  C   UNL     1      35.639 -22.469 -16.077  0.00  0.00    +0.025 C 
ATOM     22  C   UNL     1      34.577 -23.535 -16.317  0.00  0.00    -0.021 C 
ATOM     23  C   UNL     1      33.609 -23.100 -17.413  0.00  0.00    -0.081 C 
ATOM     24  H   UNL     1      34.797 -23.610 -18.988  0.00  0.00    -0.084 HD
ATOM     25  H   UNL     1      33.620 -22.465 -19.340  0.00  0.00    -0.084 HD
BRANCH  20  26
ATOM     26  O   UNL     1      37.182 -20.973 -17.106  0.00  0.00    -0.387 OA
ATOM     27  H   UNL     1      37.129 -20.330 -17.830  0.00  0.00    +0.210 HD
ENDBRANCH  20  26
ENDBRANCH  17  19
ENDBRANCH  16  17
ENDBRANCH   1  16
TORSDOF 5
ENDMDL
MODEL 4
REMARK VINA RESULT:      -9.9      3.321      5.089
REMARK  Name = 456390
REMARK  5 active torsions:
REMARK  status: ('A' for Active; 'I' for Inactive)
REMARK    1  A    between atoms: C_1  and  N_5
REMARK    2  A    between atoms: C_1  and  C_16
REMARK    3  A    between atoms: C_16  and  C_17
REMARK    4  A    between atoms: C_17  and  C_19
REMARK    5  A    between atoms: C_20  and  O_26
REMARK                            x       y       z     vdW  Elec       q    Type
REMARK                         _______ _______ _______ _____ _____    ______ ____
ROOT
ATOM      1  C   UNL     1      35.702 -17.544 -22.470  0.00  0.00    +0.160 C 
ENDROOT
BRANCH   1   5
ATOM      2 BR   UNL     1      30.843 -10.825 -22.423  0.00  0.00    -0.048 Br
ATOM      3 CL   UNL     1      31.769 -11.799 -19.356  0.00  0.00    -0.082 Cl
ATOM      4  O   UNL     1      34.775 -16.045 -20.260  0.00  0.00    -0.274 OA
ATOM      5  N   UNL     1      34.859 -16.390 -22.566  0.00  0.00    -0.251 N 
ATOM      6  N   UNL     1      33.683 -14.911 -24.039  0.00  0.00    -0.252 NA
ATOM      7  C   UNL     1      34.455 -15.715 -21.398  0.00  0.00    +0.237 C 
ATOM      8  C   UNL     1      33.585 -14.535 -21.612  0.00  0.00    +0.139 C 
ATOM      9  C   UNL     1      34.439 -15.935 -23.814  0.00  0.00    +0.222 C 
ATOM     10  C   UNL     1      33.237 -14.183 -22.924  0.00  0.00    +0.069 C 
ATOM     11  C   UNL     1      33.124 -13.788 -20.523  0.00  0.00    +0.000 C 
ATOM     12  C   UNL     1      32.415 -13.068 -23.126  0.00  0.00    +0.023 C 
ATOM     13  C   UNL     1      32.307 -12.681 -20.743  0.00  0.00    +0.060 C 
ATOM     14  C   UNL     1      31.952 -12.321 -22.041  0.00  0.00    +0.046 C 
ENDBRANCH   1   5
BRANCH   1  16
ATOM     15  O   UNL     1      34.817 -19.428 -23.679  0.00  0.00    -0.294 OA
ATOM     16  C   UNL     1      34.856 -18.792 -22.625  0.00  0.00    +0.169 C 
BRANCH  16  17
ATOM     17  C   UNL     1      34.123 -19.236 -21.377  0.00  0.00    +0.047 C 
BRANCH  17  19
ATOM     18  N   UNL     1      36.066 -20.046 -20.158  0.00  0.00    +0.387 N 
ATOM     19  C   UNL     1      34.774 -20.460 -20.726  0.00  0.00    -0.027 C 
ATOM     20  C   UNL     1      33.867 -21.082 -19.647  0.00  0.00    +0.092 C 
ATOM     21  C   UNL     1      34.573 -22.237 -18.936  0.00  0.00    +0.025 C 
ATOM     22  C   UNL     1      35.942 -21.806 -18.424  0.00  0.00    -0.021 C 
ATOM     23  C   UNL     1      36.766 -21.173 -19.541  0.00  0.00    -0.081 C 
ATOM     24  H   UNL     1      35.903 -19.330 -19.451  0.00  0.00    -0.084 HD
ATOM     25  H   UNL     1      36.646 -19.684 -20.915  0.00  0.00    -0.084 HD
BRANCH  20  26
ATOM     26  O   UNL     1      32.676 -21.602 -20.231  0.00  0.00    -0.387 OA
ATOM     27  H   UNL     1      31.906 -21.159 -19.841  0.00  0.00    +0.210 HD
ENDBRANCH  20  26
ENDBRANCH  17  19
ENDBRANCH  16  17
ENDBRANCH   1  16
TORSDOF 5
ENDMDL
MODEL 5
REMARK VINA RESULT:      -9.8      7.338     11.401
REMARK  Name = 456390
REMARK  5 active torsions:
REMARK  status: ('A' for Active; 'I' for Inactive)
REMARK    1  A    between atoms: C_1  and  N_5
REMARK    2  A    between atoms: C_1  and  C_16
REMARK    3  A    between atoms: C_16  and  C_17
REMARK    4  A    between atoms: C_17  and  C_19
REMARK    5  A    between atoms: C_20  and  O_26
REMARK                            x       y       z     vdW  Elec       q    Type
REMARK                         _______ _______ _______ _____ _____    ______ ____
ROOT
ATOM      1  C   UNL     1      35.658 -21.270 -20.664  0.00  0.00    +0.160 C 
ENDROOT
BRANCH   1   5
ATOM      2 BR   UNL     1      33.002 -24.292 -13.413  0.00  0.00    -0.048 Br
ATOM      3 CL   UNL     1      30.556 -23.965 -15.675  0.00  0.00    -0.082 Cl
ATOM      4  O   UNL     1      33.039 -22.023 -19.912  0.00  0.00    -0.274 OA
ATOM      5  N   UNL     1      35.297 -21.785 -19.377  0.00  0.00    -0.251 N 
ATOM      6  N   UNL     1      36.080 -22.398 -17.197  0.00  0.00    -0.252 NA
ATOM      7  C   UNL     1      33.960 -22.131 -19.107  0.00  0.00    +0.237 C 
ATOM      8  C   UNL     1      33.698 -22.654 -17.746  0.00  0.00    +0.139 C 
ATOM      9  C   UNL     1      36.271 -21.945 -18.392  0.00  0.00    +0.222 C 
ATOM     10  C   UNL     1      34.769 -22.765 -16.848  0.00  0.00    +0.069 C 
ATOM     11  C   UNL     1      32.404 -23.028 -17.367  0.00  0.00    +0.000 C 
ATOM     12  C   UNL     1      34.522 -23.258 -15.562  0.00  0.00    +0.023 C 
ATOM     13  C   UNL     1      32.176 -23.518 -16.083  0.00  0.00    +0.060 C 
ATOM     14  C   UNL     1      33.232 -23.633 -15.181  0.00  0.00    +0.046 C 
ENDBRANCH   1   5
BRANCH   1  16
ATOM     15  O   UNL     1      36.845 -19.232 -20.187  0.00  0.00    -0.294 OA
ATOM     16  C   UNL     1      35.805 -19.765 -20.574  0.00  0.00    +0.169 C 
BRANCH  16  17
ATOM     17  C   UNL     1      34.611 -18.969 -21.059  0.00  0.00    +0.047 C 
BRANCH  17  19
ATOM     18  N   UNL     1      34.535 -18.389 -23.420  0.00  0.00    +0.387 N 
ATOM     19  C   UNL     1      34.999 -17.920 -22.106  0.00  0.00    -0.027 C 
ATOM     20  C   UNL     1      34.412 -16.536 -21.771  0.00  0.00    +0.092 C 
ATOM     21  C   UNL     1      34.722 -15.527 -22.877  0.00  0.00    +0.025 C 
ATOM     22  C   UNL     1      34.302 -16.065 -24.239  0.00  0.00    -0.021 C 
ATOM     23  C   UNL     1      34.897 -17.450 -24.482  0.00  0.00    -0.081 C 
ATOM     24  H   UNL     1      33.520 -18.488 -23.397  0.00  0.00    -0.084 HD
ATOM     25  H   UNL     1      34.983 -19.283 -23.617  0.00  0.00    -0.084 HD
BRANCH  20  26
ATOM     26  O   UNL     1      34.973 -16.032 -20.562  0.00  0.00    -0.387 OA
ATOM     27  H   UNL     1      34.958 -15.062 -20.578  0.00  0.00    +0.210 HD
ENDBRANCH  20  26
ENDBRANCH  17  19
ENDBRANCH  16  17
ENDBRANCH   1  16
TORSDOF 5
ENDMDL
MODEL 6
REMARK VINA RESULT:      -9.7      6.535     10.403
REMARK  Name = 456390
REMARK  5 active torsions:
REMARK  status: ('A' for Active; 'I' for Inactive)
REMARK    1  A    between atoms: C_1  and  N_5
REMARK    2  A    between atoms: C_1  and  C_16
REMARK    3  A    between atoms: C_16  and  C_17
REMARK    4  A    between atoms: C_17  and  C_19
REMARK    5  A    between atoms: C_20  and  O_26
REMARK                            x       y       z     vdW  Elec       q    Type
REMARK                         _______ _______ _______ _____ _____    ______ ____
ROOT
ATOM      1  C   UNL     1      34.793 -19.318 -22.129  0.00  0.00    +0.160 C 
ENDROOT
BRANCH   1   5
ATOM      2 BR   UNL     1      35.002 -24.054 -15.326  0.00  0.00    -0.048 Br
ATOM      3 CL   UNL     1      31.914 -23.663 -16.559  0.00  0.00    -0.082 Cl
ATOM      4  O   UNL     1      32.651 -20.585 -20.787  0.00  0.00    -0.274 OA
ATOM      5  N   UNL     1      34.932 -20.122 -20.951  0.00  0.00    -0.251 N 
ATOM      6  N   UNL     1      36.454 -21.023 -19.335  0.00  0.00    -0.252 NA
ATOM      7  C   UNL     1      33.796 -20.709 -20.362  0.00  0.00    +0.237 C 
ATOM      8  C   UNL     1      34.054 -21.520 -19.149  0.00  0.00    +0.139 C 
ATOM      9  C   UNL     1      36.191 -20.323 -20.389  0.00  0.00    +0.222 C 
ATOM     10  C   UNL     1      35.372 -21.642 -18.687  0.00  0.00    +0.069 C 
ATOM     11  C   UNL     1      32.999 -22.150 -18.480  0.00  0.00    +0.000 C 
ATOM     12  C   UNL     1      35.616 -22.407 -17.541  0.00  0.00    +0.023 C 
ATOM     13  C   UNL     1      33.260 -22.908 -17.341  0.00  0.00    +0.060 C 
ATOM     14  C   UNL     1      34.566 -23.038 -16.871  0.00  0.00    +0.046 C 
ENDBRANCH   1   5
BRANCH   1  16
ATOM     15  O   UNL     1      35.067 -17.456 -20.630  0.00  0.00    -0.294 OA
ATOM     16  C   UNL     1      35.106 -17.876 -21.787  0.00  0.00    +0.169 C 
BRANCH  16  17
ATOM     17  C   UNL     1      35.535 -17.013 -22.955  0.00  0.00    +0.047 C 
BRANCH  17  19
ATOM     18  N   UNL     1      34.329 -14.912 -23.173  0.00  0.00    +0.387 N 
ATOM     19  C   UNL     1      34.350 -16.311 -23.625  0.00  0.00    -0.027 C 
ATOM     20  C   UNL     1      34.430 -16.398 -25.161  0.00  0.00    +0.092 C 
ATOM     21  C   UNL     1      33.298 -15.606 -25.815  0.00  0.00    +0.025 C 
ATOM     22  C   UNL     1      33.247 -14.182 -25.275  0.00  0.00    -0.021 C 
ATOM     23  C   UNL     1      33.201 -14.180 -23.750  0.00  0.00    -0.081 C 
ATOM     24  H   UNL     1      35.197 -14.459 -23.457  0.00  0.00    -0.084 HD
ATOM     25  H   UNL     1      34.230 -14.905 -22.159  0.00  0.00    -0.084 HD
BRANCH  20  26
ATOM     26  O   UNL     1      34.313 -17.750 -25.594  0.00  0.00    -0.387 OA
ATOM     27  H   UNL     1      33.860 -17.777 -26.451  0.00  0.00    +0.210 HD
ENDBRANCH  20  26
ENDBRANCH  17  19
ENDBRANCH  16  17
ENDBRANCH   1  16
TORSDOF 5
ENDMDL
MODEL 7
REMARK VINA RESULT:      -9.4      1.529      2.019
REMARK  Name = 456390
REMARK  5 active torsions:
REMARK  status: ('A' for Active; 'I' for Inactive)
REMARK    1  A    between atoms: C_1  and  N_5
REMARK    2  A    between atoms: C_1  and  C_16
REMARK    3  A    between atoms: C_16  and  C_17
REMARK    4  A    between atoms: C_17  and  C_19
REMARK    5  A    between atoms: C_20  and  O_26
REMARK                            x       y       z     vdW  Elec       q    Type
REMARK                         _______ _______ _______ _____ _____    ______ ____
ROOT
ATOM      1  C   UNL     1      32.353 -14.572 -22.456  0.00  0.00    +0.160 C 
ENDROOT
BRANCH   1   5
ATOM      2 BR   UNL     1      34.287  -6.766 -24.474  0.00  0.00    -0.048 Br
ATOM      3 CL   UNL     1      32.020  -6.964 -22.018  0.00  0.00    -0.082 Cl
ATOM      4  O   UNL     1      31.362 -12.163 -21.359  0.00  0.00    -0.274 OA
ATOM      5  N   UNL     1      32.752 -13.262 -22.876  0.00  0.00    -0.251 N 
ATOM      6  N   UNL     1      34.137 -11.994 -24.364  0.00  0.00    -0.252 NA
ATOM      7  C   UNL     1      32.195 -12.126 -22.260  0.00  0.00    +0.237 C 
ATOM      8  C   UNL     1      32.678 -10.822 -22.771  0.00  0.00    +0.139 C 
ATOM      9  C   UNL     1      33.692 -13.113 -23.894  0.00  0.00    +0.222 C 
ATOM     10  C   UNL     1      33.629 -10.811 -23.801  0.00  0.00    +0.069 C 
ATOM     11  C   UNL     1      32.192  -9.626 -22.232  0.00  0.00    +0.000 C 
ATOM     12  C   UNL     1      34.085  -9.580 -24.284  0.00  0.00    +0.023 C 
ATOM     13  C   UNL     1      32.658  -8.408 -22.725  0.00  0.00    +0.060 C 
ATOM     14  C   UNL     1      33.603  -8.384 -23.749  0.00  0.00    +0.046 C 
ENDBRANCH   1   5
BRANCH   1  16
ATOM     15  O   UNL     1      32.569 -15.194 -20.142  0.00  0.00    -0.294 OA
ATOM     16  C   UNL     1      33.129 -14.954 -21.211  0.00  0.00    +0.169 C 
BRANCH  16  17
ATOM     17  C   UNL     1      34.626 -15.084 -21.397  0.00  0.00    +0.047 C 
BRANCH  17  19
ATOM     18  N   UNL     1      34.259 -17.428 -20.863  0.00  0.00    +0.387 N 
ATOM     19  C   UNL     1      35.049 -16.522 -21.710  0.00  0.00    -0.027 C 
ATOM     20  C   UNL     1      34.868 -16.857 -23.203  0.00  0.00    +0.092 C 
ATOM     21  C   UNL     1      35.197 -18.324 -23.479  0.00  0.00    +0.025 C 
ATOM     22  C   UNL     1      34.425 -19.242 -22.539  0.00  0.00    -0.021 C 
ATOM     23  C   UNL     1      34.630 -18.827 -21.085  0.00  0.00    -0.081 C 
ATOM     24  H   UNL     1      33.271 -17.309 -21.082  0.00  0.00    -0.084 HD
ATOM     25  H   UNL     1      34.446 -17.198 -19.888  0.00  0.00    -0.084 HD
BRANCH  20  26
ATOM     26  O   UNL     1      35.739 -16.064 -24.004  0.00  0.00    -0.387 OA
ATOM     27  H   UNL     1      35.654 -16.330 -24.934  0.00  0.00    +0.210 HD
ENDBRANCH  20  26
ENDBRANCH  17  19
ENDBRANCH  16  17
ENDBRANCH   1  16
TORSDOF 5
ENDMDL
MODEL 8
REMARK VINA RESULT:      -9.4      3.760      5.704
REMARK  Name = 456390
REMARK  5 active torsions:
REMARK  status: ('A' for Active; 'I' for Inactive)
REMARK    1  A    between atoms: C_1  and  N_5
REMARK    2  A    between atoms: C_1  and  C_16
REMARK    3  A    between atoms: C_16  and  C_17
REMARK    4  A    between atoms: C_17  and  C_19
REMARK    5  A    between atoms: C_20  and  O_26
REMARK                            x       y       z     vdW  Elec       q    Type
REMARK                         _______ _______ _______ _____ _____    ______ ____
ROOT
ATOM      1  C   UNL     1      35.075 -18.989 -23.133  0.00  0.00    +0.160 C 
ENDROOT
BRANCH   1   5
ATOM      2 BR   UNL     1      33.310 -11.009 -24.533  0.00  0.00    -0.048 Br
ATOM      3 CL   UNL     1      32.867 -12.945 -27.228  0.00  0.00    -0.082 Cl
ATOM      4  O   UNL     1      34.182 -17.766 -25.520  0.00  0.00    -0.274 OA
ATOM      5  N   UNL     1      34.796 -17.592 -23.276  0.00  0.00    -0.251 N 
ATOM      6  N   UNL     1      34.744 -15.459 -22.185  0.00  0.00    -0.252 NA
ATOM      7  C   UNL     1      34.354 -17.085 -24.513  0.00  0.00    +0.237 C 
ATOM      8  C   UNL     1      34.094 -15.627 -24.549  0.00  0.00    +0.139 C 
ATOM      9  C   UNL     1      34.960 -16.733 -22.190  0.00  0.00    +0.222 C 
ATOM     10  C   UNL     1      34.300 -14.876 -23.383  0.00  0.00    +0.069 C 
ATOM     11  C   UNL     1      33.652 -15.015 -25.727  0.00  0.00    +0.000 C 
ATOM     12  C   UNL     1      34.056 -13.499 -23.418  0.00  0.00    +0.023 C 
ATOM     13  C   UNL     1      33.413 -13.643 -25.743  0.00  0.00    +0.060 C 
ATOM     14  C   UNL     1      33.614 -12.884 -24.591  0.00  0.00    +0.046 C 
ENDBRANCH   1   5
BRANCH   1  16
ATOM     15  O   UNL     1      36.707 -19.033 -21.365  0.00  0.00    -0.294 OA
ATOM     16  C   UNL     1      35.550 -19.260 -21.719  0.00  0.00    +0.169 C 
BRANCH  16  17
ATOM     17  C   UNL     1      34.487 -19.761 -20.765  0.00  0.00    +0.047 C 
BRANCH  17  19
ATOM     18  N   UNL     1      36.103 -20.610 -19.157  0.00  0.00    +0.387 N 
ATOM     19  C   UNL     1      34.947 -20.994 -19.980  0.00  0.00    -0.027 C 
ATOM     20  C   UNL     1      33.813 -21.571 -19.111  0.00  0.00    +0.092 C 
ATOM     21  C   UNL     1      34.315 -22.735 -18.257  0.00  0.00    +0.025 C 
ATOM     22  C   UNL     1      35.559 -22.339 -17.472  0.00  0.00    -0.021 C 
ATOM     23  C   UNL     1      36.620 -21.748 -18.396  0.00  0.00    -0.081 C 
ATOM     24  H   UNL     1      35.819 -19.878 -18.506  0.00  0.00    -0.084 HD
ATOM     25  H   UNL     1      36.841 -20.278 -19.777  0.00  0.00    -0.084 HD
BRANCH  20  26
ATOM     26  O   UNL     1      32.755 -22.063 -19.928  0.00  0.00    -0.387 OA
ATOM     27  H   UNL     1      33.030 -22.047 -20.858  0.00  0.00    +0.210 HD
ENDBRANCH  20  26
ENDBRANCH  17  19
ENDBRANCH  16  17
ENDBRANCH   1  16
TORSDOF 5
ENDMDL
MODEL 9
REMARK VINA RESULT:      -9.4      7.725     11.867
REMARK  Name = 456390
REMARK  5 active torsions:
REMARK  status: ('A' for Active; 'I' for Inactive)
REMARK    1  A    between atoms: C_1  and  N_5
REMARK    2  A    between atoms: C_1  and  C_16
REMARK    3  A    between atoms: C_16  and  C_17
REMARK    4  A    between atoms: C_17  and  C_19
REMARK    5  A    between atoms: C_20  and  O_26
REMARK                            x       y       z     vdW  Elec       q    Type
REMARK                         _______ _______ _______ _____ _____    ______ ____
ROOT
ATOM      1  C   UNL     1      35.330 -21.738 -20.218  0.00  0.00    +0.160 C 
ENDROOT
BRANCH   1   5
ATOM      2 BR   UNL     1      35.484 -23.884 -12.210  0.00  0.00    -0.048 Br
ATOM      3 CL   UNL     1      32.629 -24.729 -13.742  0.00  0.00    -0.082 Cl
ATOM      4  O   UNL     1      33.337 -23.043 -18.696  0.00  0.00    -0.274 OA
ATOM      5  N   UNL     1      35.452 -22.067 -18.829  0.00  0.00    -0.251 N 
ATOM      6  N   UNL     1      36.853 -21.982 -16.888  0.00  0.00    -0.252 NA
ATOM      7  C   UNL     1      34.396 -22.720 -18.166  0.00  0.00    +0.237 C 
ATOM      8  C   UNL     1      34.628 -23.014 -16.732  0.00  0.00    +0.139 C 
ATOM      9  C   UNL     1      36.616 -21.742 -18.135  0.00  0.00    +0.222 C 
ATOM     10  C   UNL     1      35.847 -22.632 -16.154  0.00  0.00    +0.069 C 
ATOM     11  C   UNL     1      33.646 -23.660 -15.973  0.00  0.00    +0.000 C 
ATOM     12  C   UNL     1      36.066 -22.909 -14.800  0.00  0.00    +0.023 C 
ATOM     13  C   UNL     1      33.881 -23.928 -14.626  0.00  0.00    +0.060 C 
ATOM     14  C   UNL     1      35.089 -23.554 -14.039  0.00  0.00    +0.046 C 
ENDBRANCH   1   5
BRANCH   1  16
ATOM     15  O   UNL     1      33.549 -20.133 -20.013  0.00  0.00    -0.294 OA
ATOM     16  C   UNL     1      34.710 -20.361 -20.350  0.00  0.00    +0.169 C 
BRANCH  16  17
ATOM     17  C   UNL     1      35.639 -19.280 -20.860  0.00  0.00    +0.047 C 
BRANCH  17  19
ATOM     18  N   UNL     1      35.051 -16.921 -20.803  0.00  0.00    +0.387 N 
ATOM     19  C   UNL     1      34.885 -18.158 -21.580  0.00  0.00    -0.027 C 
ATOM     20  C   UNL     1      35.380 -17.975 -23.027  0.00  0.00    +0.092 C 
ATOM     21  C   UNL     1      34.690 -16.786 -23.697  0.00  0.00    +0.025 C 
ATOM     22  C   UNL     1      34.808 -15.534 -22.838  0.00  0.00    -0.021 C 
ATOM     23  C   UNL     1      34.329 -15.803 -21.414  0.00  0.00    -0.081 C 
ATOM     24  H   UNL     1      36.042 -16.688 -20.756  0.00  0.00    -0.084 HD
ATOM     25  H   UNL     1      34.669 -17.075 -19.870  0.00  0.00    -0.084 HD
BRANCH  20  26
ATOM     26  O   UNL     1      35.091 -19.133 -23.806  0.00  0.00    -0.387 OA
ATOM     27  H   UNL     1      34.687 -18.864 -24.646  0.00  0.00    +0.210 HD
ENDBRANCH  20  26
ENDBRANCH  17  19
ENDBRANCH  16  17
ENDBRANCH   1  16
TORSDOF 5
ENDMDL
