MODEL 1
REMARK VINA RESULT:      -9.8      0.000      0.000
REMARK  Name = 68783
REMARK  2 active torsions:
REMARK  status: ('A' for Active; 'I' for Inactive)
REMARK    1  A    between atoms: C_6  and  C_22
REMARK    2  A    between atoms: C_6  and  O_24
REMARK                            x       y       z     vdW  Elec       q    Type
REMARK                         _______ _______ _______ _____ _____    ______ ____
ROOT
ATOM      1  O   UNL     1      27.914 -22.959 -16.097  0.00  0.00    -0.291 OA
ATOM      2  C   UNL     1      36.023 -24.343 -13.836  0.00  0.00    +0.029 C 
ATOM      3  C   UNL     1      35.601 -23.440 -15.025  0.00  0.00    +0.007 C 
ATOM      4  C   UNL     1      34.268 -23.876 -15.646  0.00  0.00    +0.022 C 
ATOM      5  C   UNL     1      33.168 -23.768 -14.551  0.00  0.00    +0.008 C 
ATOM      6  C   UNL     1      37.399 -23.710 -13.508  0.00  0.00    +0.139 C 
ATOM      7  C   UNL     1      34.940 -24.230 -12.750  0.00  0.00    +0.003 C 
ATOM      8  C   UNL     1      36.854 -23.406 -15.899  0.00  0.00    +0.003 C 
ATOM      9  C   UNL     1      33.541 -24.580 -13.291  0.00  0.00    +0.001 C 
ATOM     10  C   UNL     1      38.023 -23.423 -14.893  0.00  0.00    +0.034 C 
ATOM     11  C   UNL     1      31.796 -24.142 -15.175  0.00  0.00    +0.023 C 
ATOM     12  C   UNL     1      36.201 -25.837 -14.226  0.00  0.00    +0.003 C 
ATOM     13  C   UNL     1      33.875 -23.073 -16.858  0.00  0.00    -0.031 C 
ATOM     14  C   UNL     1      31.469 -23.207 -16.349  0.00  0.00    -0.024 C 
ATOM     15  C   UNL     1      30.676 -24.138 -14.122  0.00  0.00    +0.012 C 
ATOM     16  C   UNL     1      32.605 -22.754 -17.173  0.00  0.00    -0.030 C 
ATOM     17  C   UNL     1      29.314 -24.361 -14.756  0.00  0.00    +0.069 C 
ATOM     18  C   UNL     1      30.204 -22.827 -16.611  0.00  0.00    +0.033 C 
ATOM     19  C   UNL     1      32.341 -21.945 -18.418  0.00  0.00    +0.030 C 
ATOM     20  C   UNL     1      29.054 -23.334 -15.824  0.00  0.00    +0.173 C 
ENDROOT
BRANCH   6  22
ATOM     21  O   UNL     1      38.079 -24.635 -11.415  0.00  0.00    -0.294 OA
ATOM     22  C   UNL     1      38.267 -24.560 -12.629  0.00  0.00    +0.175 C 
ATOM     23  C   UNL     1      39.377 -25.318 -13.304  0.00  0.00    +0.075 C 
ENDBRANCH   6  22
BRANCH   6  24
ATOM     24  O   UNL     1      37.243 -22.485 -12.799  0.00  0.00    -0.380 OA
ATOM     25  H   UNL     1      37.582 -21.753 -13.337  0.00  0.00    +0.211 HD
ENDBRANCH   6  24
TORSDOF 2
ENDMDL
MODEL 2
REMARK VINA RESULT:      -9.5     12.565     16.046
REMARK  Name = 68783
REMARK  2 active torsions:
REMARK  status: ('A' for Active; 'I' for Inactive)
REMARK    1  A    between atoms: C_6  and  C_22
REMARK    2  A    between atoms: C_6  and  O_24
REMARK                            x       y       z     vdW  Elec       q    Type
REMARK                         _______ _______ _______ _____ _____    ______ ____
ROOT
ATOM      1  O   UNL     1      34.276 -17.046 -24.628  0.00  0.00    -0.291 OA
ATOM      2  C   UNL     1      32.261  -9.013 -22.579  0.00  0.00    +0.029 C 
ATOM      3  C   UNL     1      32.440 -10.150 -21.538  0.00  0.00    +0.007 C 
ATOM      4  C   UNL     1      32.108 -11.531 -22.118  0.00  0.00    +0.022 C 
ATOM      5  C   UNL     1      33.085 -11.806 -23.297  0.00  0.00    +0.008 C 
ATOM      6  C   UNL     1      32.578  -7.790 -21.680  0.00  0.00    +0.139 C 
ATOM      7  C   UNL     1      33.233  -9.280 -23.741  0.00  0.00    +0.003 C 
ATOM      8  C   UNL     1      31.656  -9.642 -20.329  0.00  0.00    +0.003 C 
ATOM      9  C   UNL     1      33.031 -10.679 -24.352  0.00  0.00    +0.001 C 
ATOM     10  C   UNL     1      31.883  -8.116 -20.339  0.00  0.00    +0.034 C 
ATOM     11  C   UNL     1      32.811 -13.227 -23.858  0.00  0.00    +0.023 C 
ATOM     12  C   UNL     1      30.815  -8.906 -23.137  0.00  0.00    +0.003 C 
ATOM     13  C   UNL     1      32.186 -12.645 -21.108  0.00  0.00    -0.031 C 
ATOM     14  C   UNL     1      32.997 -14.283 -22.759  0.00  0.00    -0.024 C 
ATOM     15  C   UNL     1      33.688 -13.530 -25.085  0.00  0.00    +0.012 C 
ATOM     16  C   UNL     1      32.605 -13.893 -21.392  0.00  0.00    -0.030 C 
ATOM     17  C   UNL     1      33.526 -14.968 -25.545  0.00  0.00    +0.069 C 
ATOM     18  C   UNL     1      33.492 -15.505 -23.035  0.00  0.00    +0.033 C 
ATOM     19  C   UNL     1      32.635 -14.923 -20.290  0.00  0.00    +0.030 C 
ATOM     20  C   UNL     1      33.825 -15.920 -24.420  0.00  0.00    +0.173 C 
ENDROOT
BRANCH   6  22
ATOM     21  O   UNL     1      32.649  -6.045 -23.307  0.00  0.00    -0.294 OA
ATOM     22  C   UNL     1      32.154  -6.477 -22.267  0.00  0.00    +0.175 C 
ATOM     23  C   UNL     1      31.093  -5.714 -21.522  0.00  0.00    +0.075 C 
ENDBRANCH   6  22
BRANCH   6  24
ATOM     24  O   UNL     1      33.980  -7.663 -21.466  0.00  0.00    -0.380 OA
ATOM     25  H   UNL     1      34.150  -6.919 -20.867  0.00  0.00    +0.211 HD
ENDBRANCH   6  24
TORSDOF 2
ENDMDL
MODEL 3
REMARK VINA RESULT:      -9.1      4.115      7.378
REMARK  Name = 68783
REMARK  2 active torsions:
REMARK  status: ('A' for Active; 'I' for Inactive)
REMARK    1  A    between atoms: C_6  and  C_22
REMARK    2  A    between atoms: C_6  and  O_24
REMARK                            x       y       z     vdW  Elec       q    Type
REMARK                         _______ _______ _______ _____ _____    ______ ____
ROOT
ATOM      1  O   UNL     1      35.465 -24.714 -12.945  0.00  0.00    -0.291 OA
ATOM      2  C   UNL     1      35.406 -20.534 -20.382  0.00  0.00    +0.029 C 
ATOM      3  C   UNL     1      34.129 -20.843 -19.556  0.00  0.00    +0.007 C 
ATOM      4  C   UNL     1      34.274 -22.115 -18.711  0.00  0.00    +0.022 C 
ATOM      5  C   UNL     1      35.447 -21.899 -17.712  0.00  0.00    +0.008 C 
ATOM      6  C   UNL     1      34.913 -19.287 -21.160  0.00  0.00    +0.139 C 
ATOM      7  C   UNL     1      36.564 -20.312 -19.395  0.00  0.00    +0.003 C 
ATOM      8  C   UNL     1      33.014 -20.764 -20.597  0.00  0.00    +0.003 C 
ATOM      9  C   UNL     1      36.750 -21.510 -18.445  0.00  0.00    +0.001 C 
ATOM     10  C   UNL     1      33.459 -19.636 -21.550  0.00  0.00    +0.034 C 
ATOM     11  C   UNL     1      35.570 -23.150 -16.800  0.00  0.00    +0.023 C 
ATOM     12  C   UNL     1      35.791 -21.666 -21.375  0.00  0.00    +0.003 C 
ATOM     13  C   UNL     1      33.020 -22.491 -17.966  0.00  0.00    -0.031 C 
ATOM     14  C   UNL     1      34.260 -23.386 -16.035  0.00  0.00    -0.024 C 
ATOM     15  C   UNL     1      36.769 -23.037 -15.844  0.00  0.00    +0.012 C 
ATOM     16  C   UNL     1      33.009 -23.055 -16.743  0.00  0.00    -0.030 C 
ATOM     17  C   UNL     1      36.805 -24.189 -14.856  0.00  0.00    +0.069 C 
ATOM     18  C   UNL     1      34.258 -23.876 -14.781  0.00  0.00    +0.033 C 
ATOM     19  C   UNL     1      31.685 -23.387 -16.102  0.00  0.00    +0.030 C 
ATOM     20  C   UNL     1      35.512 -24.271 -14.092  0.00  0.00    +0.173 C 
ENDROOT
BRANCH   6  22
ATOM     21  O   UNL     1      36.933 -18.539 -22.188  0.00  0.00    -0.294 OA
ATOM     22  C   UNL     1      35.773 -18.921 -22.333  0.00  0.00    +0.175 C 
ATOM     23  C   UNL     1      35.147 -19.047 -23.695  0.00  0.00    +0.075 C 
ENDBRANCH   6  22
BRANCH   6  24
ATOM     24  O   UNL     1      34.913 -18.132 -20.328  0.00  0.00    -0.380 OA
ATOM     25  H   UNL     1      34.747 -17.343 -20.867  0.00  0.00    +0.211 HD
ENDBRANCH   6  24
TORSDOF 2
ENDMDL
MODEL 4
REMARK VINA RESULT:      -9.1      1.412      6.924
REMARK  Name = 68783
REMARK  2 active torsions:
REMARK  status: ('A' for Active; 'I' for Inactive)
REMARK    1  A    between atoms: C_6  and  C_22
REMARK    2  A    between atoms: C_6  and  O_24
REMARK                            x       y       z     vdW  Elec       q    Type
REMARK                         _______ _______ _______ _____ _____    ______ ____
ROOT
ATOM      1  O   UNL     1      39.597 -24.751 -13.157  0.00  0.00    -0.291 OA
ATOM      2  C   UNL     1      31.286 -23.870 -14.867  0.00  0.00    +0.029 C 
ATOM      3  C   UNL     1      32.414 -23.534 -15.876  0.00  0.00    +0.007 C 
ATOM      4  C   UNL     1      33.714 -23.108 -15.181  0.00  0.00    +0.022 C 
ATOM      5  C   UNL     1      34.200 -24.294 -14.300  0.00  0.00    +0.008 C 
ATOM      6  C   UNL     1      30.132 -24.164 -15.859  0.00  0.00    +0.139 C 
ATOM      7  C   UNL     1      31.762 -25.049 -14.001  0.00  0.00    +0.003 C 
ATOM      8  C   UNL     1      31.738 -22.567 -16.846  0.00  0.00    +0.003 C 
ATOM      9  C   UNL     1      33.106 -24.750 -13.309  0.00  0.00    +0.001 C 
ATOM     10  C   UNL     1      30.287 -23.082 -16.951  0.00  0.00    +0.034 C 
ATOM     11  C   UNL     1      35.550 -23.910 -13.636  0.00  0.00    +0.023 C 
ATOM     12  C   UNL     1      30.905 -22.679 -13.943  0.00  0.00    +0.003 C 
ATOM     13  C   UNL     1      34.801 -22.690 -16.135  0.00  0.00    -0.031 C 
ATOM     14  C   UNL     1      36.600 -23.581 -14.708  0.00  0.00    -0.024 C 
ATOM     15  C   UNL     1      36.044 -25.010 -12.681  0.00  0.00    +0.012 C 
ATOM     16  C   UNL     1      36.112 -22.917 -15.931  0.00  0.00    -0.030 C 
ATOM     17  C   UNL     1      37.431 -24.700 -12.145  0.00  0.00    +0.069 C 
ATOM     18  C   UNL     1      37.900 -23.883 -14.532  0.00  0.00    +0.033 C 
ATOM     19  C   UNL     1      37.106 -22.445 -16.964  0.00  0.00    +0.030 C 
ATOM     20  C   UNL     1      38.401 -24.491 -13.275  0.00  0.00    +0.173 C 
ENDROOT
BRANCH   6  22
ATOM     21  O   UNL     1      28.435 -25.071 -14.447  0.00  0.00    -0.294 OA
ATOM     22  C   UNL     1      28.773 -24.181 -15.226  0.00  0.00    +0.175 C 
ATOM     23  C   UNL     1      27.844 -23.055 -15.589  0.00  0.00    +0.075 C 
ENDBRANCH   6  22
BRANCH   6  24
ATOM     24  O   UNL     1      30.281 -25.453 -16.448  0.00  0.00    -0.380 OA
ATOM     25  H   UNL     1      29.589 -26.044 -16.113  0.00  0.00    +0.211 HD
ENDBRANCH   6  24
TORSDOF 2
ENDMDL
MODEL 5
REMARK VINA RESULT:      -8.6      9.000     11.741
REMARK  Name = 68783
REMARK  2 active torsions:
REMARK  status: ('A' for Active; 'I' for Inactive)
REMARK    1  A    between atoms: C_6  and  C_22
REMARK    2  A    between atoms: C_6  and  O_24
REMARK                            x       y       z     vdW  Elec       q    Type
REMARK                         _______ _______ _______ _____ _____    ______ ____
ROOT
ATOM      1  O   UNL     1      31.675  -9.557 -22.206  0.00  0.00    -0.291 OA
ATOM      2  C   UNL     1      34.566 -17.575 -21.830  0.00  0.00    +0.029 C 
ATOM      3  C   UNL     1      34.652 -16.685 -23.098  0.00  0.00    +0.007 C 
ATOM      4  C   UNL     1      33.525 -15.646 -23.161  0.00  0.00    +0.022 C 
ATOM      5  C   UNL     1      33.655 -14.719 -21.919  0.00  0.00    +0.008 C 
ATOM      6  C   UNL     1      35.749 -18.536 -22.111  0.00  0.00    +0.139 C 
ATOM      7  C   UNL     1      34.703 -16.659 -20.602  0.00  0.00    +0.003 C 
ATOM      8  C   UNL     1      34.789 -17.703 -24.229  0.00  0.00    +0.003 C 
ATOM      9  C   UNL     1      33.656 -15.530 -20.604  0.00  0.00    +0.001 C 
ATOM     10  C   UNL     1      35.642 -18.837 -23.623  0.00  0.00    +0.034 C 
ATOM     11  C   UNL     1      32.563 -13.617 -21.995  0.00  0.00    +0.023 C 
ATOM     12  C   UNL     1      33.239 -18.376 -21.724  0.00  0.00    +0.003 C 
ATOM     13  C   UNL     1      33.528 -14.827 -24.424  0.00  0.00    -0.031 C 
ATOM     14  C   UNL     1      32.717 -12.799 -23.286  0.00  0.00    -0.024 C 
ATOM     15  C   UNL     1      32.583 -12.715 -20.750  0.00  0.00    +0.012 C 
ATOM     16  C   UNL     1      33.177 -13.528 -24.482  0.00  0.00    -0.030 C 
ATOM     17  C   UNL     1      31.615 -11.552 -20.889  0.00  0.00    +0.069 C 
ATOM     18  C   UNL     1      32.440 -11.481 -23.318  0.00  0.00    +0.033 C 
ATOM     19  C   UNL     1      33.221 -12.817 -25.812  0.00  0.00    +0.030 C 
ATOM     20  C   UNL     1      31.914 -10.762 -22.132  0.00  0.00    +0.173 C 
ENDROOT
BRANCH   6  22
ATOM     21  O   UNL     1      34.894 -20.646 -21.390  0.00  0.00    -0.294 OA
ATOM     22  C   UNL     1      35.747 -19.770 -21.257  0.00  0.00    +0.175 C 
ATOM     23  C   UNL     1      36.842 -19.883 -20.231  0.00  0.00    +0.075 C 
ENDBRANCH   6  22
BRANCH   6  24
ATOM     24  O   UNL     1      36.996 -17.904 -21.843  0.00  0.00    -0.380 OA
ATOM     25  H   UNL     1      36.962 -16.981 -22.140  0.00  0.00    +0.211 HD
ENDBRANCH   6  24
TORSDOF 2
ENDMDL
MODEL 6
REMARK VINA RESULT:      -8.4     14.873     18.310
REMARK  Name = 68783
REMARK  2 active torsions:
REMARK  status: ('A' for Active; 'I' for Inactive)
REMARK    1  A    between atoms: C_6  and  C_22
REMARK    2  A    between atoms: C_6  and  O_24
REMARK                            x       y       z     vdW  Elec       q    Type
REMARK                         _______ _______ _______ _____ _____    ______ ____
ROOT
ATOM      1  O   UNL     1      33.401 -15.184 -23.849  0.00  0.00    -0.291 OA
ATOM      2  C   UNL     1      31.955  -6.806 -23.144  0.00  0.00    +0.029 C 
ATOM      3  C   UNL     1      32.783  -7.445 -24.290  0.00  0.00    +0.007 C 
ATOM      4  C   UNL     1      33.467  -8.749 -23.860  0.00  0.00    +0.022 C 
ATOM      5  C   UNL     1      32.359  -9.761 -23.450  0.00  0.00    +0.008 C 
ATOM      6  C   UNL     1      31.488  -5.510 -23.856  0.00  0.00    +0.139 C 
ATOM      7  C   UNL     1      30.854  -7.803 -22.744  0.00  0.00    +0.003 C 
ATOM      8  C   UNL     1      33.641  -6.283 -24.789  0.00  0.00    +0.003 C 
ATOM      9  C   UNL     1      31.433  -9.177 -22.360  0.00  0.00    +0.001 C 
ATOM     10  C   UNL     1      32.730  -5.046 -24.650  0.00  0.00    +0.034 C 
ATOM     11  C   UNL     1      33.025 -11.112 -23.073  0.00  0.00    +0.023 C 
ATOM     12  C   UNL     1      32.802  -6.450 -21.891  0.00  0.00    +0.003 C 
ATOM     13  C   UNL     1      34.350  -9.347 -24.923  0.00  0.00    -0.031 C 
ATOM     14  C   UNL     1      33.832 -11.662 -24.258  0.00  0.00    -0.024 C 
ATOM     15  C   UNL     1      31.989 -12.134 -22.575  0.00  0.00    +0.012 C 
ATOM     16  C   UNL     1      34.507 -10.670 -25.117  0.00  0.00    -0.030 C 
ATOM     17  C   UNL     1      32.617 -13.498 -22.344  0.00  0.00    +0.069 C 
ATOM     18  C   UNL     1      33.920 -12.984 -24.495  0.00  0.00    +0.033 C 
ATOM     19  C   UNL     1      35.424 -11.144 -26.216  0.00  0.00    +0.030 C 
ATOM     20  C   UNL     1      33.297 -13.984 -23.594  0.00  0.00    +0.173 C 
ENDROOT
BRANCH   6  22
ATOM     21  O   UNL     1      30.096  -4.728 -22.082  0.00  0.00    -0.294 OA
ATOM     22  C   UNL     1      30.950  -4.464 -22.926  0.00  0.00    +0.175 C 
ATOM     23  C   UNL     1      31.508  -3.075 -23.076  0.00  0.00    +0.075 C 
ENDBRANCH   6  22
BRANCH   6  24
ATOM     24  O   UNL     1      30.423  -5.780 -24.763  0.00  0.00    -0.380 OA
ATOM     25  H   UNL     1      29.856  -4.998 -24.839  0.00  0.00    +0.211 HD
ENDBRANCH   6  24
TORSDOF 2
ENDMDL
MODEL 7
REMARK VINA RESULT:      -8.0     13.859     17.242
REMARK  Name = 68783
REMARK  2 active torsions:
REMARK  status: ('A' for Active; 'I' for Inactive)
REMARK    1  A    between atoms: C_6  and  C_22
REMARK    2  A    between atoms: C_6  and  O_24
REMARK                            x       y       z     vdW  Elec       q    Type
REMARK                         _______ _______ _______ _____ _____    ______ ____
ROOT
ATOM      1  O   UNL     1      32.828 -15.664 -20.479  0.00  0.00    -0.291 OA
ATOM      2  C   UNL     1      32.214  -7.791 -23.707  0.00  0.00    +0.029 C 
ATOM      3  C   UNL     1      32.164  -8.107 -22.189  0.00  0.00    +0.007 C 
ATOM      4  C   UNL     1      31.607  -9.508 -21.901  0.00  0.00    +0.022 C 
ATOM      5  C   UNL     1      32.549 -10.547 -22.574  0.00  0.00    +0.008 C 
ATOM      6  C   UNL     1      32.719  -6.327 -23.648  0.00  0.00    +0.139 C 
ATOM      7  C   UNL     1      33.151  -8.813 -24.371  0.00  0.00    +0.003 C 
ATOM      8  C   UNL     1      31.452  -6.889 -21.603  0.00  0.00    +0.003 C 
ATOM      9  C   UNL     1      32.720 -10.264 -24.083  0.00  0.00    +0.001 C 
ATOM     10  C   UNL     1      31.945  -5.707 -22.463  0.00  0.00    +0.034 C 
ATOM     11  C   UNL     1      32.042 -11.977 -22.241  0.00  0.00    +0.023 C 
ATOM     12  C   UNL     1      30.823  -7.848 -24.398  0.00  0.00    +0.003 C 
ATOM     13  C   UNL     1      31.463  -9.811 -20.434  0.00  0.00    -0.031 C 
ATOM     14  C   UNL     1      32.012 -12.195 -20.722  0.00  0.00    -0.024 C 
ATOM     15  C   UNL     1      32.881 -13.054 -22.949  0.00  0.00    +0.012 C 
ATOM     16  C   UNL     1      31.661 -11.027 -19.891  0.00  0.00    -0.030 C 
ATOM     17  C   UNL     1      32.479 -14.451 -22.511  0.00  0.00    +0.069 C 
ATOM     18  C   UNL     1      32.290 -13.396 -20.179  0.00  0.00    +0.033 C 
ATOM     19  C   UNL     1      31.482 -11.203 -18.404  0.00  0.00    +0.030 C 
ATOM     20  C   UNL     1      32.578 -14.586 -21.016  0.00  0.00    +0.173 C 
ENDROOT
BRANCH   6  22
ATOM     21  O   UNL     1      33.296  -5.752 -25.892  0.00  0.00    -0.294 OA
ATOM     22  C   UNL     1      32.549  -5.570 -24.932  0.00  0.00    +0.175 C 
ATOM     23  C   UNL     1      31.418  -4.580 -24.988  0.00  0.00    +0.075 C 
ENDBRANCH   6  22
BRANCH   6  24
ATOM     24  O   UNL     1      34.116  -6.279 -23.374  0.00  0.00    -0.380 OA
ATOM     25  H   UNL     1      34.611  -6.301 -24.208  0.00  0.00    +0.211 HD
ENDBRANCH   6  24
TORSDOF 2
ENDMDL
MODEL 8
REMARK VINA RESULT:      -7.5      2.699      4.033
REMARK  Name = 68783
REMARK  2 active torsions:
REMARK  status: ('A' for Active; 'I' for Inactive)
REMARK    1  A    between atoms: C_6  and  C_22
REMARK    2  A    between atoms: C_6  and  O_24
REMARK                            x       y       z     vdW  Elec       q    Type
REMARK                         _______ _______ _______ _____ _____    ______ ____
ROOT
ATOM      1  O   UNL     1      32.809 -19.779 -21.469  0.00  0.00    -0.291 OA
ATOM      2  C   UNL     1      35.763 -24.034 -14.691  0.00  0.00    +0.029 C 
ATOM      3  C   UNL     1      36.605 -23.017 -15.505  0.00  0.00    +0.007 C 
ATOM      4  C   UNL     1      36.161 -22.931 -16.971  0.00  0.00    +0.022 C 
ATOM      5  C   UNL     1      34.681 -22.455 -16.999  0.00  0.00    +0.008 C 
ATOM      6  C   UNL     1      36.499 -23.945 -13.329  0.00  0.00    +0.139 C 
ATOM      7  C   UNL     1      34.300 -23.558 -14.711  0.00  0.00    +0.003 C 
ATOM      8  C   UNL     1      38.044 -23.420 -15.185  0.00  0.00    +0.003 C 
ATOM      9  C   UNL     1      33.775 -23.371 -16.146  0.00  0.00    +0.001 C 
ATOM     10  C   UNL     1      37.995 -23.876 -13.712  0.00  0.00    +0.034 C 
ATOM     11  C   UNL     1      34.230 -22.298 -18.476  0.00  0.00    +0.023 C 
ATOM     12  C   UNL     1      35.837 -25.484 -15.244  0.00  0.00    +0.003 C 
ATOM     13  C   UNL     1      37.017 -22.019 -17.809  0.00  0.00    -0.031 C 
ATOM     14  C   UNL     1      35.125 -21.286 -19.206  0.00  0.00    -0.024 C 
ATOM     15  C   UNL     1      32.744 -21.910 -18.576  0.00  0.00    +0.012 C 
ATOM     16  C   UNL     1      36.547 -21.257 -18.816  0.00  0.00    -0.030 C 
ATOM     17  C   UNL     1      32.340 -21.615 -20.010  0.00  0.00    +0.069 C 
ATOM     18  C   UNL     1      34.633 -20.470 -20.157  0.00  0.00    +0.033 C 
ATOM     19  C   UNL     1      37.509 -20.385 -19.583  0.00  0.00    +0.030 C 
ATOM     20  C   UNL     1      33.218 -20.544 -20.597  0.00  0.00    +0.173 C 
ENDROOT
BRANCH   6  22
ATOM     21  O   UNL     1      35.151 -25.064 -11.708  0.00  0.00    -0.294 OA
ATOM     22  C   UNL     1      36.177 -25.067 -12.388  0.00  0.00    +0.175 C 
ATOM     23  C   UNL     1      37.167 -26.197 -12.317  0.00  0.00    +0.075 C 
ENDBRANCH   6  22
BRANCH   6  24
ATOM     24  O   UNL     1      36.137 -22.760 -12.628  0.00  0.00    -0.380 OA
ATOM     25  H   UNL     1      35.171 -22.706 -12.560  0.00  0.00    +0.211 HD
ENDBRANCH   6  24
TORSDOF 2
ENDMDL
