MODEL 1
REMARK VINA RESULT:      -8.0      0.000      0.000
REMARK  Name = 3870203
REMARK  4 active torsions:
REMARK  status: ('A' for Active; 'I' for Inactive)
REMARK    1  A    between atoms: C_1  and  N_9
REMARK    2  A    between atoms: C_2  and  N_12
REMARK    3  A    between atoms: C_3  and  O_13
REMARK    4  A    between atoms: C_5  and  O_15
REMARK                            x       y       z     vdW  Elec       q    Type
REMARK                         _______ _______ _______ _____ _____    ______ ____
ROOT
ATOM      1  C   UNL     1      37.396 -24.523 -12.429  0.00  0.00    +0.181 C 
ATOM      2  C   UNL     1      39.110 -25.489 -13.831  0.00  0.00    +0.148 C 
ATOM      3  C   UNL     1      36.414 -25.155 -13.193  0.00  0.00    +0.190 C 
ATOM      4  C   UNL     1      38.743 -24.690 -12.747  0.00  0.00    +0.051 C 
ATOM      5  C   UNL     1      36.781 -25.953 -14.276  0.00  0.00    +0.171 C 
ATOM      6  C   UNL     1      38.129 -26.120 -14.595  0.00  0.00    +0.064 C 
ENDROOT
BRANCH   1   9
ATOM      7  O   UNL     1      36.406 -24.214 -10.370  0.00  0.00    -0.126 OA
ATOM      8  O   UNL     1      37.374 -22.495 -11.332  0.00  0.00    -0.126 OA
ATOM      9  N   UNL     1      37.041 -23.703 -11.322  0.00  0.00    +0.061 N 
ENDBRANCH   1   9
BRANCH   2  12
ATOM     10  O   UNL     1      41.111 -24.695 -14.655  0.00  0.00    -0.126 OA
ATOM     11  O   UNL     1      41.025 -26.768 -13.935  0.00  0.00    -0.126 OA
ATOM     12  N   UNL     1      40.482 -25.659 -14.156  0.00  0.00    +0.058 N 
ENDBRANCH   2  12
BRANCH   3  13
ATOM     13  O   UNL     1      35.093 -24.997 -12.892  0.00  0.00    -0.502 OA
ATOM     14  H   UNL     1      34.740 -25.379 -12.113  0.00  0.00    +0.292 HD
ENDBRANCH   3  13
BRANCH   5  15
ATOM     15  O   UNL     1      35.834 -26.576 -15.032  0.00  0.00    -0.503 OA
ATOM     16  H   UNL     1      35.477 -27.397 -14.753  0.00  0.00    +0.292 HD
ENDBRANCH   5  15
TORSDOF 4
ENDMDL
MODEL 2
REMARK VINA RESULT:      -7.8      0.792      4.152
REMARK  Name = 3870203
REMARK  4 active torsions:
REMARK  status: ('A' for Active; 'I' for Inactive)
REMARK    1  A    between atoms: C_1  and  N_9
REMARK    2  A    between atoms: C_2  and  N_12
REMARK    3  A    between atoms: C_3  and  O_13
REMARK    4  A    between atoms: C_5  and  O_15
REMARK                            x       y       z     vdW  Elec       q    Type
REMARK                         _______ _______ _______ _____ _____    ______ ____
ROOT
ATOM      1  C   UNL     1      38.725 -25.371 -13.905  0.00  0.00    +0.181 C 
ATOM      2  C   UNL     1      37.169 -24.366 -12.354  0.00  0.00    +0.148 C 
ATOM      3  C   UNL     1      37.657 -25.846 -14.668  0.00  0.00    +0.190 C 
ATOM      4  C   UNL     1      38.481 -24.632 -12.748  0.00  0.00    +0.051 C 
ATOM      5  C   UNL     1      36.346 -25.581 -14.273  0.00  0.00    +0.171 C 
ATOM      6  C   UNL     1      36.102 -24.841 -13.117  0.00  0.00    +0.064 C 
ENDROOT
BRANCH   1   9
ATOM      7  O   UNL     1      40.380 -26.793 -14.650  0.00  0.00    -0.126 OA
ATOM      8  O   UNL     1      40.901 -24.696 -14.260  0.00  0.00    -0.126 OA
ATOM      9  N   UNL     1      40.069 -25.633 -14.291  0.00  0.00    +0.061 N 
ENDBRANCH   1   9
BRANCH   2  12
ATOM     10  O   UNL     1      36.343 -24.170 -10.210  0.00  0.00    -0.126 OA
ATOM     11  O   UNL     1      37.284 -22.414 -11.133  0.00  0.00    -0.126 OA
ATOM     12  N   UNL     1      36.920 -23.614 -11.176  0.00  0.00    +0.058 N 
ENDBRANCH   2  12
BRANCH   3  13
ATOM     13  O   UNL     1      37.885 -26.573 -15.801  0.00  0.00    -0.502 OA
ATOM     14  H   UNL     1      38.603 -27.173 -15.837  0.00  0.00    +0.292 HD
ENDBRANCH   3  13
BRANCH   5  15
ATOM     15  O   UNL     1      35.295 -26.039 -15.008  0.00  0.00    -0.503 OA
ATOM     16  H   UNL     1      34.442 -26.091 -14.623  0.00  0.00    +0.292 HD
ENDBRANCH   5  15
TORSDOF 4
ENDMDL
MODEL 3
REMARK VINA RESULT:      -7.6      2.066      2.735
REMARK  Name = 3870203
REMARK  4 active torsions:
REMARK  status: ('A' for Active; 'I' for Inactive)
REMARK    1  A    between atoms: C_1  and  N_9
REMARK    2  A    between atoms: C_2  and  N_12
REMARK    3  A    between atoms: C_3  and  O_13
REMARK    4  A    between atoms: C_5  and  O_15
REMARK                            x       y       z     vdW  Elec       q    Type
REMARK                         _______ _______ _______ _____ _____    ______ ____
ROOT
ATOM      1  C   UNL     1      35.812 -24.775 -12.389  0.00  0.00    +0.181 C 
ATOM      2  C   UNL     1      36.462 -25.847 -14.454  0.00  0.00    +0.148 C 
ATOM      3  C   UNL     1      34.738 -24.168 -13.042  0.00  0.00    +0.190 C 
ATOM      4  C   UNL     1      36.674 -25.614 -13.095  0.00  0.00    +0.051 C 
ATOM      5  C   UNL     1      34.528 -24.400 -14.401  0.00  0.00    +0.171 C 
ATOM      6  C   UNL     1      35.389 -25.239 -15.107  0.00  0.00    +0.064 C 
ENDROOT
BRANCH   1   9
ATOM      7  O   UNL     1      35.240 -25.026 -10.170  0.00  0.00    -0.126 OA
ATOM      8  O   UNL     1      37.045 -23.877 -10.660  0.00  0.00    -0.126 OA
ATOM      9  N   UNL     1      36.044 -24.548 -11.004  0.00  0.00    +0.061 N 
ENDBRANCH   1   9
BRANCH   2  12
ATOM     10  O   UNL     1      38.526 -26.820 -14.783  0.00  0.00    -0.126 OA
ATOM     11  O   UNL     1      36.904 -27.311 -16.179  0.00  0.00    -0.126 OA
ATOM     12  N   UNL     1      37.340 -26.701 -15.174  0.00  0.00    +0.058 N 
ENDBRANCH   2  12
BRANCH   3  13
ATOM     13  O   UNL     1      33.890 -23.343 -12.362  0.00  0.00    -0.502 OA
ATOM     14  H   UNL     1      33.557 -23.600 -11.525  0.00  0.00    +0.292 HD
ENDBRANCH   3  13
BRANCH   5  15
ATOM     15  O   UNL     1      33.485 -23.814 -15.052  0.00  0.00    -0.503 OA
ATOM     16  H   UNL     1      33.591 -22.967 -15.440  0.00  0.00    +0.292 HD
ENDBRANCH   5  15
TORSDOF 4
ENDMDL
MODEL 4
REMARK VINA RESULT:      -7.3      1.978      3.858
REMARK  Name = 3870203
REMARK  4 active torsions:
REMARK  status: ('A' for Active; 'I' for Inactive)
REMARK    1  A    between atoms: C_1  and  N_9
REMARK    2  A    between atoms: C_2  and  N_12
REMARK    3  A    between atoms: C_3  and  O_13
REMARK    4  A    between atoms: C_5  and  O_15
REMARK                            x       y       z     vdW  Elec       q    Type
REMARK                         _______ _______ _______ _____ _____    ______ ____
ROOT
ATOM      1  C   UNL     1      35.970 -24.700 -14.583  0.00  0.00    +0.181 C 
ATOM      2  C   UNL     1      37.575 -24.205 -12.847  0.00  0.00    +0.148 C 
ATOM      3  C   UNL     1      36.730 -25.803 -14.972  0.00  0.00    +0.190 C 
ATOM      4  C   UNL     1      36.392 -23.900 -13.521  0.00  0.00    +0.051 C 
ATOM      5  C   UNL     1      37.913 -26.106 -14.298  0.00  0.00    +0.171 C 
ATOM      6  C   UNL     1      38.336 -25.307 -13.236  0.00  0.00    +0.064 C 
ENDROOT
BRANCH   1   9
ATOM      7  O   UNL     1      34.814 -24.045 -16.467  0.00  0.00    -0.126 OA
ATOM      8  O   UNL     1      33.681 -24.425 -14.626  0.00  0.00    -0.126 OA
ATOM      9  N   UNL     1      34.761 -24.374 -15.259  0.00  0.00    +0.061 N 
ENDBRANCH   1   9
BRANCH   2  12
ATOM     10  O   UNL     1      37.151 -22.942 -10.965  0.00  0.00    -0.126 OA
ATOM     11  O   UNL     1      39.229 -23.143 -11.642  0.00  0.00    -0.126 OA
ATOM     12  N   UNL     1      38.006 -23.390 -11.766  0.00  0.00    +0.058 N 
ENDBRANCH   2  12
BRANCH   3  13
ATOM     13  O   UNL     1      36.328 -26.591 -16.011  0.00  0.00    -0.502 OA
ATOM     14  H   UNL     1      35.704 -27.275 -15.866  0.00  0.00    +0.292 HD
ENDBRANCH   3  13
BRANCH   5  15
ATOM     15  O   UNL     1      38.666 -27.180 -14.667  0.00  0.00    -0.503 OA
ATOM     16  H   UNL     1      39.590 -27.082 -14.796  0.00  0.00    +0.292 HD
ENDBRANCH   5  15
TORSDOF 4
ENDMDL
MODEL 5
REMARK VINA RESULT:      -7.3      2.085      2.883
REMARK  Name = 3870203
REMARK  4 active torsions:
REMARK  status: ('A' for Active; 'I' for Inactive)
REMARK    1  A    between atoms: C_1  and  N_9
REMARK    2  A    between atoms: C_2  and  N_12
REMARK    3  A    between atoms: C_3  and  O_13
REMARK    4  A    between atoms: C_5  and  O_15
REMARK                            x       y       z     vdW  Elec       q    Type
REMARK                         _______ _______ _______ _____ _____    ______ ____
ROOT
ATOM      1  C   UNL     1      36.946 -24.334 -14.801  0.00  0.00    +0.181 C 
ATOM      2  C   UNL     1      39.098 -25.283 -14.249  0.00  0.00    +0.148 C 
ATOM      3  C   UNL     1      36.397 -24.912 -13.656  0.00  0.00    +0.190 C 
ATOM      4  C   UNL     1      38.296 -24.520 -15.098  0.00  0.00    +0.051 C 
ATOM      5  C   UNL     1      37.199 -25.676 -12.808  0.00  0.00    +0.171 C 
ATOM      6  C   UNL     1      38.549 -25.861 -13.104  0.00  0.00    +0.064 C 
ENDROOT
BRANCH   1   9
ATOM      7  O   UNL     1      35.114 -24.067 -16.175  0.00  0.00    -0.126 OA
ATOM      8  O   UNL     1      36.491 -22.375 -15.929  0.00  0.00    -0.126 OA
ATOM      9  N   UNL     1      36.144 -23.553 -15.679  0.00  0.00    +0.061 N 
ENDBRANCH   1   9
BRANCH   2  12
ATOM     10  O   UNL     1      40.913 -26.643 -14.663  0.00  0.00    -0.126 OA
ATOM     11  O   UNL     1      41.206 -24.467 -14.697  0.00  0.00    -0.126 OA
ATOM     12  N   UNL     1      40.472 -25.473 -14.551  0.00  0.00    +0.058 N 
ENDBRANCH   2  12
BRANCH   3  13
ATOM     13  O   UNL     1      35.076 -24.738 -13.357  0.00  0.00    -0.502 OA
ATOM     14  H   UNL     1      34.596 -24.035 -13.747  0.00  0.00    +0.292 HD
ENDBRANCH   3  13
BRANCH   5  15
ATOM     15  O   UNL     1      36.676 -26.246 -11.687  0.00  0.00    -0.503 OA
ATOM     16  H   UNL     1      36.039 -25.783 -11.179  0.00  0.00    +0.292 HD
ENDBRANCH   5  15
TORSDOF 4
ENDMDL
MODEL 6
REMARK VINA RESULT:      -7.3      1.600      4.708
REMARK  Name = 3870203
REMARK  4 active torsions:
REMARK  status: ('A' for Active; 'I' for Inactive)
REMARK    1  A    between atoms: C_1  and  N_9
REMARK    2  A    between atoms: C_2  and  N_12
REMARK    3  A    between atoms: C_3  and  O_13
REMARK    4  A    between atoms: C_5  and  O_15
REMARK                            x       y       z     vdW  Elec       q    Type
REMARK                         _______ _______ _______ _____ _____    ______ ____
ROOT
ATOM      1  C   UNL     1      37.118 -25.749 -14.441  0.00  0.00    +0.181 C 
ATOM      2  C   UNL     1      37.190 -24.705 -12.264  0.00  0.00    +0.148 C 
ATOM      3  C   UNL     1      38.500 -25.596 -14.560  0.00  0.00    +0.190 C 
ATOM      4  C   UNL     1      36.463 -25.303 -13.293  0.00  0.00    +0.051 C 
ATOM      5  C   UNL     1      39.226 -24.997 -13.531  0.00  0.00    +0.171 C 
ATOM      6  C   UNL     1      38.571 -24.551 -12.383  0.00  0.00    +0.064 C 
ENDROOT
BRANCH   1   9
ATOM      7  O   UNL     1      36.829 -27.360 -16.064  0.00  0.00    -0.126 OA
ATOM      8  O   UNL     1      35.246 -25.867 -15.783  0.00  0.00    -0.126 OA
ATOM      9  N   UNL     1      36.360 -26.355 -15.481  0.00  0.00    +0.061 N 
ENDBRANCH   1   9
BRANCH   2  12
ATOM     10  O   UNL     1      35.511 -24.873 -10.692  0.00  0.00    -0.126 OA
ATOM     11  O   UNL     1      36.964 -23.238 -10.499  0.00  0.00    -0.126 OA
ATOM     12  N   UNL     1      36.523 -24.250 -11.095  0.00  0.00    +0.058 N 
ENDBRANCH   2  12
BRANCH   3  13
ATOM     13  O   UNL     1      39.151 -26.026 -15.680  0.00  0.00    -0.502 OA
ATOM     14  H   UNL     1      39.694 -25.436 -16.162  0.00  0.00    +0.292 HD
ENDBRANCH   3  13
BRANCH   5  15
ATOM     15  O   UNL     1      40.575 -24.840 -13.634  0.00  0.00    -0.503 OA
ATOM     16  H   UNL     1      40.970 -24.722 -14.476  0.00  0.00    +0.292 HD
ENDBRANCH   5  15
TORSDOF 4
ENDMDL
MODEL 7
REMARK VINA RESULT:      -7.1      2.940      3.816
REMARK  Name = 3870203
REMARK  4 active torsions:
REMARK  status: ('A' for Active; 'I' for Inactive)
REMARK    1  A    between atoms: C_1  and  N_9
REMARK    2  A    between atoms: C_2  and  N_12
REMARK    3  A    between atoms: C_3  and  O_13
REMARK    4  A    between atoms: C_5  and  O_15
REMARK                            x       y       z     vdW  Elec       q    Type
REMARK                         _______ _______ _______ _____ _____    ______ ____
ROOT
ATOM      1  C   UNL     1      36.530 -23.726 -12.778  0.00  0.00    +0.181 C 
ATOM      2  C   UNL     1      35.732 -23.157 -14.986  0.00  0.00    +0.148 C 
ATOM      3  C   UNL     1      35.291 -24.291 -12.476  0.00  0.00    +0.190 C 
ATOM      4  C   UNL     1      36.751 -23.159 -14.033  0.00  0.00    +0.051 C 
ATOM      5  C   UNL     1      34.272 -24.287 -13.429  0.00  0.00    +0.171 C 
ATOM      6  C   UNL     1      34.493 -23.720 -14.683  0.00  0.00    +0.064 C 
ENDROOT
BRANCH   1   9
ATOM      7  O   UNL     1      37.861 -24.782 -11.220  0.00  0.00    -0.126 OA
ATOM      8  O   UNL     1      38.194 -22.647 -11.601  0.00  0.00    -0.126 OA
ATOM      9  N   UNL     1      37.581 -23.718 -11.819  0.00  0.00    +0.061 N 
ENDBRANCH   1   9
BRANCH   2  12
ATOM     10  O   UNL     1      36.906 -21.772 -16.407  0.00  0.00    -0.126 OA
ATOM     11  O   UNL     1      35.198 -22.891 -17.213  0.00  0.00    -0.126 OA
ATOM     12  N   UNL     1      35.956 -22.578 -16.264  0.00  0.00    +0.058 N 
ENDBRANCH   2  12
BRANCH   3  13
ATOM     13  O   UNL     1      35.063 -24.847 -11.250  0.00  0.00    -0.502 OA
ATOM     14  H   UNL     1      35.287 -25.743 -11.093  0.00  0.00    +0.292 HD
ENDBRANCH   3  13
BRANCH   5  15
ATOM     15  O   UNL     1      33.057 -24.834 -13.147  0.00  0.00    -0.503 OA
ATOM     16  H   UNL     1      32.978 -25.474 -12.466  0.00  0.00    +0.292 HD
ENDBRANCH   5  15
TORSDOF 4
ENDMDL
MODEL 8
REMARK VINA RESULT:      -7.1      6.286      8.476
REMARK  Name = 3870203
REMARK  4 active torsions:
REMARK  status: ('A' for Active; 'I' for Inactive)
REMARK    1  A    between atoms: C_1  and  N_9
REMARK    2  A    between atoms: C_2  and  N_12
REMARK    3  A    between atoms: C_3  and  O_13
REMARK    4  A    between atoms: C_5  and  O_15
REMARK                            x       y       z     vdW  Elec       q    Type
REMARK                         _______ _______ _______ _____ _____    ______ ____
ROOT
ATOM      1  C   UNL     1      32.260 -23.638 -15.685  0.00  0.00    +0.181 C 
ATOM      2  C   UNL     1      29.870 -23.531 -16.021  0.00  0.00    +0.148 C 
ATOM      3  C   UNL     1      32.059 -24.266 -14.455  0.00  0.00    +0.190 C 
ATOM      4  C   UNL     1      31.166 -23.270 -16.468  0.00  0.00    +0.051 C 
ATOM      5  C   UNL     1      30.763 -24.525 -14.009  0.00  0.00    +0.171 C 
ATOM      6  C   UNL     1      29.669 -24.158 -14.792  0.00  0.00    +0.064 C 
ENDROOT
BRANCH   1   9
ATOM      7  O   UNL     1      33.863 -23.647 -17.341  0.00  0.00    -0.126 OA
ATOM      8  O   UNL     1      34.402 -22.845 -15.371  0.00  0.00    -0.126 OA
ATOM      9  N   UNL     1      33.574 -23.363 -16.156  0.00  0.00    +0.061 N 
ENDBRANCH   1   9
BRANCH   2  12
ATOM     10  O   UNL     1      28.546 -21.938 -17.034  0.00  0.00    -0.126 OA
ATOM     11  O   UNL     1      28.012 -24.053 -17.282  0.00  0.00    -0.126 OA
ATOM     12  N   UNL     1      28.756 -23.156 -16.818  0.00  0.00    +0.058 N 
ENDBRANCH   2  12
BRANCH   3  13
ATOM     13  O   UNL     1      33.122 -24.628 -13.679  0.00  0.00    -0.502 OA
ATOM     14  H   UNL     1      33.715 -23.976 -13.362  0.00  0.00    +0.292 HD
ENDBRANCH   3  13
BRANCH   5  15
ATOM     15  O   UNL     1      30.552 -25.136 -12.810  0.00  0.00    -0.503 OA
ATOM     16  H   UNL     1      31.270 -25.282 -12.225  0.00  0.00    +0.292 HD
ENDBRANCH   5  15
TORSDOF 4
ENDMDL
MODEL 9
REMARK VINA RESULT:      -7.0     14.088     14.590
REMARK  Name = 3870203
REMARK  4 active torsions:
REMARK  status: ('A' for Active; 'I' for Inactive)
REMARK    1  A    between atoms: C_1  and  N_9
REMARK    2  A    between atoms: C_2  and  N_12
REMARK    3  A    between atoms: C_3  and  O_13
REMARK    4  A    between atoms: C_5  and  O_15
REMARK                            x       y       z     vdW  Elec       q    Type
REMARK                         _______ _______ _______ _____ _____    ______ ____
ROOT
ATOM      1  C   UNL     1      33.751 -14.984 -23.901  0.00  0.00    +0.181 C 
ATOM      2  C   UNL     1      34.716 -16.547 -22.332  0.00  0.00    +0.148 C 
ATOM      3  C   UNL     1      33.955 -15.898 -24.936  0.00  0.00    +0.190 C 
ATOM      4  C   UNL     1      34.132 -15.309 -22.599  0.00  0.00    +0.051 C 
ATOM      5  C   UNL     1      34.540 -17.135 -24.668  0.00  0.00    +0.171 C 
ATOM      6  C   UNL     1      34.921 -17.460 -23.367  0.00  0.00    +0.064 C 
ENDROOT
BRANCH   1   9
ATOM      7  O   UNL     1      32.281 -13.291 -23.367  0.00  0.00    -0.126 OA
ATOM      8  O   UNL     1      33.530 -13.064 -25.158  0.00  0.00    -0.126 OA
ATOM      9  N   UNL     1      33.158 -13.717 -24.155  0.00  0.00    +0.061 N 
ENDBRANCH   1   9
BRANCH   2  12
ATOM     10  O   UNL     1      34.994 -16.010 -20.107  0.00  0.00    -0.126 OA
ATOM     11  O   UNL     1      35.549 -18.028 -20.773  0.00  0.00    -0.126 OA
ATOM     12  N   UNL     1      35.105 -16.878 -21.006  0.00  0.00    +0.058 N 
ENDBRANCH   2  12
BRANCH   3  13
ATOM     13  O   UNL     1      33.588 -15.590 -26.214  0.00  0.00    -0.502 OA
ATOM     14  H   UNL     1      33.415 -16.274 -26.830  0.00  0.00    +0.292 HD
ENDBRANCH   3  13
BRANCH   5  15
ATOM     15  O   UNL     1      34.746 -18.036 -25.669  0.00  0.00    -0.503 OA
ATOM     16  H   UNL     1      35.001 -18.914 -25.463  0.00  0.00    +0.292 HD
ENDBRANCH   5  15
TORSDOF 4
ENDMDL
