MODEL 1
REMARK VINA RESULT:      -8.8      0.000      0.000
REMARK  Name = 76957773
REMARK  5 active torsions:
REMARK  status: ('A' for Active; 'I' for Inactive)
REMARK    1  A    between atoms: C_9  and  O_26
REMARK    2  A    between atoms: C_12  and  C_24
REMARK    3  A    between atoms: C_13  and  O_22
REMARK    4  A    between atoms: O_26  and  C_28
REMARK    5  A    between atoms: C_28  and  C_30
REMARK                            x       y       z     vdW  Elec       q    Type
REMARK                         _______ _______ _______ _____ _____    ______ ____
ROOT
ATOM      1  N   UNL     1      35.875 -25.644 -13.920  0.00  0.00    +0.408 N 
ATOM      2  N   UNL     1      32.808 -24.306 -13.854  0.00  0.00    -0.309 N 
ATOM      3  C   UNL     1      34.422 -23.704 -15.527  0.00  0.00    +0.070 C 
ATOM      4  C   UNL     1      36.840 -23.908 -15.432  0.00  0.00    +0.022 C 
ATOM      5  C   UNL     1      36.127 -25.296 -15.345  0.00  0.00    -0.050 C 
ATOM      6  C   UNL     1      35.307 -24.454 -13.208  0.00  0.00    -0.036 C 
ATOM      7  C   UNL     1      37.516 -23.644 -14.055  0.00  0.00    -0.000 C 
ATOM      8  C   UNL     1      34.165 -23.750 -13.987  0.00  0.00    +0.061 C 
ATOM      9  C   UNL     1      35.706 -22.905 -15.817  0.00  0.00    +0.172 C 
ATOM     10  C   UNL     1      34.790 -25.104 -16.030  0.00  0.00    -0.011 C 
ATOM     11  C   UNL     1      36.435 -23.407 -12.988  0.00  0.00    -0.019 C 
ATOM     12  C   UNL     1      38.259 -24.920 -13.565  0.00  0.00    +0.007 C 
ATOM     13  C   UNL     1      37.191 -26.036 -13.343  0.00  0.00    +0.059 C 
ATOM     14  C   UNL     1      33.046 -23.340 -15.976  0.00  0.00    -0.005 C 
ATOM     15  C   UNL     1      32.138 -23.767 -14.978  0.00  0.00    +0.044 C 
ATOM     16  C   UNL     1      32.610 -22.763 -17.155  0.00  0.00    -0.003 C 
ATOM     17  C   UNL     1      32.128 -24.408 -12.581  0.00  0.00    +0.112 C 
ATOM     18  C   UNL     1      30.773 -23.626 -15.179  0.00  0.00    +0.014 C 
ATOM     19  C   UNL     1      31.236 -22.609 -17.344  0.00  0.00    -0.000 C 
ATOM     20  C   UNL     1      30.326 -23.041 -16.368  0.00  0.00    +0.001 C 
ATOM     21  H   UNL     1      35.204 -26.407 -13.826  0.00  0.00    -0.076 HD
ENDROOT
BRANCH  13  22
ATOM     22  O   UNL     1      37.106 -26.331 -11.946  0.00  0.00    -0.405 OA
ATOM     23  H   UNL     1      36.854 -27.260 -11.827  0.00  0.00    +0.208 HD
ENDBRANCH  13  22
BRANCH  12  24
ATOM     24  C   UNL     1      39.375 -25.357 -14.516  0.00  0.00    +0.000 C 
ATOM     25  C   UNL     1      40.473 -26.093 -13.776  0.00  0.00    +0.000 C 
ENDBRANCH  12  24
BRANCH   9  26
ATOM     26  O   UNL     1      35.840 -22.637 -17.210  0.00  0.00    -0.451 OA
BRANCH  26  28
ATOM     27  O   UNL     1      37.480 -21.077 -16.771  0.00  0.00    -0.249 OA
ATOM     28  C   UNL     1      36.708 -21.630 -17.542  0.00  0.00    +0.334 C 
BRANCH  28  30
ATOM     29 CL   UNL     1      35.067 -22.062 -19.630  0.00  0.00    -0.101 Cl
ATOM     30  C   UNL     1      36.551 -21.324 -19.008  0.00  0.00    +0.204 C 
ENDBRANCH  28  30
ENDBRANCH  26  28
ENDBRANCH   9  26
TORSDOF 5
ENDMDL
MODEL 2
REMARK VINA RESULT:      -8.1     14.150     17.677
REMARK  Name = 76957773
REMARK  5 active torsions:
REMARK  status: ('A' for Active; 'I' for Inactive)
REMARK    1  A    between atoms: C_9  and  O_26
REMARK    2  A    between atoms: C_12  and  C_24
REMARK    3  A    between atoms: C_13  and  O_22
REMARK    4  A    between atoms: O_26  and  C_28
REMARK    5  A    between atoms: C_28  and  C_30
REMARK                            x       y       z     vdW  Elec       q    Type
REMARK                         _______ _______ _______ _____ _____    ______ ____
ROOT
ATOM      1  N   UNL     1      32.450  -7.667 -24.550  0.00  0.00    +0.408 N 
ATOM      2  N   UNL     1      33.998 -10.621 -24.833  0.00  0.00    -0.309 N 
ATOM      3  C   UNL     1      32.591 -10.097 -22.958  0.00  0.00    +0.070 C 
ATOM      4  C   UNL     1      31.955  -7.910 -22.114  0.00  0.00    +0.022 C 
ATOM      5  C   UNL     1      31.440  -8.154 -23.570  0.00  0.00    -0.050 C 
ATOM      6  C   UNL     1      33.812  -8.138 -24.138  0.00  0.00    -0.036 C 
ATOM      7  C   UNL     1      33.032  -6.788 -22.183  0.00  0.00    -0.000 C 
ATOM      8  C   UNL     1      33.860  -9.637 -23.746  0.00  0.00    +0.061 C 
ATOM      9  C   UNL     1      32.480  -9.304 -21.643  0.00  0.00    +0.172 C 
ATOM     10  C   UNL     1      31.331  -9.659 -23.710  0.00  0.00    -0.011 C 
ATOM     11  C   UNL     1      34.282  -7.317 -22.904  0.00  0.00    -0.019 C 
ATOM     12  C   UNL     1      32.538  -5.621 -23.086  0.00  0.00    +0.007 C 
ATOM     13  C   UNL     1      32.368  -6.180 -24.534  0.00  0.00    +0.059 C 
ATOM     14  C   UNL     1      32.775 -11.573 -23.075  0.00  0.00    -0.005 C 
ATOM     15  C   UNL     1      33.562 -11.822 -24.224  0.00  0.00    +0.044 C 
ATOM     16  C   UNL     1      32.258 -12.605 -22.312  0.00  0.00    -0.003 C 
ATOM     17  C   UNL     1      35.127 -10.631 -25.737  0.00  0.00    +0.112 C 
ATOM     18  C   UNL     1      33.819 -13.128 -24.618  0.00  0.00    +0.014 C 
ATOM     19  C   UNL     1      32.532 -13.916 -22.705  0.00  0.00    -0.000 C 
ATOM     20  C   UNL     1      33.302 -14.175 -23.849  0.00  0.00    +0.001 C 
ATOM     21  H   UNL     1      32.273  -8.023 -25.489  0.00  0.00    -0.076 HD
ENDROOT
BRANCH  13  22
ATOM     22  O   UNL     1      33.343  -5.574 -25.386  0.00  0.00    -0.405 OA
ATOM     23  H   UNL     1      34.067  -6.199 -25.545  0.00  0.00    +0.208 HD
ENDBRANCH  13  22
BRANCH  12  24
ATOM     24  C   UNL     1      31.262  -4.963 -22.559  0.00  0.00    +0.000 C 
ATOM     25  C   UNL     1      31.099  -3.560 -23.106  0.00  0.00    +0.000 C 
ENDBRANCH  12  24
BRANCH   9  26
ATOM     26  O   UNL     1      31.481  -9.861 -20.792  0.00  0.00    -0.451 OA
BRANCH  26  28
ATOM     27  O   UNL     1      31.859  -8.426 -19.027  0.00  0.00    -0.249 OA
ATOM     28  C   UNL     1      31.580  -9.534 -19.465  0.00  0.00    +0.334 C 
BRANCH  28  30
ATOM     29 CL   UNL     1      31.862 -12.210 -19.488  0.00  0.00    -0.101 Cl
ATOM     30  C   UNL     1      31.289 -10.762 -18.645  0.00  0.00    +0.204 C 
ENDBRANCH  28  30
ENDBRANCH  26  28
ENDBRANCH   9  26
TORSDOF 5
ENDMDL
MODEL 3
REMARK VINA RESULT:      -7.4      2.394      5.728
REMARK  Name = 76957773
REMARK  5 active torsions:
REMARK  status: ('A' for Active; 'I' for Inactive)
REMARK    1  A    between atoms: C_9  and  O_26
REMARK    2  A    between atoms: C_12  and  C_24
REMARK    3  A    between atoms: C_13  and  O_22
REMARK    4  A    between atoms: O_26  and  C_28
REMARK    5  A    between atoms: C_28  and  C_30
REMARK                            x       y       z     vdW  Elec       q    Type
REMARK                         _______ _______ _______ _____ _____    ______ ____
ROOT
ATOM      1  N   UNL     1      31.743 -23.432 -13.620  0.00  0.00    +0.408 N 
ATOM      2  N   UNL     1      35.007 -24.165 -13.716  0.00  0.00    -0.309 N 
ATOM      3  C   UNL     1      33.860 -23.216 -15.601  0.00  0.00    +0.070 C 
ATOM      4  C   UNL     1      31.483 -23.256 -16.097  0.00  0.00    +0.022 C 
ATOM      5  C   UNL     1      31.797 -22.490 -14.771  0.00  0.00    -0.050 C 
ATOM      6  C   UNL     1      32.487 -24.686 -13.966  0.00  0.00    -0.036 C 
ATOM      7  C   UNL     1      30.705 -24.550 -15.715  0.00  0.00    -0.000 C 
ATOM      8  C   UNL     1      33.871 -24.429 -14.616  0.00  0.00    +0.061 C 
ATOM      9  C   UNL     1      32.880 -23.494 -16.756  0.00  0.00    +0.172 C 
ATOM     10  C   UNL     1      33.224 -22.002 -14.918  0.00  0.00    -0.011 C 
ATOM     11  C   UNL     1      31.645 -25.516 -14.975  0.00  0.00    -0.019 C 
ATOM     12  C   UNL     1      29.597 -24.224 -14.671  0.00  0.00    +0.007 C 
ATOM     13  C   UNL     1      30.301 -23.715 -13.374  0.00  0.00    +0.059 C 
ATOM     14  C   UNL     1      35.333 -23.019 -15.736  0.00  0.00    -0.005 C 
ATOM     15  C   UNL     1      35.948 -23.547 -14.575  0.00  0.00    +0.044 C 
ATOM     16  C   UNL     1      36.068 -22.387 -16.722  0.00  0.00    -0.003 C 
ATOM     17  C   UNL     1      35.446 -25.113 -12.716  0.00  0.00    +0.112 C 
ATOM     18  C   UNL     1      37.318 -23.420 -14.399  0.00  0.00    +0.014 C 
ATOM     19  C   UNL     1      37.449 -22.277 -16.546  0.00  0.00    -0.000 C 
ATOM     20  C   UNL     1      38.067 -22.785 -15.394  0.00  0.00    +0.001 C 
ATOM     21  H   UNL     1      32.175 -23.039 -12.784  0.00  0.00    -0.076 HD
ENDROOT
BRANCH  13  22
ATOM     22  O   UNL     1      30.105 -24.671 -12.329  0.00  0.00    -0.405 OA
ATOM     23  H   UNL     1      30.368 -25.550 -12.643  0.00  0.00    +0.208 HD
ENDBRANCH  13  22
BRANCH  12  24
ATOM     24  C   UNL     1      28.557 -23.236 -15.201  0.00  0.00    +0.000 C 
ATOM     25  C   UNL     1      28.098 -23.614 -16.595  0.00  0.00    +0.000 C 
ENDBRANCH  12  24
BRANCH   9  26
ATOM     26  O   UNL     1      33.022 -22.526 -17.793  0.00  0.00    -0.451 OA
BRANCH  26  28
ATOM     27  O   UNL     1      33.848 -24.113 -19.246  0.00  0.00    -0.249 OA
ATOM     28  C   UNL     1      33.690 -22.947 -18.912  0.00  0.00    +0.334 C 
BRANCH  28  30
ATOM     29 CL   UNL     1      32.889 -20.553 -19.843  0.00  0.00    -0.101 Cl
ATOM     30  C   UNL     1      34.191 -21.738 -19.656  0.00  0.00    +0.204 C 
ENDBRANCH  28  30
ENDBRANCH  26  28
ENDBRANCH   9  26
TORSDOF 5
ENDMDL
