MODEL 1
REMARK VINA RESULT:      -9.3      0.000      0.000
REMARK  Name = 6238
REMARK  2 active torsions:
REMARK  status: ('A' for Active; 'I' for Inactive)
REMARK    1  A    between atoms: C_6  and  C_22
REMARK    2  A    between atoms: C_6  and  O_24
REMARK                            x       y       z     vdW  Elec       q    Type
REMARK                         _______ _______ _______ _____ _____    ______ ____
ROOT
ATOM      1  O   UNL     1      39.869 -26.111 -13.879  0.00  0.00    -0.291 OA
ATOM      2  C   UNL     1      31.792 -23.761 -14.845  0.00  0.00    +0.029 C 
ATOM      3  C   UNL     1      32.921 -23.637 -15.894  0.00  0.00    +0.003 C 
ATOM      4  C   UNL     1      34.292 -23.348 -15.271  0.00  0.00    +0.001 C 
ATOM      5  C   UNL     1      34.658 -24.506 -14.291  0.00  0.00    +0.003 C 
ATOM      6  C   UNL     1      30.578 -23.946 -15.791  0.00  0.00    +0.139 C 
ATOM      7  C   UNL     1      36.076 -24.320 -13.625  0.00  0.00    +0.016 C 
ATOM      8  C   UNL     1      32.138 -24.951 -13.935  0.00  0.00    +0.003 C 
ATOM      9  C   UNL     1      33.518 -24.783 -13.274  0.00  0.00    +0.000 C 
ATOM     10  C   UNL     1      32.356 -22.646 -16.909  0.00  0.00    +0.003 C 
ATOM     11  C   UNL     1      30.846 -22.960 -16.951  0.00  0.00    +0.034 C 
ATOM     12  C   UNL     1      35.378 -23.209 -16.347  0.00  0.00    +0.004 C 
ATOM     13  C   UNL     1      31.609 -22.481 -13.982  0.00  0.00    +0.003 C 
ATOM     14  C   UNL     1      37.115 -24.009 -14.711  0.00  0.00    -0.042 C 
ATOM     15  C   UNL     1      36.743 -22.950 -15.722  0.00  0.00    +0.022 C 
ATOM     16  C   UNL     1      36.451 -25.642 -12.894  0.00  0.00    +0.012 C 
ATOM     17  C   UNL     1      36.087 -23.162 -12.601  0.00  0.00    +0.004 C 
ATOM     18  C   UNL     1      37.925 -25.743 -12.532  0.00  0.00    +0.069 C 
ATOM     19  C   UNL     1      38.319 -24.600 -14.791  0.00  0.00    +0.029 C 
ATOM     20  C   UNL     1      38.780 -25.554 -13.756  0.00  0.00    +0.173 C 
ENDROOT
BRANCH   6  22
ATOM     21  O   UNL     1      28.775 -24.571 -14.359  0.00  0.00    -0.294 OA
ATOM     22  C   UNL     1      29.251 -23.736 -15.126  0.00  0.00    +0.175 C 
ATOM     23  C   UNL     1      28.531 -22.453 -15.440  0.00  0.00    +0.075 C 
ENDBRANCH   6  22
BRANCH   6  24
ATOM     24  O   UNL     1      30.528 -25.273 -16.304  0.00  0.00    -0.380 OA
ATOM     25  H   UNL     1      31.386 -25.704 -16.172  0.00  0.00    +0.211 HD
ENDBRANCH   6  24
TORSDOF 2
ENDMDL
MODEL 2
REMARK VINA RESULT:      -8.8      3.329      6.748
REMARK  Name = 6238
REMARK  2 active torsions:
REMARK  status: ('A' for Active; 'I' for Inactive)
REMARK    1  A    between atoms: C_6  and  C_22
REMARK    2  A    between atoms: C_6  and  O_24
REMARK                            x       y       z     vdW  Elec       q    Type
REMARK                         _______ _______ _______ _____ _____    ______ ____
ROOT
ATOM      1  O   UNL     1      33.415 -18.999 -21.365  0.00  0.00    -0.291 OA
ATOM      2  C   UNL     1      35.665 -23.909 -14.843  0.00  0.00    +0.029 C 
ATOM      3  C   UNL     1      36.550 -22.864 -15.560  0.00  0.00    +0.003 C 
ATOM      4  C   UNL     1      36.255 -22.752 -17.060  0.00  0.00    +0.001 C 
ATOM      5  C   UNL     1      34.761 -22.345 -17.254  0.00  0.00    +0.003 C 
ATOM      6  C   UNL     1      36.275 -23.834 -13.420  0.00  0.00    +0.139 C 
ATOM      7  C   UNL     1      34.367 -22.166 -18.771  0.00  0.00    +0.016 C 
ATOM      8  C   UNL     1      34.204 -23.450 -14.986  0.00  0.00    +0.003 C 
ATOM      9  C   UNL     1      33.802 -23.274 -16.462  0.00  0.00    +0.000 C 
ATOM     10  C   UNL     1      37.964 -23.233 -15.119  0.00  0.00    +0.003 C 
ATOM     11  C   UNL     1      37.797 -23.720 -13.665  0.00  0.00    +0.034 C 
ATOM     12  C   UNL     1      37.171 -21.723 -17.736  0.00  0.00    +0.004 C 
ATOM     13  C   UNL     1      35.818 -25.345 -15.417  0.00  0.00    +0.003 C 
ATOM     14  C   UNL     1      35.400 -21.269 -19.466  0.00  0.00    -0.042 C 
ATOM     15  C   UNL     1      36.854 -21.595 -19.221  0.00  0.00    +0.022 C 
ATOM     16  C   UNL     1      32.959 -21.503 -18.837  0.00  0.00    +0.012 C 
ATOM     17  C   UNL     1      34.318 -23.517 -19.520  0.00  0.00    +0.004 C 
ATOM     18  C   UNL     1      32.616 -20.934 -20.204  0.00  0.00    +0.069 C 
ATOM     19  C   UNL     1      35.083 -20.249 -20.281  0.00  0.00    +0.029 C 
ATOM     20  C   UNL     1      33.677 -19.965 -20.651  0.00  0.00    +0.173 C 
ENDROOT
BRANCH   6  22
ATOM     21  O   UNL     1      34.805 -25.034 -11.973  0.00  0.00    -0.294 OA
ATOM     22  C   UNL     1      35.898 -24.984 -12.535  0.00  0.00    +0.175 C 
ATOM     23  C   UNL     1      36.920 -26.075 -12.370  0.00  0.00    +0.075 C 
ENDBRANCH   6  22
BRANCH   6  24
ATOM     24  O   UNL     1      35.821 -22.673 -12.730  0.00  0.00    -0.380 OA
ATOM     25  H   UNL     1      34.918 -22.820 -12.409  0.00  0.00    +0.211 HD
ENDBRANCH   6  24
TORSDOF 2
ENDMDL
MODEL 3
REMARK VINA RESULT:      -8.1     10.456     13.147
REMARK  Name = 6238
REMARK  2 active torsions:
REMARK  status: ('A' for Active; 'I' for Inactive)
REMARK    1  A    between atoms: C_6  and  C_22
REMARK    2  A    between atoms: C_6  and  O_24
REMARK                            x       y       z     vdW  Elec       q    Type
REMARK                         _______ _______ _______ _____ _____    ______ ____
ROOT
ATOM      1  O   UNL     1      34.190 -10.202 -25.784  0.00  0.00    -0.291 OA
ATOM      2  C   UNL     1      34.733 -17.738 -21.961  0.00  0.00    +0.029 C 
ATOM      3  C   UNL     1      34.791 -17.468 -23.482  0.00  0.00    +0.003 C 
ATOM      4  C   UNL     1      33.907 -16.294 -23.921  0.00  0.00    +0.001 C 
ATOM      5  C   UNL     1      34.371 -15.004 -23.175  0.00  0.00    +0.003 C 
ATOM      6  C   UNL     1      35.630 -19.000 -21.887  0.00  0.00    +0.139 C 
ATOM      7  C   UNL     1      33.544 -13.726 -23.590  0.00  0.00    +0.016 C 
ATOM      8  C   UNL     1      35.261 -16.481 -21.251  0.00  0.00    +0.003 C 
ATOM      9  C   UNL     1      34.461 -15.225 -21.641  0.00  0.00    +0.000 C 
ATOM     10  C   UNL     1      34.539 -18.843 -24.097  0.00  0.00    +0.003 C 
ATOM     11  C   UNL     1      35.225 -19.827 -23.128  0.00  0.00    +0.034 C 
ATOM     12  C   UNL     1      33.977 -16.077 -25.438  0.00  0.00    +0.004 C 
ATOM     13  C   UNL     1      33.303 -18.065 -21.447  0.00  0.00    +0.003 C 
ATOM     14  C   UNL     1      33.482 -13.630 -25.120  0.00  0.00    -0.042 C 
ATOM     15  C   UNL     1      33.119 -14.893 -25.865  0.00  0.00    +0.022 C 
ATOM     16  C   UNL     1      34.256 -12.471 -23.007  0.00  0.00    +0.012 C 
ATOM     17  C   UNL     1      32.096 -13.775 -23.051  0.00  0.00    +0.004 C 
ATOM     18  C   UNL     1      33.794 -11.163 -23.628  0.00  0.00    +0.069 C 
ATOM     19  C   UNL     1      33.706 -12.500 -25.811  0.00  0.00    +0.029 C 
ATOM     20  C   UNL     1      33.946 -11.210 -25.125  0.00  0.00    +0.173 C 
ENDROOT
BRANCH   6  22
ATOM     21  O   UNL     1      36.406 -19.754 -19.760  0.00  0.00    -0.294 OA
ATOM     22  C   UNL     1      35.507 -19.759 -20.600  0.00  0.00    +0.175 C 
ATOM     23  C   UNL     1      34.229 -20.523 -20.383  0.00  0.00    +0.075 C 
ENDBRANCH   6  22
BRANCH   6  24
ATOM     24  O   UNL     1      37.008 -18.654 -21.981  0.00  0.00    -0.380 OA
ATOM     25  H   UNL     1      37.540 -19.307 -21.501  0.00  0.00    +0.211 HD
ENDBRANCH   6  24
TORSDOF 2
ENDMDL
MODEL 4
REMARK VINA RESULT:      -7.9     14.019     16.209
REMARK  Name = 6238
REMARK  2 active torsions:
REMARK  status: ('A' for Active; 'I' for Inactive)
REMARK    1  A    between atoms: C_6  and  C_22
REMARK    2  A    between atoms: C_6  and  O_24
REMARK                            x       y       z     vdW  Elec       q    Type
REMARK                         _______ _______ _______ _____ _____    ______ ____
ROOT
ATOM      1  O   UNL     1      34.246 -16.950 -21.045  0.00  0.00    -0.291 OA
ATOM      2  C   UNL     1      33.206  -8.936 -23.571  0.00  0.00    +0.029 C 
ATOM      3  C   UNL     1      32.880  -9.513 -22.175  0.00  0.00    +0.003 C 
ATOM      4  C   UNL     1      32.388 -10.964 -22.222  0.00  0.00    +0.001 C 
ATOM      5  C   UNL     1      33.492 -11.853 -22.875  0.00  0.00    +0.003 C 
ATOM      6  C   UNL     1      33.564  -7.480 -23.174  0.00  0.00    +0.139 C 
ATOM      7  C   UNL     1      33.094 -13.379 -22.935  0.00  0.00    +0.016 C 
ATOM      8  C   UNL     1      34.344  -9.782 -24.165  0.00  0.00    +0.003 C 
ATOM      9  C   UNL     1      33.970 -11.275 -24.235  0.00  0.00    +0.000 C 
ATOM     10  C   UNL     1      31.973  -8.453 -21.555  0.00  0.00    +0.003 C 
ATOM     11  C   UNL     1      32.524  -7.116 -22.090  0.00  0.00    +0.034 C 
ATOM     12  C   UNL     1      32.054 -11.488 -20.819  0.00  0.00    +0.004 C 
ATOM     13  C   UNL     1      31.991  -8.943 -24.540  0.00  0.00    +0.003 C 
ATOM     14  C   UNL     1      32.598 -13.833 -21.556  0.00  0.00    -0.042 C 
ATOM     15  C   UNL     1      31.592 -12.939 -20.869  0.00  0.00    +0.022 C 
ATOM     16  C   UNL     1      34.354 -14.198 -23.342  0.00  0.00    +0.012 C 
ATOM     17  C   UNL     1      31.971 -13.643 -23.963  0.00  0.00    +0.004 C 
ATOM     18  C   UNL     1      34.224 -15.689 -23.079  0.00  0.00    +0.069 C 
ATOM     19  C   UNL     1      32.986 -14.970 -20.955  0.00  0.00    +0.029 C 
ATOM     20  C   UNL     1      33.874 -15.939 -21.636  0.00  0.00    +0.173 C 
ENDROOT
BRANCH   6  22
ATOM     21  O   UNL     1      34.527  -6.483 -25.117  0.00  0.00    -0.294 OA
ATOM     22  C   UNL     1      33.585  -6.523 -24.327  0.00  0.00    +0.175 C 
ATOM     23  C   UNL     1      32.395  -5.614 -24.474  0.00  0.00    +0.075 C 
ENDBRANCH   6  22
BRANCH   6  24
ATOM     24  O   UNL     1      34.872  -7.411 -22.614  0.00  0.00    -0.380 OA
ATOM     25  H   UNL     1      34.902  -7.932 -21.797  0.00  0.00    +0.211 HD
ENDBRANCH   6  24
TORSDOF 2
ENDMDL
MODEL 5
REMARK VINA RESULT:      -7.5     20.170     22.364
REMARK  Name = 6238
REMARK  2 active torsions:
REMARK  status: ('A' for Active; 'I' for Inactive)
REMARK    1  A    between atoms: C_6  and  C_22
REMARK    2  A    between atoms: C_6  and  O_24
REMARK                            x       y       z     vdW  Elec       q    Type
REMARK                         _______ _______ _______ _____ _____    ______ ____
ROOT
ATOM      1  O   UNL     1      32.366  -7.818 -19.415  0.00  0.00    -0.291 OA
ATOM      2  C   UNL     1      33.430  -4.139 -26.967  0.00  0.00    +0.029 C 
ATOM      3  C   UNL     1      32.796  -3.500 -25.710  0.00  0.00    +0.003 C 
ATOM      4  C   UNL     1      32.016  -4.503 -24.852  0.00  0.00    +0.001 C 
ATOM      5  C   UNL     1      32.984  -5.637 -24.391  0.00  0.00    +0.003 C 
ATOM      6  C   UNL     1      34.032  -2.872 -27.627  0.00  0.00    +0.139 C 
ATOM      7  C   UNL     1      32.282  -6.704 -23.465  0.00  0.00    +0.016 C 
ATOM      8  C   UNL     1      34.431  -5.202 -26.487  0.00  0.00    +0.003 C 
ATOM      9  C   UNL     1      33.760  -6.255 -25.586  0.00  0.00    +0.000 C 
ATOM     10  C   UNL     1      32.059  -2.283 -26.263  0.00  0.00    +0.003 C 
ATOM     11  C   UNL     1      32.953  -1.786 -27.417  0.00  0.00    +0.034 C 
ATOM     12  C   UNL     1      31.385  -3.824 -23.630  0.00  0.00    +0.004 C 
ATOM     13  C   UNL     1      32.389  -4.795 -27.917  0.00  0.00    +0.003 C 
ATOM     14  C   UNL     1      31.512  -5.987 -22.349  0.00  0.00    -0.042 C 
ATOM     15  C   UNL     1      30.634  -4.830 -22.766  0.00  0.00    +0.022 C 
ATOM     16  C   UNL     1      33.381  -7.618 -22.850  0.00  0.00    +0.012 C 
ATOM     17  C   UNL     1      31.284  -7.584 -24.252  0.00  0.00    +0.004 C 
ATOM     18  C   UNL     1      32.899  -8.439 -21.664  0.00  0.00    +0.069 C 
ATOM     19  C   UNL     1      31.559  -6.343 -21.055  0.00  0.00    +0.029 C 
ATOM     20  C   UNL     1      32.306  -7.542 -20.611  0.00  0.00    +0.173 C 
ENDROOT
BRANCH   6  22
ATOM     21  O   UNL     1      33.720  -2.628 -29.980  0.00  0.00    -0.294 OA
ATOM     22  C   UNL     1      34.418  -3.059 -29.063  0.00  0.00    +0.175 C 
ATOM     23  C   UNL     1      35.701  -3.798 -29.329  0.00  0.00    +0.075 C 
ENDBRANCH   6  22
BRANCH   6  24
ATOM     24  O   UNL     1      35.233  -2.476 -26.971  0.00  0.00    -0.380 OA
ATOM     25  H   UNL     1      35.090  -2.469 -26.012  0.00  0.00    +0.211 HD
ENDBRANCH   6  24
TORSDOF 2
ENDMDL
MODEL 6
REMARK VINA RESULT:      -7.2      3.529      5.737
REMARK  Name = 6238
REMARK  2 active torsions:
REMARK  status: ('A' for Active; 'I' for Inactive)
REMARK    1  A    between atoms: C_6  and  C_22
REMARK    2  A    between atoms: C_6  and  O_24
REMARK                            x       y       z     vdW  Elec       q    Type
REMARK                         _______ _______ _______ _____ _____    ______ ____
ROOT
ATOM      1  O   UNL     1      36.149 -18.599 -21.616  0.00  0.00    -0.291 OA
ATOM      2  C   UNL     1      32.875 -23.599 -15.617  0.00  0.00    +0.029 C 
ATOM      3  C   UNL     1      34.249 -22.892 -15.581  0.00  0.00    +0.003 C 
ATOM      4  C   UNL     1      34.906 -22.779 -16.962  0.00  0.00    +0.001 C 
ATOM      5  C   UNL     1      33.963 -21.970 -17.907  0.00  0.00    +0.003 C 
ATOM      6  C   UNL     1      32.557 -23.628 -14.100  0.00  0.00    +0.139 C 
ATOM      7  C   UNL     1      34.570 -21.765 -19.348  0.00  0.00    +0.016 C 
ATOM      8  C   UNL     1      31.943 -22.748 -16.495  0.00  0.00    +0.003 C 
ATOM      9  C   UNL     1      32.519 -22.542 -17.908  0.00  0.00    +0.000 C 
ATOM     10  C   UNL     1      34.999 -23.629 -14.474  0.00  0.00    +0.003 C 
ATOM     11  C   UNL     1      33.910 -23.970 -13.435  0.00  0.00    +0.034 C 
ATOM     12  C   UNL     1      36.276 -22.093 -16.876  0.00  0.00    +0.004 C 
ATOM     13  C   UNL     1      32.941 -25.047 -16.179  0.00  0.00    +0.003 C 
ATOM     14  C   UNL     1      36.007 -21.241 -19.229  0.00  0.00    -0.042 C 
ATOM     15  C   UNL     1      36.911 -21.958 -18.254  0.00  0.00    +0.022 C 
ATOM     16  C   UNL     1      33.688 -20.730 -20.108  0.00  0.00    +0.012 C 
ATOM     17  C   UNL     1      34.601 -23.083 -20.155  0.00  0.00    +0.004 C 
ATOM     18  C   UNL     1      34.352 -20.159 -21.350  0.00  0.00    +0.069 C 
ATOM     19  C   UNL     1      36.496 -20.218 -19.949  0.00  0.00    +0.029 C 
ATOM     20  C   UNL     1      35.690 -19.561 -21.003  0.00  0.00    +0.173 C 
ENDROOT
BRANCH   6  22
ATOM     21  O   UNL     1      31.671 -25.588 -13.067  0.00  0.00    -0.294 OA
ATOM     22  C   UNL     1      31.455 -24.573 -13.727  0.00  0.00    +0.175 C 
ATOM     23  C   UNL     1      30.071 -24.218 -14.197  0.00  0.00    +0.075 C 
ENDBRANCH   6  22
BRANCH   6  24
ATOM     24  O   UNL     1      32.119 -22.351 -13.646  0.00  0.00    -0.380 OA
ATOM     25  H   UNL     1      32.519 -21.658 -14.193  0.00  0.00    +0.211 HD
ENDBRANCH   6  24
TORSDOF 2
ENDMDL
MODEL 7
REMARK VINA RESULT:      -7.0     14.496     17.148
REMARK  Name = 6238
REMARK  2 active torsions:
REMARK  status: ('A' for Active; 'I' for Inactive)
REMARK    1  A    between atoms: C_6  and  C_22
REMARK    2  A    between atoms: C_6  and  O_24
REMARK                            x       y       z     vdW  Elec       q    Type
REMARK                         _______ _______ _______ _____ _____    ______ ____
ROOT
ATOM      1  O   UNL     1      30.613  -4.467 -23.023  0.00  0.00    -0.291 OA
ATOM      2  C   UNL     1      33.268 -12.495 -23.464  0.00  0.00    +0.029 C 
ATOM      3  C   UNL     1      32.276 -11.907 -22.435  0.00  0.00    +0.003 C 
ATOM      4  C   UNL     1      32.589 -10.453 -22.059  0.00  0.00    +0.001 C 
ATOM      5  C   UNL     1      32.540  -9.574 -23.348  0.00  0.00    +0.003 C 
ATOM      6  C   UNL     1      32.734 -13.949 -23.537  0.00  0.00    +0.139 C 
ATOM      7  C   UNL     1      32.812  -8.047 -23.058  0.00  0.00    +0.016 C 
ATOM      8  C   UNL     1      33.150 -11.658 -24.748  0.00  0.00    +0.003 C 
ATOM      9  C   UNL     1      33.418 -10.165 -24.484  0.00  0.00    +0.000 C 
ATOM     10  C   UNL     1      32.246 -12.958 -21.329  0.00  0.00    +0.003 C 
ATOM     11  C   UNL     1      32.390 -14.301 -22.072  0.00  0.00    +0.034 C 
ATOM     12  C   UNL     1      31.596  -9.917 -21.019  0.00  0.00    +0.004 C 
ATOM     13  C   UNL     1      34.743 -12.490 -22.973  0.00  0.00    +0.003 C 
ATOM     14  C   UNL     1      31.927  -7.581 -21.895  0.00  0.00    -0.042 C 
ATOM     15  C   UNL     1      31.895  -8.465 -20.670  0.00  0.00    +0.022 C 
ATOM     16  C   UNL     1      32.471  -7.237 -24.343  0.00  0.00    +0.012 C 
ATOM     17  C   UNL     1      34.287  -7.785 -22.678  0.00  0.00    +0.004 C 
ATOM     18  C   UNL     1      32.327  -5.743 -24.102  0.00  0.00    +0.069 C 
ATOM     19  C   UNL     1      31.216  -6.441 -21.901  0.00  0.00    +0.029 C 
ATOM     20  C   UNL     1      31.308  -5.481 -23.025  0.00  0.00    +0.173 C 
ENDROOT
BRANCH   6  22
ATOM     21  O   UNL     1      34.619 -15.413 -23.544  0.00  0.00    -0.294 OA
ATOM     22  C   UNL     1      33.687 -14.915 -24.175  0.00  0.00    +0.175 C 
ATOM     23  C   UNL     1      33.446 -15.250 -25.621  0.00  0.00    +0.075 C 
ENDBRANCH   6  22
BRANCH   6  24
ATOM     24  O   UNL     1      31.552 -14.020 -24.329  0.00  0.00    -0.380 OA
ATOM     25  H   UNL     1      31.779 -14.318 -25.223  0.00  0.00    +0.211 HD
ENDBRANCH   6  24
TORSDOF 2
ENDMDL
MODEL 8
REMARK VINA RESULT:      -6.6     16.204     18.756
REMARK  Name = 6238
REMARK  2 active torsions:
REMARK  status: ('A' for Active; 'I' for Inactive)
REMARK    1  A    between atoms: C_6  and  C_22
REMARK    2  A    between atoms: C_6  and  O_24
REMARK                            x       y       z     vdW  Elec       q    Type
REMARK                         _______ _______ _______ _____ _____    ______ ____
ROOT
ATOM      1  O   UNL     1      30.082  -2.367 -24.157  0.00  0.00    -0.291 OA
ATOM      2  C   UNL     1      31.994 -10.353 -22.091  0.00  0.00    +0.029 C 
ATOM      3  C   UNL     1      31.685  -9.196 -21.114  0.00  0.00    +0.003 C 
ATOM      4  C   UNL     1      32.172  -7.833 -21.621  0.00  0.00    +0.001 C 
ATOM      5  C   UNL     1      31.479  -7.522 -22.984  0.00  0.00    +0.003 C 
ATOM      6  C   UNL     1      31.475 -11.548 -21.251  0.00  0.00    +0.139 C 
ATOM      7  C   UNL     1      31.887  -6.116 -23.572  0.00  0.00    +0.016 C 
ATOM      8  C   UNL     1      31.245 -10.061 -23.401  0.00  0.00    +0.003 C 
ATOM      9  C   UNL     1      31.635  -8.694 -23.991  0.00  0.00    +0.000 C 
ATOM     10  C   UNL     1      32.212  -9.709 -19.776  0.00  0.00    +0.003 C 
ATOM     11  C   UNL     1      31.930 -11.225 -19.809  0.00  0.00    +0.034 C 
ATOM     12  C   UNL     1      31.866  -6.718 -20.611  0.00  0.00    +0.004 C 
ATOM     13  C   UNL     1      33.511 -10.523 -22.385  0.00  0.00    +0.003 C 
ATOM     14  C   UNL     1      31.737  -5.044 -22.486  0.00  0.00    -0.042 C 
ATOM     15  C   UNL     1      32.327  -5.362 -21.132  0.00  0.00    +0.022 C 
ATOM     16  C   UNL     1      30.946  -5.794 -24.770  0.00  0.00    +0.012 C 
ATOM     17  C   UNL     1      33.351  -6.100 -24.068  0.00  0.00    +0.004 C 
ATOM     18  C   UNL     1      30.972  -4.334 -25.191  0.00  0.00    +0.069 C 
ATOM     19  C   UNL     1      31.144  -3.854 -22.680  0.00  0.00    +0.029 C 
ATOM     20  C   UNL     1      30.659  -3.443 -24.018  0.00  0.00    +0.173 C 
ENDROOT
BRANCH   6  22
ATOM     21  O   UNL     1      31.849 -13.211 -22.921  0.00  0.00    -0.294 OA
ATOM     22  C   UNL     1      31.946 -12.885 -21.739  0.00  0.00    +0.175 C 
ATOM     23  C   UNL     1      32.546 -13.808 -20.713  0.00  0.00    +0.075 C 
ENDBRANCH   6  22
BRANCH   6  24
ATOM     24  O   UNL     1      30.053 -11.621 -21.291  0.00  0.00    -0.380 OA
ATOM     25  H   UNL     1      29.763 -11.800 -22.198  0.00  0.00    +0.211 HD
ENDBRANCH   6  24
TORSDOF 2
ENDMDL
