MODEL 1
REMARK VINA RESULT:      -8.6      0.000      0.000
REMARK  Name = 449379
REMARK  8 active torsions:
REMARK  status: ('A' for Active; 'I' for Inactive)
REMARK    1  A    between atoms: C_2  and  N_16
REMARK    2  A    between atoms: C_3  and  C_22
REMARK    3  A    between atoms: C_4  and  N_7
REMARK    4  A    between atoms: C_6  and  C_28
REMARK    5  A    between atoms: N_7  and  C_10
REMARK    6  A    between atoms: N_21  and  C_24
REMARK    7  A    between atoms: C_24  and  C_25
REMARK    8  A    between atoms: C_28  and  O_29
REMARK                            x       y       z     vdW  Elec       q    Type
REMARK                         _______ _______ _______ _____ _____    ______ ____
ROOT
ATOM      1  O   UNL     1      35.954 -22.815 -13.299  0.00  0.00    -0.462 OA
ATOM      2  C   UNL     1      35.192 -24.673 -14.784  0.00  0.00    +0.148 C 
ATOM      3  C   UNL     1      35.459 -23.174 -14.589  0.00  0.00    +0.261 C 
ATOM      4  C   UNL     1      36.359 -25.548 -14.304  0.00  0.00    +0.153 C 
ATOM      5  C   UNL     1      37.039 -24.961 -13.107  0.00  0.00    +0.043 C 
ATOM      6  C   UNL     1      36.793 -23.712 -12.687  0.00  0.00    +0.212 C 
ENDROOT
BRANCH   2   8
ATOM      7  O   UNL     1      32.512 -23.643 -15.238  0.00  0.00    -0.275 OA
ATOM      8  N   UNL     1      33.974 -25.039 -14.085  0.00  0.00    -0.300 N 
ATOM      9  C   UNL     1      32.738 -24.489 -14.377  0.00  0.00    +0.223 C 
ATOM     10  C   UNL     1      31.642 -25.064 -13.520  0.00  0.00    +0.095 C 
ATOM     11  H   UNL     1      34.030 -25.713 -13.369  0.00  0.00    +0.150 HD
ENDBRANCH   2   8
BRANCH   3  14
ATOM     12  O   UNL     1      37.576 -22.400 -15.296  0.00  0.00    -0.271 OA
ATOM     13  N   UNL     1      35.899 -22.451 -16.904  0.00  0.00    -0.275 N 
ATOM     14  C   UNL     1      36.410 -22.641 -15.621  0.00  0.00    +0.268 C 
ATOM     15  C   UNL     1      34.513 -22.750 -17.244  0.00  0.00    +0.115 C 
BRANCH  13  16
ATOM     16  C   UNL     1      36.714 -21.939 -18.004  0.00  0.00    +0.094 C 
BRANCH  16  17
ATOM     17  C   UNL     1      35.885 -21.621 -19.243  0.00  0.00    +0.022 C 
ATOM     18  C   UNL     1      36.493 -20.511 -20.088  0.00  0.00    +0.002 C 
ENDBRANCH  16  17
ENDBRANCH  13  16
ENDBRANCH   3  14
BRANCH   6  20
ATOM     19  O   UNL     1      36.919 -23.009 -10.419  0.00  0.00    -0.242 OA
ATOM     20  C   UNL     1      37.475 -23.258 -11.474  0.00  0.00    +0.372 C 
BRANCH  20  21
ATOM     21  O   UNL     1      38.801 -23.161 -11.709  0.00  0.00    -0.475 OA
ATOM     22  H   UNL     1      39.286 -23.917 -11.976  0.00  0.00    +0.296 HD
ENDBRANCH  20  21
ENDBRANCH   6  20
BRANCH   4  23
ATOM     23  N   UNL     1      37.340 -25.678 -15.389  0.00  0.00    -0.236 NA
BRANCH  23  26
ATOM     24  N   UNL     1      39.245 -26.561 -14.221  0.00  0.00    -0.370 N 
ATOM     25  N   UNL     1      39.430 -24.694 -15.516  0.00  0.00    -0.370 N 
ATOM     26  C   UNL     1      38.587 -25.673 -15.045  0.00  0.00    +0.189 C 
ATOM     27  H   UNL     1      38.754 -27.311 -13.816  0.00  0.00    +0.159 HD
ATOM     28  H   UNL     1      40.205 -26.444 -14.039  0.00  0.00    +0.159 HD
ATOM     29  H   UNL     1      39.085 -23.994 -16.116  0.00  0.00    +0.159 HD
ATOM     30  H   UNL     1      40.379 -24.692 -15.253  0.00  0.00    +0.159 HD
ENDBRANCH  23  26
ENDBRANCH   4  23
TORSDOF 8
ENDMDL
MODEL 2
REMARK VINA RESULT:      -8.5      2.573      5.083
REMARK  Name = 449379
REMARK  8 active torsions:
REMARK  status: ('A' for Active; 'I' for Inactive)
REMARK    1  A    between atoms: C_2  and  N_16
REMARK    2  A    between atoms: C_3  and  C_22
REMARK    3  A    between atoms: C_4  and  N_7
REMARK    4  A    between atoms: C_6  and  C_28
REMARK    5  A    between atoms: N_7  and  C_10
REMARK    6  A    between atoms: N_21  and  C_24
REMARK    7  A    between atoms: C_24  and  C_25
REMARK    8  A    between atoms: C_28  and  O_29
REMARK                            x       y       z     vdW  Elec       q    Type
REMARK                         _______ _______ _______ _____ _____    ______ ____
ROOT
ATOM      1  O   UNL     1      35.487 -25.152 -15.891  0.00  0.00    -0.462 OA
ATOM      2  C   UNL     1      35.674 -22.752 -15.227  0.00  0.00    +0.148 C 
ATOM      3  C   UNL     1      34.785 -23.937 -15.627  0.00  0.00    +0.261 C 
ATOM      4  C   UNL     1      36.699 -23.121 -14.145  0.00  0.00    +0.153 C 
ATOM      5  C   UNL     1      37.187 -24.528 -14.297  0.00  0.00    +0.043 C 
ATOM      6  C   UNL     1      36.602 -25.400 -15.129  0.00  0.00    +0.212 C 
ENDROOT
BRANCH   2   8
ATOM      7  O   UNL     1      34.625 -22.554 -17.930  0.00  0.00    -0.275 OA
ATOM      8  N   UNL     1      36.354 -22.242 -16.403  0.00  0.00    -0.300 N 
ATOM      9  C   UNL     1      35.765 -22.188 -17.654  0.00  0.00    +0.223 C 
ATOM     10  C   UNL     1      36.681 -21.593 -18.690  0.00  0.00    +0.095 C 
ATOM     11  H   UNL     1      37.278 -21.917 -16.306  0.00  0.00    +0.150 HD
ENDBRANCH   2   8
BRANCH   3  14
ATOM     12  O   UNL     1      34.065 -24.761 -13.534  0.00  0.00    -0.271 OA
ATOM     13  N   UNL     1      32.431 -23.837 -14.904  0.00  0.00    -0.275 N 
ATOM     14  C   UNL     1      33.736 -24.218 -14.591  0.00  0.00    +0.268 C 
ATOM     15  C   UNL     1      32.086 -23.196 -16.167  0.00  0.00    +0.115 C 
BRANCH  13  16
ATOM     16  C   UNL     1      31.313 -24.050 -13.987  0.00  0.00    +0.094 C 
BRANCH  16  17
ATOM     17  C   UNL     1      30.485 -25.275 -14.356  0.00  0.00    +0.022 C 
ATOM     18  C   UNL     1      29.103 -24.915 -14.882  0.00  0.00    +0.002 C 
ENDBRANCH  16  17
ENDBRANCH  13  16
ENDBRANCH   3  14
BRANCH   6  20
ATOM     19  O   UNL     1      37.989 -27.206 -14.444  0.00  0.00    -0.242 OA
ATOM     20  C   UNL     1      37.194 -26.734 -15.238  0.00  0.00    +0.372 C 
BRANCH  20  21
ATOM     21  O   UNL     1      36.725 -27.350 -16.344  0.00  0.00    -0.475 OA
ATOM     22  H   UNL     1      35.849 -27.685 -16.358  0.00  0.00    +0.296 HD
ENDBRANCH  20  21
ENDBRANCH   6  20
BRANCH   4  23
ATOM     23  N   UNL     1      36.075 -22.978 -12.823  0.00  0.00    -0.236 NA
BRANCH  23  26
ATOM     24  N   UNL     1      37.985 -23.464 -11.449  0.00  0.00    -0.370 N 
ATOM     25  N   UNL     1      35.964 -24.428 -11.024  0.00  0.00    -0.370 N 
ATOM     26  C   UNL     1      36.667 -23.570 -11.836  0.00  0.00    +0.189 C 
ATOM     27  H   UNL     1      38.598 -22.879 -11.949  0.00  0.00    +0.159 HD
ATOM     28  H   UNL     1      38.312 -23.972 -10.672  0.00  0.00    +0.159 HD
ATOM     29  H   UNL     1      35.009 -24.594 -11.192  0.00  0.00    +0.159 HD
ATOM     30  H   UNL     1      36.416 -24.878 -10.273  0.00  0.00    +0.159 HD
ENDBRANCH  23  26
ENDBRANCH   4  23
TORSDOF 8
ENDMDL
MODEL 3
REMARK VINA RESULT:      -7.5      2.226      4.386
REMARK  Name = 449379
REMARK  8 active torsions:
REMARK  status: ('A' for Active; 'I' for Inactive)
REMARK    1  A    between atoms: C_2  and  N_16
REMARK    2  A    between atoms: C_3  and  C_22
REMARK    3  A    between atoms: C_4  and  N_7
REMARK    4  A    between atoms: C_6  and  C_28
REMARK    5  A    between atoms: N_7  and  C_10
REMARK    6  A    between atoms: N_21  and  C_24
REMARK    7  A    between atoms: C_24  and  C_25
REMARK    8  A    between atoms: C_28  and  O_29
REMARK                            x       y       z     vdW  Elec       q    Type
REMARK                         _______ _______ _______ _____ _____    ______ ____
ROOT
ATOM      1  O   UNL     1      37.108 -24.471 -15.518  0.00  0.00    -0.462 OA
ATOM      2  C   UNL     1      35.422 -23.265 -14.126  0.00  0.00    +0.148 C 
ATOM      3  C   UNL     1      36.328 -23.286 -15.364  0.00  0.00    +0.261 C 
ATOM      4  C   UNL     1      34.616 -24.562 -13.962  0.00  0.00    +0.153 C 
ATOM      5  C   UNL     1      35.387 -25.759 -14.423  0.00  0.00    +0.043 C 
ATOM      6  C   UNL     1      36.532 -25.648 -15.111  0.00  0.00    +0.212 C 
ENDROOT
BRANCH   2   8
ATOM      7  O   UNL     1      34.867 -24.119 -11.404  0.00  0.00    -0.275 OA
ATOM      8  N   UNL     1      36.229 -23.028 -12.944  0.00  0.00    -0.300 N 
ATOM      9  C   UNL     1      35.877 -23.480 -11.684  0.00  0.00    +0.223 C 
ATOM     10  C   UNL     1      36.903 -23.119 -10.642  0.00  0.00    +0.095 C 
ATOM     11  H   UNL     1      37.069 -22.523 -13.043  0.00  0.00    +0.150 HD
ENDBRANCH   2   8
BRANCH   3  14
ATOM     12  O   UNL     1      34.543 -23.762 -16.837  0.00  0.00    -0.271 OA
ATOM     13  N   UNL     1      36.017 -22.091 -17.498  0.00  0.00    -0.275 N 
ATOM     14  C   UNL     1      35.545 -23.074 -16.628  0.00  0.00    +0.268 C 
ATOM     15  C   UNL     1      37.207 -21.301 -17.211  0.00  0.00    +0.115 C 
BRANCH  13  16
ATOM     16  C   UNL     1      35.352 -21.781 -18.762  0.00  0.00    +0.094 C 
BRANCH  16  17
ATOM     17  C   UNL     1      36.298 -21.151 -19.777  0.00  0.00    +0.022 C 
ATOM     18  C   UNL     1      35.612 -20.120 -20.661  0.00  0.00    +0.002 C 
ENDBRANCH  16  17
ENDBRANCH  13  16
ENDBRANCH   3  14
BRANCH   6  20
ATOM     19  O   UNL     1      38.184 -27.341 -14.859  0.00  0.00    -0.242 OA
ATOM     20  C   UNL     1      37.231 -26.885 -15.467  0.00  0.00    +0.372 C 
BRANCH  20  21
ATOM     21  O   UNL     1      36.659 -27.431 -16.561  0.00  0.00    -0.475 OA
ATOM     22  H   UNL     1      36.926 -27.155 -17.417  0.00  0.00    +0.296 HD
ENDBRANCH  20  21
ENDBRANCH   6  20
BRANCH   4  23
ATOM     23  N   UNL     1      33.381 -24.464 -14.750  0.00  0.00    -0.236 NA
BRANCH  23  26
ATOM     24  N   UNL     1      31.906 -22.832 -13.785  0.00  0.00    -0.370 N 
ATOM     25  N   UNL     1      31.422 -25.056 -13.671  0.00  0.00    -0.370 N 
ATOM     26  C   UNL     1      32.314 -24.107 -14.112  0.00  0.00    +0.189 C 
ATOM     27  H   UNL     1      32.456 -22.058 -14.044  0.00  0.00    +0.159 HD
ATOM     28  H   UNL     1      31.064 -22.695 -13.294  0.00  0.00    +0.159 HD
ATOM     29  H   UNL     1      31.596 -26.010 -13.840  0.00  0.00    +0.159 HD
ATOM     30  H   UNL     1      30.610 -24.783 -13.185  0.00  0.00    +0.159 HD
ENDBRANCH  23  26
ENDBRANCH   4  23
TORSDOF 8
ENDMDL
MODEL 4
REMARK VINA RESULT:      -7.4      2.205      4.786
REMARK  Name = 449379
REMARK  8 active torsions:
REMARK  status: ('A' for Active; 'I' for Inactive)
REMARK    1  A    between atoms: C_2  and  N_16
REMARK    2  A    between atoms: C_3  and  C_22
REMARK    3  A    between atoms: C_4  and  N_7
REMARK    4  A    between atoms: C_6  and  C_28
REMARK    5  A    between atoms: N_7  and  C_10
REMARK    6  A    between atoms: N_21  and  C_24
REMARK    7  A    between atoms: C_24  and  C_25
REMARK    8  A    between atoms: C_28  and  O_29
REMARK                            x       y       z     vdW  Elec       q    Type
REMARK                         _______ _______ _______ _____ _____    ______ ____
ROOT
ATOM      1  O   UNL     1      35.199 -22.026 -15.440  0.00  0.00    -0.462 OA
ATOM      2  C   UNL     1      35.248 -23.955 -13.854  0.00  0.00    +0.148 C 
ATOM      3  C   UNL     1      34.427 -22.937 -14.658  0.00  0.00    +0.261 C 
ATOM      4  C   UNL     1      36.338 -24.633 -14.697  0.00  0.00    +0.153 C 
ATOM      5  C   UNL     1      36.914 -23.700 -15.717  0.00  0.00    +0.043 C 
ATOM      6  C   UNL     1      36.357 -22.513 -15.993  0.00  0.00    +0.212 C 
ENDROOT
BRANCH   2   8
ATOM      7  O   UNL     1      35.934 -25.134 -11.287  0.00  0.00    -0.275 OA
ATOM      8  N   UNL     1      35.846 -23.293 -12.709  0.00  0.00    -0.300 N 
ATOM      9  C   UNL     1      36.137 -23.946 -11.524  0.00  0.00    +0.223 C 
ATOM     10  C   UNL     1      36.774 -23.031 -10.511  0.00  0.00    +0.095 C 
ATOM     11  H   UNL     1      36.055 -22.333 -12.779  0.00  0.00    +0.150 HD
ENDBRANCH   2   8
BRANCH   3  14
ATOM     12  O   UNL     1      33.786 -23.920 -16.708  0.00  0.00    -0.271 OA
ATOM     13  N   UNL     1      32.171 -23.855 -15.039  0.00  0.00    -0.275 N 
ATOM     14  C   UNL     1      33.440 -23.613 -15.564  0.00  0.00    +0.268 C 
ATOM     15  C   UNL     1      31.804 -23.476 -13.679  0.00  0.00    +0.115 C 
BRANCH  13  16
ATOM     16  C   UNL     1      31.115 -24.506 -15.811  0.00  0.00    +0.094 C 
BRANCH  16  17
ATOM     17  C   UNL     1      29.785 -24.533 -15.067  0.00  0.00    +0.022 C 
ATOM     18  C   UNL     1      28.675 -23.814 -15.820  0.00  0.00    +0.002 C 
ENDBRANCH  16  17
ENDBRANCH  13  16
ENDBRANCH   3  14
BRANCH   6  20
ATOM     19  O   UNL     1      36.847 -21.702 -18.174  0.00  0.00    -0.242 OA
ATOM     20  C   UNL     1      37.033 -21.658 -16.970  0.00  0.00    +0.372 C 
BRANCH  20  21
ATOM     21  O   UNL     1      37.884 -20.826 -16.334  0.00  0.00    -0.475 OA
ATOM     22  H   UNL     1      38.746 -20.687 -16.674  0.00  0.00    +0.296 HD
ENDBRANCH  20  21
ENDBRANCH   6  20
BRANCH   4  23
ATOM     23  N   UNL     1      35.758 -25.790 -15.391  0.00  0.00    -0.236 NA
BRANCH  23  26
ATOM     24  N   UNL     1      36.726 -27.679 -16.515  0.00  0.00    -0.370 N 
ATOM     25  N   UNL     1      37.121 -27.309 -14.301  0.00  0.00    -0.370 N 
ATOM     26  C   UNL     1      36.482 -26.862 -15.433  0.00  0.00    +0.189 C 
ATOM     27  H   UNL     1      36.326 -27.470 -17.389  0.00  0.00    +0.159 HD
ATOM     28  H   UNL     1      37.301 -28.472 -16.413  0.00  0.00    +0.159 HD
ATOM     29  H   UNL     1      37.029 -26.814 -13.455  0.00  0.00    +0.159 HD
ATOM     30  H   UNL     1      37.672 -28.125 -14.335  0.00  0.00    +0.159 HD
ENDBRANCH  23  26
ENDBRANCH   4  23
TORSDOF 8
ENDMDL
MODEL 5
REMARK VINA RESULT:      -6.1      2.222      5.000
REMARK  Name = 449379
REMARK  8 active torsions:
REMARK  status: ('A' for Active; 'I' for Inactive)
REMARK    1  A    between atoms: C_2  and  N_16
REMARK    2  A    between atoms: C_3  and  C_22
REMARK    3  A    between atoms: C_4  and  N_7
REMARK    4  A    between atoms: C_6  and  C_28
REMARK    5  A    between atoms: N_7  and  C_10
REMARK    6  A    between atoms: N_21  and  C_24
REMARK    7  A    between atoms: C_24  and  C_25
REMARK    8  A    between atoms: C_28  and  O_29
REMARK                            x       y       z     vdW  Elec       q    Type
REMARK                         _______ _______ _______ _____ _____    ______ ____
ROOT
ATOM      1  O   UNL     1      36.540 -23.925 -16.453  0.00  0.00    -0.462 OA
ATOM      2  C   UNL     1      35.638 -24.415 -14.176  0.00  0.00    +0.148 C 
ATOM      3  C   UNL     1      36.613 -24.771 -15.306  0.00  0.00    +0.261 C 
ATOM      4  C   UNL     1      35.646 -22.916 -13.840  0.00  0.00    +0.153 C 
ATOM      5  C   UNL     1      35.872 -22.074 -15.056  0.00  0.00    +0.043 C 
ATOM      6  C   UNL     1      36.259 -22.600 -16.226  0.00  0.00    +0.212 C 
ENDROOT
BRANCH   2   8
ATOM      7  O   UNL     1      33.151 -23.821 -12.793  0.00  0.00    -0.275 OA
ATOM      8  N   UNL     1      34.299 -24.835 -14.546  0.00  0.00    -0.300 N 
ATOM      9  C   UNL     1      33.171 -24.497 -13.819  0.00  0.00    +0.223 C 
ATOM     10  C   UNL     1      31.911 -25.040 -14.437  0.00  0.00    +0.095 C 
ATOM     11  H   UNL     1      34.188 -25.385 -15.355  0.00  0.00    +0.150 HD
ENDBRANCH   2   8
BRANCH   3  14
ATOM     12  O   UNL     1      38.821 -23.932 -15.244  0.00  0.00    -0.271 OA
ATOM     13  N   UNL     1      38.379 -25.791 -13.921  0.00  0.00    -0.275 N 
ATOM     14  C   UNL     1      38.036 -24.787 -14.826  0.00  0.00    +0.268 C 
ATOM     15  C   UNL     1      37.418 -26.783 -13.454  0.00  0.00    +0.115 C 
BRANCH  13  16
ATOM     16  C   UNL     1      39.727 -25.923 -13.373  0.00  0.00    +0.094 C 
BRANCH  16  17
ATOM     17  C   UNL     1      40.702 -26.538 -14.371  0.00  0.00    +0.022 C 
ATOM     18  C   UNL     1      41.673 -27.512 -13.721  0.00  0.00    +0.002 C 
ENDBRANCH  16  17
ENDBRANCH  13  16
ENDBRANCH   3  14
BRANCH   6  20
ATOM     19  O   UNL     1      35.832 -21.827 -18.435  0.00  0.00    -0.242 OA
ATOM     20  C   UNL     1      36.400 -21.691 -17.365  0.00  0.00    +0.372 C 
BRANCH  20  21
ATOM     21  O   UNL     1      37.249 -20.691 -17.045  0.00  0.00    -0.475 OA
ATOM     22  H   UNL     1      37.706 -20.229 -17.721  0.00  0.00    +0.296 HD
ENDBRANCH  20  21
ENDBRANCH   6  20
BRANCH   4  23
ATOM     23  N   UNL     1      36.717 -22.646 -12.872  0.00  0.00    -0.236 NA
BRANCH  23  26
ATOM     24  N   UNL     1      35.641 -23.809 -11.066  0.00  0.00    -0.370 N 
ATOM     25  N   UNL     1      37.913 -23.790 -11.255  0.00  0.00    -0.370 N 
ATOM     26  C   UNL     1      36.722 -23.368 -11.798  0.00  0.00    +0.189 C 
ATOM     27  H   UNL     1      34.728 -23.576 -11.349  0.00  0.00    +0.159 HD
ATOM     28  H   UNL     1      35.783 -24.357 -10.261  0.00  0.00    +0.159 HD
ATOM     29  H   UNL     1      38.764 -23.542 -11.682  0.00  0.00    +0.159 HD
ATOM     30  H   UNL     1      37.915 -24.339 -10.437  0.00  0.00    +0.159 HD
ENDBRANCH  23  26
ENDBRANCH   4  23
TORSDOF 8
ENDMDL
MODEL 6
REMARK VINA RESULT:      -6.1     13.937     17.647
REMARK  Name = 449379
REMARK  8 active torsions:
REMARK  status: ('A' for Active; 'I' for Inactive)
REMARK    1  A    between atoms: C_2  and  N_16
REMARK    2  A    between atoms: C_3  and  C_22
REMARK    3  A    between atoms: C_4  and  N_7
REMARK    4  A    between atoms: C_6  and  C_28
REMARK    5  A    between atoms: N_7  and  C_10
REMARK    6  A    between atoms: N_21  and  C_24
REMARK    7  A    between atoms: C_24  and  C_25
REMARK    8  A    between atoms: C_28  and  O_29
REMARK                            x       y       z     vdW  Elec       q    Type
REMARK                         _______ _______ _______ _____ _____    ______ ____
ROOT
ATOM      1  O   UNL     1      32.494 -10.062 -24.057  0.00  0.00    -0.462 OA
ATOM      2  C   UNL     1      31.693  -8.089 -22.752  0.00  0.00    +0.148 C 
ATOM      3  C   UNL     1      31.526  -9.567 -23.134  0.00  0.00    +0.261 C 
ATOM      4  C   UNL     1      33.141  -7.736 -22.380  0.00  0.00    +0.153 C 
ATOM      5  C   UNL     1      34.130  -8.517 -23.188  0.00  0.00    +0.043 C 
ATOM      6  C   UNL     1      33.766  -9.556 -23.951  0.00  0.00    +0.212 C 
ENDROOT
BRANCH   2   8
ATOM      7  O   UNL     1      31.424  -5.195 -22.783  0.00  0.00    -0.275 OA
ATOM      8  N   UNL     1      31.245  -7.255 -23.852  0.00  0.00    -0.300 N 
ATOM      9  C   UNL     1      31.151  -5.877 -23.768  0.00  0.00    +0.223 C 
ATOM     10  C   UNL     1      30.684  -5.258 -25.058  0.00  0.00    +0.095 C 
ATOM     11  H   UNL     1      30.997  -7.691 -24.699  0.00  0.00    +0.150 HD
ENDBRANCH   2   8
BRANCH   3  14
ATOM     12  O   UNL     1      31.241  -9.979 -20.825  0.00  0.00    -0.271 OA
ATOM     13  N   UNL     1      31.880 -11.791 -22.132  0.00  0.00    -0.275 N 
ATOM     14  C   UNL     1      31.534 -10.456 -21.924  0.00  0.00    +0.268 C 
ATOM     15  C   UNL     1      32.219 -12.313 -23.450  0.00  0.00    +0.115 C 
BRANCH  13  16
ATOM     16  C   UNL     1      31.928 -12.765 -21.044  0.00  0.00    +0.094 C 
BRANCH  16  17
ATOM     17  C   UNL     1      32.636 -14.053 -21.448  0.00  0.00    +0.022 C 
ATOM     18  C   UNL     1      32.714 -15.063 -20.312  0.00  0.00    +0.002 C 
ENDBRANCH  16  17
ENDBRANCH  13  16
ENDBRANCH   3  14
BRANCH   6  20
ATOM     19  O   UNL     1      34.596 -10.949 -25.690  0.00  0.00    -0.242 OA
ATOM     20  C   UNL     1      34.808 -10.215 -24.741  0.00  0.00    +0.372 C 
BRANCH  20  21
ATOM     21  O   UNL     1      36.023  -9.884 -24.255  0.00  0.00    -0.475 OA
ATOM     22  H   UNL     1      36.798 -10.220 -24.662  0.00  0.00    +0.296 HD
ENDBRANCH  20  21
ENDBRANCH   6  20
BRANCH   4  23
ATOM     23  N   UNL     1      33.356  -8.030 -20.957  0.00  0.00    -0.236 NA
BRANCH  23  26
ATOM     24  N   UNL     1      32.589  -5.935 -20.066  0.00  0.00    -0.370 N 
ATOM     25  N   UNL     1      31.984  -7.908 -19.099  0.00  0.00    -0.370 N 
ATOM     26  C   UNL     1      32.696  -7.308 -20.111  0.00  0.00    +0.189 C 
ATOM     27  H   UNL     1      33.053  -5.384 -20.737  0.00  0.00    +0.159 HD
ATOM     28  H   UNL     1      32.049  -5.506 -19.364  0.00  0.00    +0.159 HD
ATOM     29  H   UNL     1      31.976  -8.889 -19.017  0.00  0.00    +0.159 HD
ATOM     30  H   UNL     1      31.481  -7.357 -18.455  0.00  0.00    +0.159 HD
ENDBRANCH  23  26
ENDBRANCH   4  23
TORSDOF 8
ENDMDL
MODEL 7
REMARK VINA RESULT:      -5.7      2.750      5.120
REMARK  Name = 449379
REMARK  8 active torsions:
REMARK  status: ('A' for Active; 'I' for Inactive)
REMARK    1  A    between atoms: C_2  and  N_16
REMARK    2  A    between atoms: C_3  and  C_22
REMARK    3  A    between atoms: C_4  and  N_7
REMARK    4  A    between atoms: C_6  and  C_28
REMARK    5  A    between atoms: N_7  and  C_10
REMARK    6  A    between atoms: N_21  and  C_24
REMARK    7  A    between atoms: C_24  and  C_25
REMARK    8  A    between atoms: C_28  and  O_29
REMARK                            x       y       z     vdW  Elec       q    Type
REMARK                         _______ _______ _______ _____ _____    ______ ____
ROOT
ATOM      1  O   UNL     1      34.060 -24.761 -16.332  0.00  0.00    -0.462 OA
ATOM      2  C   UNL     1      34.481 -23.454 -14.246  0.00  0.00    +0.148 C 
ATOM      3  C   UNL     1      34.459 -24.811 -14.963  0.00  0.00    +0.261 C 
ATOM      4  C   UNL     1      35.198 -22.368 -15.060  0.00  0.00    +0.153 C 
ATOM      5  C   UNL     1      34.985 -22.542 -16.531  0.00  0.00    +0.043 C 
ATOM      6  C   UNL     1      34.439 -23.652 -17.046  0.00  0.00    +0.212 C 
ENDROOT
BRANCH   2   8
ATOM      7  O   UNL     1      32.303 -25.107 -13.259  0.00  0.00    -0.275 OA
ATOM      8  N   UNL     1      33.120 -23.042 -13.957  0.00  0.00    -0.300 N 
ATOM      9  C   UNL     1      32.149 -23.909 -13.487  0.00  0.00    +0.223 C 
ATOM     10  C   UNL     1      30.834 -23.216 -13.247  0.00  0.00    +0.095 C 
ATOM     11  H   UNL     1      32.876 -22.099 -14.101  0.00  0.00    +0.150 HD
ENDBRANCH   2   8
BRANCH   3  14
ATOM     12  O   UNL     1      36.278 -25.982 -15.914  0.00  0.00    -0.271 OA
ATOM     13  N   UNL     1      36.402 -25.546 -13.635  0.00  0.00    -0.275 N 
ATOM     14  C   UNL     1      35.791 -25.499 -14.888  0.00  0.00    +0.268 C 
ATOM     15  C   UNL     1      35.791 -24.961 -12.447  0.00  0.00    +0.115 C 
BRANCH  13  16
ATOM     16  C   UNL     1      37.699 -26.183 -13.419  0.00  0.00    +0.094 C 
BRANCH  16  17
ATOM     17  C   UNL     1      38.817 -25.168 -13.211  0.00  0.00    +0.022 C 
ATOM     18  C   UNL     1      40.073 -25.507 -14.001  0.00  0.00    +0.002 C 
ENDBRANCH  16  17
ENDBRANCH  13  16
ENDBRANCH   3  14
BRANCH   6  20
ATOM     19  O   UNL     1      33.623 -24.576 -19.080  0.00  0.00    -0.242 OA
ATOM     20  C   UNL     1      34.228 -23.695 -18.495  0.00  0.00    +0.372 C 
BRANCH  20  21
ATOM     21  O   UNL     1      34.803 -22.617 -19.069  0.00  0.00    -0.475 OA
ATOM     22  H   UNL     1      34.605 -22.399 -19.959  0.00  0.00    +0.296 HD
ENDBRANCH  20  21
ENDBRANCH   6  20
BRANCH   4  23
ATOM     23  N   UNL     1      36.639 -22.431 -14.781  0.00  0.00    -0.236 NA
BRANCH  23  26
ATOM     24  N   UNL     1      37.572 -21.137 -16.577  0.00  0.00    -0.370 N 
ATOM     25  N   UNL     1      38.272 -23.271 -16.189  0.00  0.00    -0.370 N 
ATOM     26  C   UNL     1      37.432 -22.259 -15.789  0.00  0.00    +0.189 C 
ATOM     27  H   UNL     1      37.026 -20.338 -16.396  0.00  0.00    +0.159 HD
ATOM     28  H   UNL     1      38.218 -21.135 -17.319  0.00  0.00    +0.159 HD
ATOM     29  H   UNL     1      38.271 -24.130 -15.708  0.00  0.00    +0.159 HD
ATOM     30  H   UNL     1      38.875 -23.138 -16.956  0.00  0.00    +0.159 HD
ENDBRANCH  23  26
ENDBRANCH   4  23
TORSDOF 8
ENDMDL
MODEL 8
REMARK VINA RESULT:      -5.6      1.812      5.050
REMARK  Name = 449379
REMARK  8 active torsions:
REMARK  status: ('A' for Active; 'I' for Inactive)
REMARK    1  A    between atoms: C_2  and  N_16
REMARK    2  A    between atoms: C_3  and  C_22
REMARK    3  A    between atoms: C_4  and  N_7
REMARK    4  A    between atoms: C_6  and  C_28
REMARK    5  A    between atoms: N_7  and  C_10
REMARK    6  A    between atoms: N_21  and  C_24
REMARK    7  A    between atoms: C_24  and  C_25
REMARK    8  A    between atoms: C_28  and  O_29
REMARK                            x       y       z     vdW  Elec       q    Type
REMARK                         _______ _______ _______ _____ _____    ______ ____
ROOT
ATOM      1  O   UNL     1      33.122 -23.202 -13.947  0.00  0.00    -0.462 OA
ATOM      2  C   UNL     1      35.020 -23.692 -15.494  0.00  0.00    +0.148 C 
ATOM      3  C   UNL     1      34.495 -22.961 -14.251  0.00  0.00    +0.261 C 
ATOM      4  C   UNL     1      34.633 -25.178 -15.512  0.00  0.00    +0.153 C 
ATOM      5  C   UNL     1      33.287 -25.411 -14.901  0.00  0.00    +0.043 C 
ATOM      6  C   UNL     1      32.640 -24.458 -14.217  0.00  0.00    +0.212 C 
ENDROOT
BRANCH   2   8
ATOM      7  O   UNL     1      36.570 -22.394 -17.582  0.00  0.00    -0.275 OA
ATOM      8  N   UNL     1      34.519 -23.033 -16.686  0.00  0.00    -0.300 N 
ATOM      9  C   UNL     1      35.343 -22.441 -17.627  0.00  0.00    +0.223 C 
ATOM     10  C   UNL     1      34.566 -21.854 -18.775  0.00  0.00    +0.095 C 
ATOM     11  H   UNL     1      33.546 -23.008 -16.833  0.00  0.00    +0.150 HD
ENDBRANCH   2   8
BRANCH   3  14
ATOM     12  O   UNL     1      34.743 -23.751 -12.038  0.00  0.00    -0.271 OA
ATOM     13  N   UNL     1      36.679 -23.038 -13.109  0.00  0.00    -0.275 N 
ATOM     14  C   UNL     1      35.309 -23.287 -13.031  0.00  0.00    +0.268 C 
ATOM     15  C   UNL     1      37.306 -22.490 -14.305  0.00  0.00    +0.115 C 
BRANCH  13  16
ATOM     16  C   UNL     1      37.587 -23.310 -11.997  0.00  0.00    +0.094 C 
BRANCH  16  17
ATOM     17  C   UNL     1      38.454 -24.539 -12.242  0.00  0.00    +0.022 C 
ATOM     18  C   UNL     1      37.720 -25.842 -11.960  0.00  0.00    +0.002 C 
ENDBRANCH  16  17
ENDBRANCH  13  16
ENDBRANCH   3  14
BRANCH   6  20
ATOM     19  O   UNL     1      30.811 -24.289 -12.706  0.00  0.00    -0.242 OA
ATOM     20  C   UNL     1      31.305 -24.778 -13.707  0.00  0.00    +0.372 C 
BRANCH  20  21
ATOM     21  O   UNL     1      30.717 -25.687 -14.513  0.00  0.00    -0.475 OA
ATOM     22  H   UNL     1      31.042 -25.824 -15.382  0.00  0.00    +0.296 HD
ENDBRANCH  20  21
ENDBRANCH   6  20
BRANCH   4  23
ATOM     23  N   UNL     1      35.633 -25.944 -14.757  0.00  0.00    -0.236 NA
BRANCH  23  26
ATOM     24  N   UNL     1      37.949 -25.834 -15.384  0.00  0.00    -0.370 N 
ATOM     25  N   UNL     1      36.573 -27.418 -16.272  0.00  0.00    -0.370 N 
ATOM     26  C   UNL     1      36.671 -26.348 -15.415  0.00  0.00    +0.189 C 
ATOM     27  H   UNL     1      38.155 -25.063 -14.808  0.00  0.00    +0.159 HD
ATOM     28  H   UNL     1      38.656 -26.238 -15.938  0.00  0.00    +0.159 HD
ATOM     29  H   UNL     1      35.710 -27.879 -16.388  0.00  0.00    +0.159 HD
ATOM     30  H   UNL     1      37.364 -27.725 -16.772  0.00  0.00    +0.159 HD
ENDBRANCH  23  26
ENDBRANCH   4  23
TORSDOF 8
ENDMDL
