MODEL 1
REMARK VINA RESULT:     -10.9      0.000      0.000
REMARK  Name = 448976
REMARK  5 active torsions:
REMARK  status: ('A' for Active; 'I' for Inactive)
REMARK    1  A    between atoms: N_2  and  C_14
REMARK    2  A    between atoms: C_6  and  C_18
REMARK    3  A    between atoms: C_14  and  C_15
REMARK    4  A    between atoms: C_15  and  C_16
REMARK    5  A    between atoms: C_18  and  C_21
REMARK                            x       y       z     vdW  Elec       q    Type
REMARK                         _______ _______ _______ _____ _____    ______ ____
ROOT
ATOM      1  F   UNL     1      30.613 -23.820 -12.682  0.00  0.00    -0.098 F 
ATOM      2  N   UNL     1      33.542 -23.445 -16.325  0.00  0.00    -0.238 N 
ATOM      3  N   UNL     1      31.970 -22.754 -17.746  0.00  0.00    -0.383 NA
ATOM      4  N   UNL     1      32.203 -23.703 -14.315  0.00  0.00    -0.299 NA
ATOM      5  N   UNL     1      29.868 -23.124 -14.726  0.00  0.00    -0.300 NA
ATOM      6  C   UNL     1      33.219 -23.050 -17.574  0.00  0.00    +0.170 C 
ATOM      7  C   UNL     1      32.380 -23.398 -15.609  0.00  0.00    +0.237 C 
ATOM      8  C   UNL     1      31.417 -22.968 -16.509  0.00  0.00    +0.222 C 
ATOM      9  C   UNL     1      30.119 -22.834 -16.025  0.00  0.00    +0.225 C 
ATOM     10  C   UNL     1      30.910 -23.535 -13.962  0.00  0.00    +0.300 C 
ATOM     11  N   UNL     1      29.081 -22.401 -16.867  0.00  0.00    -0.330 N 
ATOM     12  H   UNL     1      28.167 -22.310 -16.514  0.00  0.00    +0.145 HD
ATOM     13  H   UNL     1      29.268 -22.189 -17.810  0.00  0.00    +0.145 HD
ENDROOT
BRANCH   2  14
ATOM     14  C   UNL     1      34.838 -23.838 -15.821  0.00  0.00    +0.100 C 
BRANCH  14  15
ATOM     15  C   UNL     1      35.596 -22.662 -15.206  0.00  0.00    +0.022 C 
BRANCH  15  16
ATOM     16  C   UNL     1      37.025 -22.587 -15.741  0.00  0.00    +0.002 C 
ATOM     17  C   UNL     1      37.167 -21.506 -16.801  0.00  0.00    +0.000 C 
ENDBRANCH  15  16
ENDBRANCH  14  15
ENDBRANCH   2  14
BRANCH   6  18
ATOM     18  C   UNL     1      34.275 -22.974 -18.658  0.00  0.00    +0.102 C 
BRANCH  18  21
ATOM     19  O   UNL     1      36.340 -19.173 -21.039  0.00  0.00    -0.435 OA
ATOM     20  O   UNL     1      34.201 -18.247 -21.653  0.00  0.00    -0.435 OA
ATOM     21  C   UNL     1      34.219 -21.714 -19.457  0.00  0.00    -0.011 C 
ATOM     22  C   UNL     1      35.404 -21.084 -19.842  0.00  0.00    +0.036 C 
ATOM     23  C   UNL     1      32.970 -21.174 -19.815  0.00  0.00    -0.000 C 
ATOM     24  C   UNL     1      35.300 -19.922 -20.579  0.00  0.00    +0.176 C 
ATOM     25  C   UNL     1      34.080 -19.392 -20.930  0.00  0.00    +0.176 C 
ATOM     26  C   UNL     1      32.894 -19.996 -20.562  0.00  0.00    +0.040 C 
ATOM     27  C   UNL     1      35.636 -18.114 -21.719  0.00  0.00    +0.429 C 
ENDBRANCH  18  21
ENDBRANCH   6  18
TORSDOF 5
ENDMDL
MODEL 2
REMARK VINA RESULT:     -10.6      9.337     12.450
REMARK  Name = 448976
REMARK  5 active torsions:
REMARK  status: ('A' for Active; 'I' for Inactive)
REMARK    1  A    between atoms: N_2  and  C_14
REMARK    2  A    between atoms: C_6  and  C_18
REMARK    3  A    between atoms: C_14  and  C_15
REMARK    4  A    between atoms: C_15  and  C_16
REMARK    5  A    between atoms: C_18  and  C_21
REMARK                            x       y       z     vdW  Elec       q    Type
REMARK                         _______ _______ _______ _____ _____    ______ ____
ROOT
ATOM      1  F   UNL     1      33.855  -6.917 -22.953  0.00  0.00    -0.098 F 
ATOM      2  N   UNL     1      32.319 -11.343 -22.747  0.00  0.00    -0.238 N 
ATOM      3  N   UNL     1      33.830 -12.122 -24.189  0.00  0.00    -0.383 NA
ATOM      4  N   UNL     1      32.955  -8.999 -22.703  0.00  0.00    -0.299 NA
ATOM      5  N   UNL     1      34.854  -8.569 -24.175  0.00  0.00    -0.300 NA
ATOM      6  C   UNL     1      32.824 -12.397 -23.421  0.00  0.00    +0.170 C 
ATOM      7  C   UNL     1      33.079 -10.269 -23.115  0.00  0.00    +0.237 C 
ATOM      8  C   UNL     1      34.009 -10.774 -24.010  0.00  0.00    +0.222 C 
ATOM      9  C   UNL     1      34.921  -9.869 -24.547  0.00  0.00    +0.225 C 
ATOM     10  C   UNL     1      33.889  -8.219 -23.289  0.00  0.00    +0.300 C 
ATOM     11  N   UNL     1      35.900 -10.295 -25.460  0.00  0.00    -0.330 N 
ATOM     12  H   UNL     1      36.540  -9.646 -25.833  0.00  0.00    +0.145 HD
ATOM     13  H   UNL     1      35.947 -11.241 -25.727  0.00  0.00    +0.145 HD
ENDROOT
BRANCH   2  14
ATOM     14  C   UNL     1      31.210 -11.324 -21.822  0.00  0.00    +0.100 C 
BRANCH  14  15
ATOM     15  C   UNL     1      31.657 -11.585 -20.383  0.00  0.00    +0.022 C 
BRANCH  15  16
ATOM     16  C   UNL     1      31.072 -10.546 -19.427  0.00  0.00    +0.002 C 
ATOM     17  C   UNL     1      31.908  -9.277 -19.405  0.00  0.00    +0.000 C 
ENDBRANCH  15  16
ENDBRANCH  14  15
ENDBRANCH   2  14
BRANCH   6  18
ATOM     18  C   UNL     1      32.225 -13.779 -23.256  0.00  0.00    +0.102 C 
BRANCH  18  21
ATOM     19  O   UNL     1      35.328 -17.614 -23.040  0.00  0.00    -0.435 OA
ATOM     20  O   UNL     1      35.596 -17.411 -20.653  0.00  0.00    -0.435 OA
ATOM     21  C   UNL     1      33.116 -14.731 -22.530  0.00  0.00    -0.011 C 
ATOM     22  C   UNL     1      33.788 -15.730 -23.238  0.00  0.00    +0.036 C 
ATOM     23  C   UNL     1      33.272 -14.612 -21.137  0.00  0.00    -0.000 C 
ATOM     24  C   UNL     1      34.601 -16.586 -22.523  0.00  0.00    +0.176 C 
ATOM     25  C   UNL     1      34.754 -16.470 -21.161  0.00  0.00    +0.176 C 
ATOM     26  C   UNL     1      34.102 -15.493 -20.437  0.00  0.00    +0.040 C 
ATOM     27  C   UNL     1      35.956 -18.132 -21.849  0.00  0.00    +0.429 C 
ENDBRANCH  18  21
ENDBRANCH   6  18
TORSDOF 5
ENDMDL
MODEL 3
REMARK VINA RESULT:     -10.4      2.092      4.326
REMARK  Name = 448976
REMARK  5 active torsions:
REMARK  status: ('A' for Active; 'I' for Inactive)
REMARK    1  A    between atoms: N_2  and  C_14
REMARK    2  A    between atoms: C_6  and  C_18
REMARK    3  A    between atoms: C_14  and  C_15
REMARK    4  A    between atoms: C_15  and  C_16
REMARK    5  A    between atoms: C_18  and  C_21
REMARK                            x       y       z     vdW  Elec       q    Type
REMARK                         _______ _______ _______ _____ _____    ______ ____
ROOT
ATOM      1  F   UNL     1      35.313 -24.649 -11.152  0.00  0.00    -0.098 F 
ATOM      2  N   UNL     1      33.236 -23.472 -15.187  0.00  0.00    -0.238 N 
ATOM      3  N   UNL     1      35.037 -23.873 -16.438  0.00  0.00    -0.383 NA
ATOM      4  N   UNL     1      34.115 -24.038 -12.995  0.00  0.00    -0.299 NA
ATOM      5  N   UNL     1      36.446 -24.751 -13.133  0.00  0.00    -0.300 NA
ATOM      6  C   UNL     1      33.801 -23.489 -16.413  0.00  0.00    +0.170 C 
ATOM      7  C   UNL     1      34.208 -23.892 -14.325  0.00  0.00    +0.237 C 
ATOM      8  C   UNL     1      35.318 -24.134 -15.120  0.00  0.00    +0.222 C 
ATOM      9  C   UNL     1      36.468 -24.580 -14.476  0.00  0.00    +0.225 C 
ATOM     10  C   UNL     1      35.288 -24.473 -12.484  0.00  0.00    +0.300 C 
ATOM     11  N   UNL     1      37.638 -24.853 -15.205  0.00  0.00    -0.330 N 
ATOM     12  H   UNL     1      38.445 -25.168 -14.738  0.00  0.00    +0.145 HD
ATOM     13  H   UNL     1      37.650 -24.730 -16.182  0.00  0.00    +0.145 HD
ENDROOT
BRANCH   2  14
ATOM     14  C   UNL     1      31.887 -23.096 -14.832  0.00  0.00    +0.100 C 
BRANCH  14  15
ATOM     15  C   UNL     1      30.967 -24.310 -14.705  0.00  0.00    +0.022 C 
BRANCH  15  16
ATOM     16  C   UNL     1      29.796 -24.219 -15.682  0.00  0.00    +0.002 C 
ATOM     17  C   UNL     1      29.640 -22.811 -16.235  0.00  0.00    +0.000 C 
ENDBRANCH  15  16
ENDBRANCH  14  15
ENDBRANCH   2  14
BRANCH   6  18
ATOM     18  C   UNL     1      33.006 -23.081 -17.637  0.00  0.00    +0.102 C 
BRANCH  18  21
ATOM     19  O   UNL     1      33.294 -19.665 -21.190  0.00  0.00    -0.435 OA
ATOM     20  O   UNL     1      35.704 -19.668 -21.157  0.00  0.00    -0.435 OA
ATOM     21  C   UNL     1      33.757 -22.183 -18.563  0.00  0.00    -0.011 C 
ATOM     22  C   UNL     1      33.059 -21.349 -19.438  0.00  0.00    +0.036 C 
ATOM     23  C   UNL     1      35.163 -22.185 -18.543  0.00  0.00    -0.000 C 
ATOM     24  C   UNL     1      33.798 -20.537 -20.275  0.00  0.00    +0.176 C 
ATOM     25  C   UNL     1      35.173 -20.539 -20.257  0.00  0.00    +0.176 C 
ATOM     26  C   UNL     1      35.887 -21.353 -19.401  0.00  0.00    +0.040 C 
ATOM     27  C   UNL     1      34.507 -19.118 -21.746  0.00  0.00    +0.429 C 
ENDBRANCH  18  21
ENDBRANCH   6  18
TORSDOF 5
ENDMDL
MODEL 4
REMARK VINA RESULT:     -10.3      4.083      7.137
REMARK  Name = 448976
REMARK  5 active torsions:
REMARK  status: ('A' for Active; 'I' for Inactive)
REMARK    1  A    between atoms: N_2  and  C_14
REMARK    2  A    between atoms: C_6  and  C_18
REMARK    3  A    between atoms: C_14  and  C_15
REMARK    4  A    between atoms: C_15  and  C_16
REMARK    5  A    between atoms: C_18  and  C_21
REMARK                            x       y       z     vdW  Elec       q    Type
REMARK                         _______ _______ _______ _____ _____    ______ ____
ROOT
ATOM      1  F   UNL     1      32.468 -20.921 -20.847  0.00  0.00    -0.098 F 
ATOM      2  N   UNL     1      33.385 -23.186 -16.844  0.00  0.00    -0.238 N 
ATOM      3  N   UNL     1      35.570 -22.747 -16.888  0.00  0.00    -0.383 NA
ATOM      4  N   UNL     1      32.693 -22.067 -18.886  0.00  0.00    -0.299 NA
ATOM      5  N   UNL     1      34.591 -21.023 -20.011  0.00  0.00    -0.300 NA
ATOM      6  C   UNL     1      34.593 -23.316 -16.257  0.00  0.00    +0.170 C 
ATOM      7  C   UNL     1      33.600 -22.453 -17.976  0.00  0.00    +0.237 C 
ATOM      8  C   UNL     1      34.961 -22.191 -17.986  0.00  0.00    +0.222 C 
ATOM      9  C   UNL     1      35.451 -21.447 -19.054  0.00  0.00    +0.225 C 
ATOM     10  C   UNL     1      33.284 -21.355 -19.870  0.00  0.00    +0.300 C 
ATOM     11  N   UNL     1      36.818 -21.133 -19.143  0.00  0.00    -0.330 N 
ATOM     12  H   UNL     1      37.153 -20.605 -19.903  0.00  0.00    +0.145 HD
ATOM     13  H   UNL     1      37.440 -21.440 -18.444  0.00  0.00    +0.145 HD
ENDROOT
BRANCH   2  14
ATOM     14  C   UNL     1      32.113 -23.701 -16.392  0.00  0.00    +0.100 C 
BRANCH  14  15
ATOM     15  C   UNL     1      31.437 -22.764 -15.391  0.00  0.00    +0.022 C 
BRANCH  15  16
ATOM     16  C   UNL     1      31.172 -23.472 -14.064  0.00  0.00    +0.002 C 
ATOM     17  C   UNL     1      31.181 -24.984 -14.228  0.00  0.00    +0.000 C 
ENDBRANCH  15  16
ENDBRANCH  14  15
ENDBRANCH   2  14
BRANCH   6  18
ATOM     18  C   UNL     1      34.743 -24.078 -14.956  0.00  0.00    +0.102 C 
BRANCH  18  21
ATOM     19  O   UNL     1      39.520 -24.496 -13.783  0.00  0.00    -0.435 OA
ATOM     20  O   UNL     1      39.618 -26.791 -14.512  0.00  0.00    -0.435 OA
ATOM     21  C   UNL     1      36.027 -24.831 -14.852  0.00  0.00    -0.011 C 
ATOM     22  C   UNL     1      37.160 -24.202 -14.333  0.00  0.00    +0.036 C 
ATOM     23  C   UNL     1      36.083 -26.171 -15.278  0.00  0.00    -0.000 C 
ATOM     24  C   UNL     1      38.324 -24.939 -14.256  0.00  0.00    +0.176 C 
ATOM     25  C   UNL     1      38.380 -26.250 -14.673  0.00  0.00    +0.176 C 
ATOM     26  C   UNL     1      37.275 -26.895 -15.190  0.00  0.00    +0.040 C 
ATOM     27  C   UNL     1      40.335 -25.674 -13.948  0.00  0.00    +0.429 C 
ENDBRANCH  18  21
ENDBRANCH   6  18
TORSDOF 5
ENDMDL
MODEL 5
REMARK VINA RESULT:     -10.2      5.901      8.928
REMARK  Name = 448976
REMARK  5 active torsions:
REMARK  status: ('A' for Active; 'I' for Inactive)
REMARK    1  A    between atoms: N_2  and  C_14
REMARK    2  A    between atoms: C_6  and  C_18
REMARK    3  A    between atoms: C_14  and  C_15
REMARK    4  A    between atoms: C_15  and  C_16
REMARK    5  A    between atoms: C_18  and  C_21
REMARK                            x       y       z     vdW  Elec       q    Type
REMARK                         _______ _______ _______ _____ _____    ______ ____
ROOT
ATOM      1  F   UNL     1      32.694 -12.504 -24.265  0.00  0.00    -0.098 F 
ATOM      2  N   UNL     1      34.901 -16.480 -23.118  0.00  0.00    -0.238 N 
ATOM      3  N   UNL     1      34.327 -16.387 -20.966  0.00  0.00    -0.383 NA
ATOM      4  N   UNL     1      33.826 -14.456 -23.924  0.00  0.00    -0.299 NA
ATOM      5  N   UNL     1      32.665 -13.292 -22.121  0.00  0.00    -0.300 NA
ATOM      6  C   UNL     1      34.956 -17.039 -21.891  0.00  0.00    +0.170 C 
ATOM      7  C   UNL     1      34.155 -15.345 -22.975  0.00  0.00    +0.237 C 
ATOM      8  C   UNL     1      33.809 -15.305 -21.633  0.00  0.00    +0.222 C 
ATOM      9  C   UNL     1      33.035 -14.227 -21.215  0.00  0.00    +0.225 C 
ATOM     10  C   UNL     1      33.078 -13.461 -23.401  0.00  0.00    +0.300 C 
ATOM     11  N   UNL     1      32.636 -14.109 -19.872  0.00  0.00    -0.330 N 
ATOM     12  H   UNL     1      32.088 -13.343 -19.588  0.00  0.00    +0.145 HD
ATOM     13  H   UNL     1      32.905 -14.792 -19.216  0.00  0.00    +0.145 HD
ENDROOT
BRANCH   2  14
ATOM     14  C   UNL     1      35.495 -16.959 -24.344  0.00  0.00    +0.100 C 
BRANCH  14  15
ATOM     15  C   UNL     1      34.440 -17.394 -25.362  0.00  0.00    +0.022 C 
BRANCH  15  16
ATOM     16  C   UNL     1      33.915 -18.793 -25.048  0.00  0.00    +0.002 C 
ATOM     17  C   UNL     1      35.047 -19.749 -24.707  0.00  0.00    +0.000 C 
ENDBRANCH  15  16
ENDBRANCH  14  15
ENDBRANCH   2  14
BRANCH   6  18
ATOM     18  C   UNL     1      35.709 -18.334 -21.665  0.00  0.00    +0.102 C 
BRANCH  18  21
ATOM     19  O   UNL     1      35.204 -22.326 -18.804  0.00  0.00    -0.435 OA
ATOM     20  O   UNL     1      32.801 -22.299 -18.992  0.00  0.00    -0.435 OA
ATOM     21  C   UNL     1      34.902 -19.377 -20.965  0.00  0.00    -0.011 C 
ATOM     22  C   UNL     1      35.545 -20.358 -20.207  0.00  0.00    +0.036 C 
ATOM     23  C   UNL     1      33.500 -19.361 -21.075  0.00  0.00    -0.000 C 
ATOM     24  C   UNL     1      34.757 -21.300 -19.578  0.00  0.00    +0.176 C 
ATOM     25  C   UNL     1      33.385 -21.286 -19.686  0.00  0.00    +0.176 C 
ATOM     26  C   UNL     1      32.725 -20.327 -20.429  0.00  0.00    +0.040 C 
ATOM     27  C   UNL     1      33.958 -22.955 -18.435  0.00  0.00    +0.429 C 
ENDBRANCH  18  21
ENDBRANCH   6  18
TORSDOF 5
ENDMDL
MODEL 6
REMARK VINA RESULT:      -9.9      9.421     12.745
REMARK  Name = 448976
REMARK  5 active torsions:
REMARK  status: ('A' for Active; 'I' for Inactive)
REMARK    1  A    between atoms: N_2  and  C_14
REMARK    2  A    between atoms: C_6  and  C_18
REMARK    3  A    between atoms: C_14  and  C_15
REMARK    4  A    between atoms: C_15  and  C_16
REMARK    5  A    between atoms: C_18  and  C_21
REMARK                            x       y       z     vdW  Elec       q    Type
REMARK                         _______ _______ _______ _____ _____    ______ ____
ROOT
ATOM      1  F   UNL     1      35.243  -7.019 -23.980  0.00  0.00    -0.098 F 
ATOM      2  N   UNL     1      33.514 -11.378 -23.968  0.00  0.00    -0.238 N 
ATOM      3  N   UNL     1      32.099 -11.003 -22.286  0.00  0.00    -0.383 NA
ATOM      4  N   UNL     1      34.539  -9.184 -24.148  0.00  0.00    -0.299 NA
ATOM      5  N   UNL     1      33.616  -7.637 -22.500  0.00  0.00    -0.300 NA
ATOM      6  C   UNL     1      32.559 -11.858 -23.144  0.00  0.00    +0.170 C 
ATOM      7  C   UNL     1      33.691 -10.073 -23.609  0.00  0.00    +0.237 C 
ATOM      8  C   UNL     1      32.806  -9.860 -22.564  0.00  0.00    +0.222 C 
ATOM      9  C   UNL     1      32.786  -8.586 -22.005  0.00  0.00    +0.225 C 
ATOM     10  C   UNL     1      34.430  -7.989 -23.526  0.00  0.00    +0.300 C 
ATOM     11  N   UNL     1      31.917  -8.282 -20.944  0.00  0.00    -0.330 N 
ATOM     12  H   UNL     1      31.912  -7.377 -20.556  0.00  0.00    +0.145 HD
ATOM     13  H   UNL     1      31.313  -8.973 -20.587  0.00  0.00    +0.145 HD
ENDROOT
BRANCH   2  14
ATOM     14  C   UNL     1      34.217 -12.075 -25.020  0.00  0.00    +0.100 C 
BRANCH  14  15
ATOM     15  C   UNL     1      33.469 -12.008 -26.352  0.00  0.00    +0.022 C 
BRANCH  15  16
ATOM     16  C   UNL     1      33.655 -13.295 -27.154  0.00  0.00    +0.002 C 
ATOM     17  C   UNL     1      32.790 -14.420 -26.608  0.00  0.00    +0.000 C 
ENDBRANCH  15  16
ENDBRANCH  14  15
ENDBRANCH   2  14
BRANCH   6  18
ATOM     18  C   UNL     1      32.094 -13.296 -23.254  0.00  0.00    +0.102 C 
BRANCH  18  21
ATOM     19  O   UNL     1      35.164 -17.150 -22.939  0.00  0.00    -0.435 OA
ATOM     20  O   UNL     1      35.336 -16.964 -20.542  0.00  0.00    -0.435 OA
ATOM     21  C   UNL     1      32.949 -14.258 -22.499  0.00  0.00    -0.011 C 
ATOM     22  C   UNL     1      33.644 -15.256 -23.187  0.00  0.00    +0.036 C 
ATOM     23  C   UNL     1      33.049 -14.149 -21.101  0.00  0.00    -0.000 C 
ATOM     24  C   UNL     1      34.422 -16.121 -22.445  0.00  0.00    +0.176 C 
ATOM     25  C   UNL     1      34.520 -16.016 -21.077  0.00  0.00    +0.176 C 
ATOM     26  C   UNL     1      33.845 -15.039 -20.373  0.00  0.00    +0.040 C 
ATOM     27  C   UNL     1      35.741 -17.679 -21.727  0.00  0.00    +0.429 C 
ENDBRANCH  18  21
ENDBRANCH   6  18
TORSDOF 5
ENDMDL
MODEL 7
REMARK VINA RESULT:      -9.8      3.442      5.784
REMARK  Name = 448976
REMARK  5 active torsions:
REMARK  status: ('A' for Active; 'I' for Inactive)
REMARK    1  A    between atoms: N_2  and  C_14
REMARK    2  A    between atoms: C_6  and  C_18
REMARK    3  A    between atoms: C_14  and  C_15
REMARK    4  A    between atoms: C_15  and  C_16
REMARK    5  A    between atoms: C_18  and  C_21
REMARK                            x       y       z     vdW  Elec       q    Type
REMARK                         _______ _______ _______ _____ _____    ______ ____
ROOT
ATOM      1  F   UNL     1      28.060 -24.291 -16.768  0.00  0.00    -0.098 F 
ATOM      2  N   UNL     1      32.564 -23.014 -16.494  0.00  0.00    -0.238 N 
ATOM      3  N   UNL     1      32.832 -23.755 -14.409  0.00  0.00    -0.383 NA
ATOM      4  N   UNL     1      30.233 -23.597 -16.847  0.00  0.00    -0.299 NA
ATOM      5  N   UNL     1      29.279 -24.670 -14.873  0.00  0.00    -0.300 NA
ATOM      6  C   UNL     1      33.380 -23.182 -15.433  0.00  0.00    +0.170 C 
ATOM      7  C   UNL     1      31.358 -23.535 -16.121  0.00  0.00    +0.237 C 
ATOM      8  C   UNL     1      31.545 -23.989 -14.824  0.00  0.00    +0.222 C 
ATOM      9  C   UNL     1      30.449 -24.574 -14.198  0.00  0.00    +0.225 C 
ATOM     10  C   UNL     1      29.243 -24.182 -16.138  0.00  0.00    +0.300 C 
ATOM     11  N   UNL     1      30.550 -25.064 -12.885  0.00  0.00    -0.330 N 
ATOM     12  H   UNL     1      29.768 -25.477 -12.452  0.00  0.00    +0.145 HD
ATOM     13  H   UNL     1      31.403 -24.995 -12.397  0.00  0.00    +0.145 HD
ENDROOT
BRANCH   2  14
ATOM     14  C   UNL     1      32.874 -22.415 -17.771  0.00  0.00    +0.100 C 
BRANCH  14  15
ATOM     15  C   UNL     1      33.880 -23.246 -18.567  0.00  0.00    +0.022 C 
BRANCH  15  16
ATOM     16  C   UNL     1      34.710 -22.364 -19.498  0.00  0.00    +0.002 C 
ATOM     17  C   UNL     1      35.905 -21.762 -18.777  0.00  0.00    +0.000 C 
ENDBRANCH  15  16
ENDBRANCH  14  15
ENDBRANCH   2  14
BRANCH   6  18
ATOM     18  C   UNL     1      34.822 -22.719 -15.485  0.00  0.00    +0.102 C 
BRANCH  18  21
ATOM     19  O   UNL     1      39.370 -24.461 -14.672  0.00  0.00    -0.435 OA
ATOM     20  O   UNL     1      38.620 -26.752 -14.686  0.00  0.00    -0.435 OA
ATOM     21  C   UNL     1      35.808 -23.820 -15.276  0.00  0.00    -0.011 C 
ATOM     22  C   UNL     1      37.156 -23.514 -15.071  0.00  0.00    +0.036 C 
ATOM     23  C   UNL     1      35.370 -25.156 -15.284  0.00  0.00    -0.000 C 
ATOM     24  C   UNL     1      38.029 -24.565 -14.882  0.00  0.00    +0.176 C 
ATOM     25  C   UNL     1      37.602 -25.873 -14.891  0.00  0.00    +0.176 C 
ATOM     26  C   UNL     1      36.276 -26.202 -15.090  0.00  0.00    +0.040 C 
ATOM     27  C   UNL     1      39.737 -25.851 -14.548  0.00  0.00    +0.429 C 
ENDBRANCH  18  21
ENDBRANCH   6  18
TORSDOF 5
ENDMDL
MODEL 8
REMARK VINA RESULT:      -9.6      9.088     12.109
REMARK  Name = 448976
REMARK  5 active torsions:
REMARK  status: ('A' for Active; 'I' for Inactive)
REMARK    1  A    between atoms: N_2  and  C_14
REMARK    2  A    between atoms: C_6  and  C_18
REMARK    3  A    between atoms: C_14  and  C_15
REMARK    4  A    between atoms: C_15  and  C_16
REMARK    5  A    between atoms: C_18  and  C_21
REMARK                            x       y       z     vdW  Elec       q    Type
REMARK                         _______ _______ _______ _____ _____    ______ ____
ROOT
ATOM      1  F   UNL     1      32.465  -6.645 -20.033  0.00  0.00    -0.098 F 
ATOM      2  N   UNL     1      32.403 -10.531 -22.656  0.00  0.00    -0.238 N 
ATOM      3  N   UNL     1      31.731 -11.856 -20.994  0.00  0.00    -0.383 NA
ATOM      4  N   UNL     1      32.498  -8.407 -21.483  0.00  0.00    -0.299 NA
ATOM      5  N   UNL     1      31.854  -8.658 -19.142  0.00  0.00    -0.300 NA
ATOM      6  C   UNL     1      32.065 -11.771 -22.243  0.00  0.00    +0.170 C 
ATOM      7  C   UNL     1      32.272  -9.726 -21.561  0.00  0.00    +0.237 C 
ATOM      8  C   UNL     1      31.856 -10.567 -20.540  0.00  0.00    +0.222 C 
ATOM      9  C   UNL     1      31.646  -9.987 -19.293  0.00  0.00    +0.225 C 
ATOM     10  C   UNL     1      32.262  -7.959 -20.230  0.00  0.00    +0.300 C 
ATOM     11  N   UNL     1      31.220 -10.765 -18.203  0.00  0.00    -0.330 N 
ATOM     12  H   UNL     1      31.075 -10.343 -17.325  0.00  0.00    +0.145 HD
ATOM     13  H   UNL     1      31.068 -11.731 -18.316  0.00  0.00    +0.145 HD
ENDROOT
BRANCH   2  14
ATOM     14  C   UNL     1      32.817 -10.114 -23.976  0.00  0.00    +0.100 C 
BRANCH  14  15
ATOM     15  C   UNL     1      34.325 -10.261 -24.177  0.00  0.00    +0.022 C 
BRANCH  15  16
ATOM     16  C   UNL     1      34.637 -11.036 -25.456  0.00  0.00    +0.002 C 
ATOM     17  C   UNL     1      35.704 -10.338 -26.284  0.00  0.00    +0.000 C 
ENDBRANCH  15  16
ENDBRANCH  14  15
ENDBRANCH   2  14
BRANCH   6  18
ATOM     18  C   UNL     1      32.089 -12.941 -23.205  0.00  0.00    +0.102 C 
BRANCH  18  21
ATOM     19  O   UNL     1      35.323 -16.650 -23.607  0.00  0.00    -0.435 OA
ATOM     20  O   UNL     1      34.913 -17.405 -21.355  0.00  0.00    -0.435 OA
ATOM     21  C   UNL     1      32.824 -14.128 -22.680  0.00  0.00    -0.011 C 
ATOM     22  C   UNL     1      33.744 -14.791 -23.495  0.00  0.00    +0.036 C 
ATOM     23  C   UNL     1      32.585 -14.568 -21.365  0.00  0.00    -0.000 C 
ATOM     24  C   UNL     1      34.400 -15.884 -22.964  0.00  0.00    +0.176 C 
ATOM     25  C   UNL     1      34.166 -16.315 -21.679  0.00  0.00    +0.176 C 
ATOM     26  C   UNL     1      33.263 -15.678 -20.852  0.00  0.00    +0.040 C 
ATOM     27  C   UNL     1      35.644 -17.612 -22.581  0.00  0.00    +0.429 C 
ENDBRANCH  18  21
ENDBRANCH   6  18
TORSDOF 5
ENDMDL
MODEL 9
REMARK VINA RESULT:      -9.5      4.139      6.535
REMARK  Name = 448976
REMARK  5 active torsions:
REMARK  status: ('A' for Active; 'I' for Inactive)
REMARK    1  A    between atoms: N_2  and  C_14
REMARK    2  A    between atoms: C_6  and  C_18
REMARK    3  A    between atoms: C_14  and  C_15
REMARK    4  A    between atoms: C_15  and  C_16
REMARK    5  A    between atoms: C_18  and  C_21
REMARK                            x       y       z     vdW  Elec       q    Type
REMARK                         _______ _______ _______ _____ _____    ______ ____
ROOT
ATOM      1  F   UNL     1      36.686 -18.442 -21.809  0.00  0.00    -0.098 F 
ATOM      2  N   UNL     1      35.667 -21.750 -18.645  0.00  0.00    -0.238 N 
ATOM      3  N   UNL     1      33.490 -21.788 -19.124  0.00  0.00    -0.383 NA
ATOM      4  N   UNL     1      36.410 -20.056 -20.219  0.00  0.00    -0.299 NA
ATOM      5  N   UNL     1      34.547 -19.201 -21.545  0.00  0.00    -0.300 NA
ATOM      6  C   UNL     1      34.447 -22.272 -18.397  0.00  0.00    +0.170 C 
ATOM      7  C   UNL     1      35.482 -20.831 -19.639  0.00  0.00    +0.237 C 
ATOM      8  C   UNL     1      34.125 -20.870 -19.921  0.00  0.00    +0.222 C 
ATOM      9  C   UNL     1      33.665 -20.012 -20.915  0.00  0.00    +0.225 C 
ATOM     10  C   UNL     1      35.847 -19.271 -21.163  0.00  0.00    +0.300 C 
ATOM     11  N   UNL     1      32.305 -19.988 -21.268  0.00  0.00    -0.330 N 
ATOM     12  H   UNL     1      31.991 -19.377 -21.973  0.00  0.00    +0.145 HD
ATOM     13  H   UNL     1      31.666 -20.581 -20.809  0.00  0.00    +0.145 HD
ENDROOT
BRANCH   2  14
ATOM     14  C   UNL     1      36.922 -22.076 -18.009  0.00  0.00    +0.100 C 
BRANCH  14  15
ATOM     15  C   UNL     1      36.925 -21.715 -16.524  0.00  0.00    +0.022 C 
BRANCH  15  16
ATOM     16  C   UNL     1      37.591 -22.810 -15.692  0.00  0.00    +0.002 C 
ATOM     17  C   UNL     1      36.708 -23.242 -14.532  0.00  0.00    +0.000 C 
ENDBRANCH  15  16
ENDBRANCH  14  15
ENDBRANCH   2  14
BRANCH   6  18
ATOM     18  C   UNL     1      34.264 -23.342 -17.340  0.00  0.00    +0.102 C 
BRANCH  18  21
ATOM     19  O   UNL     1      29.416 -22.524 -16.895  0.00  0.00    -0.435 OA
ATOM     20  O   UNL     1      29.481 -22.747 -14.496  0.00  0.00    -0.435 OA
ATOM     21  C   UNL     1      33.007 -23.189 -16.551  0.00  0.00    -0.011 C 
ATOM     22  C   UNL     1      31.804 -22.919 -17.207  0.00  0.00    +0.036 C 
ATOM     23  C   UNL     1      33.046 -23.319 -15.151  0.00  0.00    -0.000 C 
ATOM     24  C   UNL     1      30.668 -22.787 -16.434  0.00  0.00    +0.176 C 
ATOM     25  C   UNL     1      30.705 -22.914 -15.064  0.00  0.00    +0.176 C 
ATOM     26  C   UNL     1      31.880 -23.181 -14.391  0.00  0.00    +0.040 C 
ATOM     27  C   UNL     1      28.668 -22.501 -15.662  0.00  0.00    +0.429 C 
ENDBRANCH  18  21
ENDBRANCH   6  18
TORSDOF 5
ENDMDL
