MODEL 1
REMARK VINA RESULT:      -8.9      0.000      0.000
REMARK  Name = 5496653
REMARK  11 active torsions:
REMARK  status: ('A' for Active; 'I' for Inactive)
REMARK    1  A    between atoms: P_1  and  O_3
REMARK    2  A    between atoms: P_1  and  O_5
REMARK    3  A    between atoms: P_1  and  C_15
REMARK    4  A    between atoms: O_5  and  C_6
REMARK    5  A    between atoms: C_11  and  N_14
REMARK    6  A    between atoms: C_15  and  C_16
REMARK    7  A    between atoms: C_16  and  C_17
REMARK    8  A    between atoms: C_17  and  C_20
REMARK    9  A    between atoms: N_19  and  CA_22
REMARK   10  A    between atoms: CA_22  and  C_25
REMARK   11  A    between atoms: C_25  and  O_26
REMARK                            x       y       z     vdW  Elec       q    Type
REMARK                         _______ _______ _______ _____ _____    ______ ____
ROOT
ATOM      1  P   UNL     1      35.378 -17.570 -22.565  0.00  0.00    +0.388 P 
ATOM      2  O   UNL     1      35.257 -16.613 -23.701  0.00  0.00    -0.244 OA
ENDROOT
BRANCH   1   3
ATOM      3  O   UNL     1      36.854 -18.148 -22.271  0.00  0.00    -0.315 OA
ATOM      4  H   UNL     1      36.852 -19.111 -22.389  0.00  0.00    +0.221 HD
ENDBRANCH   1   3
BRANCH   1   5
ATOM      5  O   UNL     1      34.425 -18.865 -22.597  0.00  0.00    -0.422 OA
BRANCH   5   6
ATOM      6  C   UNL     1      34.252 -19.726 -21.547  0.00  0.00    +0.147 C 
ATOM      7  C   UNL     1      32.990 -19.880 -20.973  0.00  0.00    +0.039 C 
ATOM      8  C   UNL     1      35.336 -20.447 -21.050  0.00  0.00    +0.039 C 
ATOM      9  C   UNL     1      32.812 -20.755 -19.903  0.00  0.00    +0.027 C 
ATOM     10  C   UNL     1      35.159 -21.324 -19.979  0.00  0.00    +0.027 C 
ATOM     11  C   UNL     1      33.898 -21.478 -19.406  0.00  0.00    +0.143 C 
BRANCH  11  14
ATOM     12  O   UNL     1      34.728 -22.814 -17.719  0.00  0.00    -0.126 OA
ATOM     13  O   UNL     1      32.552 -22.689 -17.978  0.00  0.00    -0.126 OA
ATOM     14  N   UNL     1      33.718 -22.370 -18.315  0.00  0.00    +0.058 N 
ENDBRANCH  11  14
ENDBRANCH   5   6
ENDBRANCH   1   5
BRANCH   1  15
ATOM     15  C   UNL     1      34.946 -16.828 -20.975  0.00  0.00    +0.129 C 
BRANCH  15  16
ATOM     16  C   UNL     1      34.535 -15.365 -21.077  0.00  0.00    +0.023 C 
BRANCH  16  17
ATOM     17  C   UNL     1      33.022 -15.198 -21.207  0.00  0.00    +0.086 C 
BRANCH  17  20
ATOM     18  O   UNL     1      31.932 -13.257 -22.157  0.00  0.00    -0.275 OA
ATOM     19  N   UNL     1      33.185 -14.641 -23.540  0.00  0.00    -0.297 N 
ATOM     20  C   ACE A   0      32.640 -14.246 -22.326  0.00  0.00    +0.223 C 
ATOM     21  H   UNL     1      33.740 -15.453 -23.563  0.00  0.00    +0.150 HD
BRANCH  19  22
ATOM     22  CA  UNL     1      32.975 -13.914 -24.771  0.00  0.00    +0.171 C 
ATOM     23  CB  UNL     1      33.758 -12.610 -24.762  0.00  0.00    +0.033 C 
BRANCH  22  25
ATOM     24  OXT UNL     1      33.523 -14.262 -27.100  0.00  0.00    -0.248 OA
ATOM     25  C   UNL     1      33.347 -14.746 -25.986  0.00  0.00    +0.332 C 
BRANCH  25  26
ATOM     26  O   UNL     1      33.459 -16.076 -25.750  0.00  0.00    -0.479 OA
ATOM     27  H   UNL     1      33.056 -16.690 -26.332  0.00  0.00    +0.295 HD
ENDBRANCH  25  26
ENDBRANCH  22  25
ENDBRANCH  19  22
ENDBRANCH  17  20
ENDBRANCH  16  17
ENDBRANCH  15  16
ENDBRANCH   1  15
TORSDOF 11
ENDMDL
MODEL 2
REMARK VINA RESULT:      -8.8      2.070      2.604
REMARK  Name = 5496653
REMARK  11 active torsions:
REMARK  status: ('A' for Active; 'I' for Inactive)
REMARK    1  A    between atoms: P_1  and  O_3
REMARK    2  A    between atoms: P_1  and  O_5
REMARK    3  A    between atoms: P_1  and  C_15
REMARK    4  A    between atoms: O_5  and  C_6
REMARK    5  A    between atoms: C_11  and  N_14
REMARK    6  A    between atoms: C_15  and  C_16
REMARK    7  A    between atoms: C_16  and  C_17
REMARK    8  A    between atoms: C_17  and  C_20
REMARK    9  A    between atoms: N_19  and  CA_22
REMARK   10  A    between atoms: CA_22  and  C_25
REMARK   11  A    between atoms: C_25  and  O_26
REMARK                            x       y       z     vdW  Elec       q    Type
REMARK                         _______ _______ _______ _____ _____    ______ ____
ROOT
ATOM      1  P   UNL     1      35.056 -18.467 -23.361  0.00  0.00    +0.388 P 
ATOM      2  O   UNL     1      34.922 -19.678 -24.220  0.00  0.00    -0.244 OA
ENDROOT
BRANCH   1   3
ATOM      3  O   UNL     1      36.560 -17.990 -23.030  0.00  0.00    -0.315 OA
ATOM      4  H   UNL     1      36.891 -18.478 -22.259  0.00  0.00    +0.221 HD
ENDBRANCH   1   3
BRANCH   1   5
ATOM      5  O   UNL     1      34.308 -18.495 -21.938  0.00  0.00    -0.422 OA
BRANCH   5   6
ATOM      6  C   UNL     1      34.317 -19.558 -21.078  0.00  0.00    +0.147 C 
ATOM      7  C   UNL     1      33.120 -20.032 -20.540  0.00  0.00    +0.039 C 
ATOM      8  C   UNL     1      35.524 -20.169 -20.736  0.00  0.00    +0.039 C 
ATOM      9  C   UNL     1      33.129 -21.115 -19.663  0.00  0.00    +0.027 C 
ATOM     10  C   UNL     1      35.533 -21.253 -19.858  0.00  0.00    +0.027 C 
ATOM     11  C   UNL     1      34.336 -21.726 -19.322  0.00  0.00    +0.143 C 
BRANCH  11  14
ATOM     12  O   UNL     1      34.997 -22.741 -17.359  0.00  0.00    -0.126 OA
ATOM     13  O   UNL     1      33.702 -23.862 -18.731  0.00  0.00    -0.126 OA
ATOM     14  N   UNL     1      34.346 -22.830 -18.427  0.00  0.00    +0.058 N 
ENDBRANCH  11  14
ENDBRANCH   5   6
ENDBRANCH   1   5
BRANCH   1  15
ATOM     15  C   UNL     1      34.355 -16.987 -24.124  0.00  0.00    +0.129 C 
BRANCH  15  16
ATOM     16  C   UNL     1      35.013 -15.693 -23.662  0.00  0.00    +0.023 C 
BRANCH  16  17
ATOM     17  C   UNL     1      33.999 -14.703 -23.093  0.00  0.00    +0.086 C 
BRANCH  17  20
ATOM     18  O   UNL     1      33.241 -13.840 -25.224  0.00  0.00    -0.275 OA
ATOM     19  N   UNL     1      33.818 -12.348 -23.540  0.00  0.00    -0.297 N 
ATOM     20  C   ACE A   0      33.637 -13.611 -24.085  0.00  0.00    +0.223 C 
ATOM     21  H   UNL     1      34.143 -12.277 -22.613  0.00  0.00    +0.150 HD
BRANCH  19  22
ATOM     22  CA  UNL     1      33.553 -11.130 -24.272  0.00  0.00    +0.171 C 
ATOM     23  CB  UNL     1      32.899 -10.095 -23.369  0.00  0.00    +0.033 C 
BRANCH  22  25
ATOM     24  OXT UNL     1      35.172 -10.827 -26.041  0.00  0.00    -0.248 OA
ATOM     25  C   UNL     1      34.816 -10.563 -24.897  0.00  0.00    +0.332 C 
BRANCH  25  26
ATOM     26  O   UNL     1      35.532  -9.746 -24.087  0.00  0.00    -0.479 OA
ATOM     27  H   UNL     1      35.897  -8.953 -24.427  0.00  0.00    +0.295 HD
ENDBRANCH  25  26
ENDBRANCH  22  25
ENDBRANCH  19  22
ENDBRANCH  17  20
ENDBRANCH  16  17
ENDBRANCH  15  16
ENDBRANCH   1  15
TORSDOF 11
ENDMDL
MODEL 3
REMARK VINA RESULT:      -8.8      4.247     10.181
REMARK  Name = 5496653
REMARK  11 active torsions:
REMARK  status: ('A' for Active; 'I' for Inactive)
REMARK    1  A    between atoms: P_1  and  O_3
REMARK    2  A    between atoms: P_1  and  O_5
REMARK    3  A    between atoms: P_1  and  C_15
REMARK    4  A    between atoms: O_5  and  C_6
REMARK    5  A    between atoms: C_11  and  N_14
REMARK    6  A    between atoms: C_15  and  C_16
REMARK    7  A    between atoms: C_16  and  C_17
REMARK    8  A    between atoms: C_17  and  C_20
REMARK    9  A    between atoms: N_19  and  CA_22
REMARK   10  A    between atoms: CA_22  and  C_25
REMARK   11  A    between atoms: C_25  and  O_26
REMARK                            x       y       z     vdW  Elec       q    Type
REMARK                         _______ _______ _______ _____ _____    ______ ____
ROOT
ATOM      1  P   UNL     1      33.538 -23.139 -17.704  0.00  0.00    +0.388 P 
ATOM      2  O   UNL     1      34.798 -22.763 -17.003  0.00  0.00    -0.244 OA
ENDROOT
BRANCH   1   3
ATOM      3  O   UNL     1      33.596 -24.468 -18.615  0.00  0.00    -0.315 OA
ATOM      4  H   UNL     1      33.026 -25.151 -18.226  0.00  0.00    +0.221 HD
ENDBRANCH   1   3
BRANCH   1   5
ATOM      5  O   UNL     1      32.863 -22.022 -18.643  0.00  0.00    -0.422 OA
BRANCH   5   6
ATOM      6  C   UNL     1      33.548 -21.244 -19.536  0.00  0.00    +0.147 C 
ATOM      7  C   UNL     1      32.866 -20.303 -20.308  0.00  0.00    +0.039 C 
ATOM      8  C   UNL     1      34.927 -21.392 -19.676  0.00  0.00    +0.039 C 
ATOM      9  C   UNL     1      33.562 -19.510 -21.219  0.00  0.00    +0.027 C 
ATOM     10  C   UNL     1      35.625 -20.599 -20.588  0.00  0.00    +0.027 C 
ATOM     11  C   UNL     1      34.943 -19.658 -21.358  0.00  0.00    +0.143 C 
BRANCH  11  14
ATOM     12  O   UNL     1      36.728 -18.313 -21.927  0.00  0.00    -0.126 OA
ATOM     13  O   UNL     1      35.186 -18.698 -23.440  0.00  0.00    -0.126 OA
ATOM     14  N   UNL     1      35.653 -18.851 -22.286  0.00  0.00    +0.058 N 
ENDBRANCH  11  14
ENDBRANCH   5   6
ENDBRANCH   1   5
BRANCH   1  15
ATOM     15  C   UNL     1      32.192 -23.529 -16.562  0.00  0.00    +0.129 C 
BRANCH  15  16
ATOM     16  C   UNL     1      32.469 -23.105 -15.126  0.00  0.00    +0.023 C 
BRANCH  16  17
ATOM     17  C   UNL     1      32.626 -24.303 -14.191  0.00  0.00    +0.086 C 
BRANCH  17  20
ATOM     18  O   UNL     1      34.347 -24.069 -12.505  0.00  0.00    -0.275 OA
ATOM     19  N   UNL     1      34.903 -24.974 -14.570  0.00  0.00    -0.297 N 
ATOM     20  C   ACE A   0      34.035 -24.424 -13.638  0.00  0.00    +0.223 C 
ATOM     21  H   UNL     1      34.548 -25.224 -15.454  0.00  0.00    +0.150 HD
BRANCH  19  22
ATOM     22  CA  UNL     1      36.306 -25.196 -14.304  0.00  0.00    +0.171 C 
ATOM     23  CB  UNL     1      36.808 -26.416 -15.060  0.00  0.00    +0.033 C 
BRANCH  22  25
ATOM     24  OXT UNL     1      37.660 -23.255 -13.804  0.00  0.00    -0.248 OA
ATOM     25  C   UNL     1      37.144 -23.976 -14.652  0.00  0.00    +0.332 C 
BRANCH  25  26
ATOM     26  O   UNL     1      37.272 -23.737 -15.980  0.00  0.00    -0.479 OA
ATOM     27  H   UNL     1      37.976 -24.126 -16.460  0.00  0.00    +0.295 HD
ENDBRANCH  25  26
ENDBRANCH  22  25
ENDBRANCH  19  22
ENDBRANCH  17  20
ENDBRANCH  16  17
ENDBRANCH  15  16
ENDBRANCH   1  15
TORSDOF 11
ENDMDL
MODEL 4
REMARK VINA RESULT:      -8.8      9.556     11.812
REMARK  Name = 5496653
REMARK  11 active torsions:
REMARK  status: ('A' for Active; 'I' for Inactive)
REMARK    1  A    between atoms: P_1  and  O_3
REMARK    2  A    between atoms: P_1  and  O_5
REMARK    3  A    between atoms: P_1  and  C_15
REMARK    4  A    between atoms: O_5  and  C_6
REMARK    5  A    between atoms: C_11  and  N_14
REMARK    6  A    between atoms: C_15  and  C_16
REMARK    7  A    between atoms: C_16  and  C_17
REMARK    8  A    between atoms: C_17  and  C_20
REMARK    9  A    between atoms: N_19  and  CA_22
REMARK   10  A    between atoms: CA_22  and  C_25
REMARK   11  A    between atoms: C_25  and  O_26
REMARK                            x       y       z     vdW  Elec       q    Type
REMARK                         _______ _______ _______ _____ _____    ______ ____
ROOT
ATOM      1  P   UNL     1      33.602 -24.146 -13.773  0.00  0.00    +0.388 P 
ATOM      2  O   UNL     1      34.165 -24.509 -12.442  0.00  0.00    -0.244 OA
ENDROOT
BRANCH   1   3
ATOM      3  O   UNL     1      33.153 -22.610 -13.964  0.00  0.00    -0.315 OA
ATOM      4  H   UNL     1      32.677 -22.515 -14.805  0.00  0.00    +0.221 HD
ENDBRANCH   1   3
BRANCH   1   5
ATOM      5  O   UNL     1      32.351 -25.011 -14.298  0.00  0.00    -0.422 OA
BRANCH   5   6
ATOM      6  C   UNL     1      31.244 -24.483 -14.904  0.00  0.00    +0.147 C 
ATOM      7  C   UNL     1      31.386 -23.499 -15.882  0.00  0.00    +0.039 C 
ATOM      8  C   UNL     1      29.972 -24.928 -14.542  0.00  0.00    +0.039 C 
ATOM      9  C   UNL     1      30.258 -22.960 -16.499  0.00  0.00    +0.027 C 
ATOM     10  C   UNL     1      28.843 -24.388 -15.159  0.00  0.00    +0.027 C 
ATOM     11  C   UNL     1      28.986 -23.405 -16.137  0.00  0.00    +0.143 C 
BRANCH  11  14
ATOM     12  O   UNL     1      27.416 -23.376 -17.826  0.00  0.00    -0.126 OA
ATOM     13  O   UNL     1      27.273 -21.865 -16.241  0.00  0.00    -0.126 OA
ATOM     14  N   UNL     1      27.836 -22.855 -16.765  0.00  0.00    +0.058 N 
ENDBRANCH  11  14
ENDBRANCH   5   6
ENDBRANCH   1   5
BRANCH   1  15
ATOM     15  C   UNL     1      34.791 -24.356 -15.117  0.00  0.00    +0.129 C 
BRANCH  15  16
ATOM     16  C   UNL     1      35.218 -23.045 -15.764  0.00  0.00    +0.023 C 
BRANCH  16  17
ATOM     17  C   UNL     1      36.717 -23.008 -16.056  0.00  0.00    +0.086 C 
BRANCH  17  20
ATOM     18  O   UNL     1      37.534 -22.771 -13.789  0.00  0.00    -0.275 OA
ATOM     19  N   UNL     1      38.320 -24.522 -15.098  0.00  0.00    -0.297 N 
ATOM     20  C   ACE A   0      37.551 -23.394 -14.847  0.00  0.00    +0.223 C 
ATOM     21  H   UNL     1      38.258 -24.945 -15.984  0.00  0.00    +0.150 HD
BRANCH  19  22
ATOM     22  CA  UNL     1      39.210 -25.101 -14.118  0.00  0.00    +0.171 C 
ATOM     23  CB  UNL     1      38.432 -25.954 -13.128  0.00  0.00    +0.033 C 
BRANCH  22  25
ATOM     24  OXT UNL     1      41.138 -26.560 -14.131  0.00  0.00    -0.248 OA
ATOM     25  C   UNL     1      40.310 -25.921 -14.772  0.00  0.00    +0.332 C 
BRANCH  25  26
ATOM     26  O   UNL     1      40.315 -25.884 -16.127  0.00  0.00    -0.479 OA
ATOM     27  H   UNL     1      39.602 -25.486 -16.587  0.00  0.00    +0.295 HD
ENDBRANCH  25  26
ENDBRANCH  22  25
ENDBRANCH  19  22
ENDBRANCH  17  20
ENDBRANCH  16  17
ENDBRANCH  15  16
ENDBRANCH   1  15
TORSDOF 11
ENDMDL
MODEL 5
REMARK VINA RESULT:      -8.7      2.430      3.299
REMARK  Name = 5496653
REMARK  11 active torsions:
REMARK  status: ('A' for Active; 'I' for Inactive)
REMARK    1  A    between atoms: P_1  and  O_3
REMARK    2  A    between atoms: P_1  and  O_5
REMARK    3  A    between atoms: P_1  and  C_15
REMARK    4  A    between atoms: O_5  and  C_6
REMARK    5  A    between atoms: C_11  and  N_14
REMARK    6  A    between atoms: C_15  and  C_16
REMARK    7  A    between atoms: C_16  and  C_17
REMARK    8  A    between atoms: C_17  and  C_20
REMARK    9  A    between atoms: N_19  and  CA_22
REMARK   10  A    between atoms: CA_22  and  C_25
REMARK   11  A    between atoms: C_25  and  O_26
REMARK                            x       y       z     vdW  Elec       q    Type
REMARK                         _______ _______ _______ _____ _____    ______ ____
ROOT
ATOM      1  P   UNL     1      34.205 -16.237 -21.304  0.00  0.00    +0.388 P 
ATOM      2  O   UNL     1      35.039 -16.014 -20.089  0.00  0.00    -0.244 OA
ENDROOT
BRANCH   1   3
ATOM      3  O   UNL     1      32.641 -15.868 -21.174  0.00  0.00    -0.315 OA
ATOM      4  H   UNL     1      32.304 -16.187 -20.322  0.00  0.00    +0.221 HD
ENDBRANCH   1   3
BRANCH   1   5
ATOM      5  O   UNL     1      34.231 -17.711 -21.947  0.00  0.00    -0.422 OA
BRANCH   5   6
ATOM      6  C   UNL     1      34.316 -18.870 -21.225  0.00  0.00    +0.147 C 
ATOM      7  C   UNL     1      33.157 -19.480 -20.746  0.00  0.00    +0.039 C 
ATOM      8  C   UNL     1      35.562 -19.440 -20.965  0.00  0.00    +0.039 C 
ATOM      9  C   UNL     1      33.242 -20.660 -20.009  0.00  0.00    +0.027 C 
ATOM     10  C   UNL     1      35.648 -20.621 -20.227  0.00  0.00    +0.027 C 
ATOM     11  C   UNL     1      34.489 -21.231 -19.750  0.00  0.00    +0.143 C 
BRANCH  11  14
ATOM     12  O   UNL     1      35.341 -22.476 -18.005  0.00  0.00    -0.126 OA
ATOM     13  O   UNL     1      33.887 -23.421 -19.350  0.00  0.00    -0.126 OA
ATOM     14  N   UNL     1      34.577 -22.434 -18.999  0.00  0.00    +0.058 N 
ENDBRANCH  11  14
ENDBRANCH   5   6
ENDBRANCH   1   5
BRANCH   1  15
ATOM     15  C   UNL     1      34.715 -15.211 -22.701  0.00  0.00    +0.129 C 
BRANCH  15  16
ATOM     16  C   UNL     1      33.635 -14.248 -23.177  0.00  0.00    +0.023 C 
BRANCH  16  17
ATOM     17  C   UNL     1      33.663 -14.056 -24.692  0.00  0.00    +0.086 C 
BRANCH  17  20
ATOM     18  O   UNL     1      33.546 -12.212 -26.257  0.00  0.00    -0.275 OA
ATOM     19  N   UNL     1      33.493 -11.766 -23.978  0.00  0.00    -0.297 N 
ATOM     20  C   ACE A   0      33.561 -12.593 -25.090  0.00  0.00    +0.223 C 
ATOM     21  H   UNL     1      33.514 -12.178 -23.084  0.00  0.00    +0.150 HD
BRANCH  19  22
ATOM     22  CA  UNL     1      33.396 -10.328 -24.073  0.00  0.00    +0.171 C 
ATOM     23  CB  UNL     1      32.661  -9.761 -22.867  0.00  0.00    +0.033 C 
BRANCH  22  25
ATOM     24  OXT UNL     1      35.048  -8.603 -23.696  0.00  0.00    -0.248 OA
ATOM     25  C   UNL     1      34.763  -9.679 -24.212  0.00  0.00    +0.332 C 
BRANCH  25  26
ATOM     26  O   UNL     1      35.648 -10.377 -24.964  0.00  0.00    -0.479 OA
ATOM     27  H   UNL     1      35.477 -10.522 -25.874  0.00  0.00    +0.295 HD
ENDBRANCH  25  26
ENDBRANCH  22  25
ENDBRANCH  19  22
ENDBRANCH  17  20
ENDBRANCH  16  17
ENDBRANCH  15  16
ENDBRANCH   1  15
TORSDOF 11
ENDMDL
MODEL 6
REMARK VINA RESULT:      -8.6      9.429     11.854
REMARK  Name = 5496653
REMARK  11 active torsions:
REMARK  status: ('A' for Active; 'I' for Inactive)
REMARK    1  A    between atoms: P_1  and  O_3
REMARK    2  A    between atoms: P_1  and  O_5
REMARK    3  A    between atoms: P_1  and  C_15
REMARK    4  A    between atoms: O_5  and  C_6
REMARK    5  A    between atoms: C_11  and  N_14
REMARK    6  A    between atoms: C_15  and  C_16
REMARK    7  A    between atoms: C_16  and  C_17
REMARK    8  A    between atoms: C_17  and  C_20
REMARK    9  A    between atoms: N_19  and  CA_22
REMARK   10  A    between atoms: CA_22  and  C_25
REMARK   11  A    between atoms: C_25  and  O_26
REMARK                            x       y       z     vdW  Elec       q    Type
REMARK                         _______ _______ _______ _____ _____    ______ ____
ROOT
ATOM      1  P   UNL     1      33.378 -23.918 -13.576  0.00  0.00    +0.388 P 
ATOM      2  O   UNL     1      34.371 -24.665 -12.753  0.00  0.00    -0.244 OA
ENDROOT
BRANCH   1   3
ATOM      3  O   UNL     1      32.372 -22.948 -12.774  0.00  0.00    -0.315 OA
ATOM      4  H   UNL     1      32.690 -22.032 -12.834  0.00  0.00    +0.221 HD
ENDBRANCH   1   3
BRANCH   1   5
ATOM      5  O   UNL     1      32.432 -24.786 -14.545  0.00  0.00    -0.422 OA
BRANCH   5   6
ATOM      6  C   UNL     1      31.239 -24.353 -15.054  0.00  0.00    +0.147 C 
ATOM      7  C   UNL     1      30.050 -24.977 -14.674  0.00  0.00    +0.039 C 
ATOM      8  C   UNL     1      31.209 -23.288 -15.954  0.00  0.00    +0.039 C 
ATOM      9  C   UNL     1      28.834 -24.537 -15.192  0.00  0.00    +0.027 C 
ATOM     10  C   UNL     1      29.992 -22.847 -16.474  0.00  0.00    +0.027 C 
ATOM     11  C   UNL     1      28.805 -23.471 -16.093  0.00  0.00    +0.143 C 
BRANCH  11  14
ATOM     12  O   UNL     1      26.726 -22.502 -15.847  0.00  0.00    -0.126 OA
ATOM     13  O   UNL     1      27.343 -23.158 -17.849  0.00  0.00    -0.126 OA
ATOM     14  N   UNL     1      27.565 -23.022 -16.622  0.00  0.00    +0.058 N 
ENDBRANCH  11  14
ENDBRANCH   5   6
ENDBRANCH   1   5
BRANCH   1  15
ATOM     15  C   UNL     1      34.153 -22.773 -14.739  0.00  0.00    +0.129 C 
BRANCH  15  16
ATOM     16  C   UNL     1      34.954 -23.465 -15.834  0.00  0.00    +0.023 C 
BRANCH  16  17
ATOM     17  C   UNL     1      36.275 -22.753 -16.119  0.00  0.00    +0.086 C 
BRANCH  17  20
ATOM     18  O   UNL     1      38.615 -23.217 -15.704  0.00  0.00    -0.275 OA
ATOM     19  N   UNL     1      37.010 -24.173 -14.323  0.00  0.00    -0.297 N 
ATOM     20  C   ACE A   0      37.443 -23.388 -15.383  0.00  0.00    +0.223 C 
ATOM     21  H   UNL     1      36.043 -24.242 -14.153  0.00  0.00    +0.150 HD
BRANCH  19  22
ATOM     22  CA  UNL     1      37.916 -24.895 -13.459  0.00  0.00    +0.171 C 
ATOM     23  CB  UNL     1      38.128 -24.139 -12.156  0.00  0.00    +0.033 C 
BRANCH  22  25
ATOM     24  OXT UNL     1      37.549 -27.228 -13.975  0.00  0.00    -0.248 OA
ATOM     25  C   UNL     1      37.421 -26.304 -13.178  0.00  0.00    +0.332 C 
BRANCH  25  26
ATOM     26  O   UNL     1      36.815 -26.463 -11.977  0.00  0.00    -0.479 OA
ATOM     27  H   UNL     1      37.331 -26.575 -11.203  0.00  0.00    +0.295 HD
ENDBRANCH  25  26
ENDBRANCH  22  25
ENDBRANCH  19  22
ENDBRANCH  17  20
ENDBRANCH  16  17
ENDBRANCH  15  16
ENDBRANCH   1  15
TORSDOF 11
ENDMDL
MODEL 7
REMARK VINA RESULT:      -8.6      4.674     10.565
REMARK  Name = 5496653
REMARK  11 active torsions:
REMARK  status: ('A' for Active; 'I' for Inactive)
REMARK    1  A    between atoms: P_1  and  O_3
REMARK    2  A    between atoms: P_1  and  O_5
REMARK    3  A    between atoms: P_1  and  C_15
REMARK    4  A    between atoms: O_5  and  C_6
REMARK    5  A    between atoms: C_11  and  N_14
REMARK    6  A    between atoms: C_15  and  C_16
REMARK    7  A    between atoms: C_16  and  C_17
REMARK    8  A    between atoms: C_17  and  C_20
REMARK    9  A    between atoms: N_19  and  CA_22
REMARK   10  A    between atoms: CA_22  and  C_25
REMARK   11  A    between atoms: C_25  and  O_26
REMARK                            x       y       z     vdW  Elec       q    Type
REMARK                         _______ _______ _______ _____ _____    ______ ____
ROOT
ATOM      1  P   UNL     1      33.883 -22.970 -18.392  0.00  0.00    +0.388 P 
ATOM      2  O   UNL     1      33.965 -24.033 -19.434  0.00  0.00    -0.244 OA
ENDROOT
BRANCH   1   3
ATOM      3  O   UNL     1      32.412 -22.389 -18.080  0.00  0.00    -0.315 OA
ATOM      4  H   UNL     1      31.750 -22.910 -18.562  0.00  0.00    +0.221 HD
ENDBRANCH   1   3
BRANCH   1   5
ATOM      5  O   UNL     1      34.807 -21.670 -18.601  0.00  0.00    -0.422 OA
BRANCH   5   6
ATOM      6  C   UNL     1      34.763 -20.857 -19.700  0.00  0.00    +0.147 C 
ATOM      7  C   UNL     1      33.534 -20.482 -20.242  0.00  0.00    +0.039 C 
ATOM      8  C   UNL     1      35.948 -20.405 -20.280  0.00  0.00    +0.039 C 
ATOM      9  C   UNL     1      33.489 -19.655 -21.363  0.00  0.00    +0.027 C 
ATOM     10  C   UNL     1      35.903 -19.577 -21.402  0.00  0.00    +0.027 C 
ATOM     11  C   UNL     1      34.675 -19.202 -21.943  0.00  0.00    +0.143 C 
BRANCH  11  14
ATOM     12  O   UNL     1      34.485 -17.123 -22.924  0.00  0.00    -0.126 OA
ATOM     13  O   UNL     1      34.734 -18.873 -24.225  0.00  0.00    -0.126 OA
ATOM     14  N   UNL     1      34.629 -18.359 -23.086  0.00  0.00    +0.058 N 
ENDBRANCH  11  14
ENDBRANCH   5   6
ENDBRANCH   1   5
BRANCH   1  15
ATOM     15  C   UNL     1      34.410 -23.546 -16.763  0.00  0.00    +0.129 C 
BRANCH  15  16
ATOM     16  C   UNL     1      35.277 -22.543 -16.013  0.00  0.00    +0.023 C 
BRANCH  16  17
ATOM     17  C   UNL     1      36.768 -22.812 -16.208  0.00  0.00    +0.086 C 
BRANCH  17  20
ATOM     18  O   UNL     1      37.429 -22.970 -13.885  0.00  0.00    -0.275 OA
ATOM     19  N   UNL     1      37.924 -24.725 -15.324  0.00  0.00    -0.297 N 
ATOM     20  C   ACE A   0      37.398 -23.483 -15.000  0.00  0.00    +0.223 C 
ATOM     21  H   UNL     1      37.845 -25.042 -16.253  0.00  0.00    +0.150 HD
BRANCH  19  22
ATOM     22  CA  UNL     1      38.585 -25.575 -14.360  0.00  0.00    +0.171 C 
ATOM     23  CB  UNL     1      37.777 -26.841 -14.120  0.00  0.00    +0.033 C 
BRANCH  22  25
ATOM     24  OXT UNL     1      40.864 -26.305 -14.012  0.00  0.00    -0.248 OA
ATOM     25  C   UNL     1      39.999 -25.925 -14.795  0.00  0.00    +0.332 C 
BRANCH  25  26
ATOM     26  O   UNL     1      40.238 -25.774 -16.120  0.00  0.00    -0.479 OA
ATOM     27  H   UNL     1      39.550 -25.492 -16.691  0.00  0.00    +0.295 HD
ENDBRANCH  25  26
ENDBRANCH  22  25
ENDBRANCH  19  22
ENDBRANCH  17  20
ENDBRANCH  16  17
ENDBRANCH  15  16
ENDBRANCH   1  15
TORSDOF 11
ENDMDL
MODEL 8
REMARK VINA RESULT:      -8.6      1.569      3.206
REMARK  Name = 5496653
REMARK  11 active torsions:
REMARK  status: ('A' for Active; 'I' for Inactive)
REMARK    1  A    between atoms: P_1  and  O_3
REMARK    2  A    between atoms: P_1  and  O_5
REMARK    3  A    between atoms: P_1  and  C_15
REMARK    4  A    between atoms: O_5  and  C_6
REMARK    5  A    between atoms: C_11  and  N_14
REMARK    6  A    between atoms: C_15  and  C_16
REMARK    7  A    between atoms: C_16  and  C_17
REMARK    8  A    between atoms: C_17  and  C_20
REMARK    9  A    between atoms: N_19  and  CA_22
REMARK   10  A    between atoms: CA_22  and  C_25
REMARK   11  A    between atoms: C_25  and  O_26
REMARK                            x       y       z     vdW  Elec       q    Type
REMARK                         _______ _______ _______ _____ _____    ______ ____
ROOT
ATOM      1  P   UNL     1      35.311 -17.885 -23.211  0.00  0.00    +0.388 P 
ATOM      2  O   UNL     1      36.338 -18.934 -23.469  0.00  0.00    -0.244 OA
ENDROOT
BRANCH   1   3
ATOM      3  O   UNL     1      35.859 -16.381 -23.022  0.00  0.00    -0.315 OA
ATOM      4  H   UNL     1      36.478 -16.354 -22.275  0.00  0.00    +0.221 HD
ENDBRANCH   1   3
BRANCH   1   5
ATOM      5  O   UNL     1      34.320 -18.124 -21.967  0.00  0.00    -0.422 OA
BRANCH   5   6
ATOM      6  C   UNL     1      34.334 -19.233 -21.167  0.00  0.00    +0.147 C 
ATOM      7  C   UNL     1      35.550 -19.782 -20.756  0.00  0.00    +0.039 C 
ATOM      8  C   UNL     1      33.135 -19.818 -20.763  0.00  0.00    +0.039 C 
ATOM      9  C   UNL     1      35.565 -20.913 -19.942  0.00  0.00    +0.027 C 
ATOM     10  C   UNL     1      33.150 -20.950 -19.948  0.00  0.00    +0.027 C 
ATOM     11  C   UNL     1      34.364 -21.498 -19.538  0.00  0.00    +0.143 C 
BRANCH  11  14
ATOM     12  O   UNL     1      33.724 -23.661 -19.058  0.00  0.00    -0.126 OA
ATOM     13  O   UNL     1      35.050 -22.627 -17.648  0.00  0.00    -0.126 OA
ATOM     14  N   UNL     1      34.380 -22.651 -18.708  0.00  0.00    +0.058 N 
ENDBRANCH  11  14
ENDBRANCH   5   6
ENDBRANCH   1   5
BRANCH   1  15
ATOM     15  C   UNL     1      34.150 -17.689 -24.581  0.00  0.00    +0.129 C 
BRANCH  15  16
ATOM     16  C   UNL     1      34.446 -16.484 -25.464  0.00  0.00    +0.023 C 
BRANCH  16  17
ATOM     17  C   UNL     1      33.298 -15.477 -25.468  0.00  0.00    +0.086 C 
BRANCH  17  20
ATOM     18  O   UNL     1      33.791 -13.238 -24.690  0.00  0.00    -0.275 OA
ATOM     19  N   UNL     1      33.247 -14.880 -23.139  0.00  0.00    -0.297 N 
ATOM     20  C   ACE A   0      33.477 -14.393 -24.418  0.00  0.00    +0.223 C 
ATOM     21  H   UNL     1      33.001 -15.827 -23.034  0.00  0.00    +0.150 HD
BRANCH  19  22
ATOM     22  CA  UNL     1      33.355 -14.060 -21.954  0.00  0.00    +0.171 C 
ATOM     23  CB  UNL     1      32.136 -13.161 -21.814  0.00  0.00    +0.033 C 
BRANCH  22  25
ATOM     24  OXT UNL     1      32.626 -15.139 -19.917  0.00  0.00    -0.248 OA
ATOM     25  C   UNL     1      33.538 -14.901 -20.703  0.00  0.00    +0.332 C 
BRANCH  25  26
ATOM     26  O   UNL     1      34.797 -15.365 -20.511  0.00  0.00    -0.479 OA
ATOM     27  H   UNL     1      35.476 -14.777 -20.244  0.00  0.00    +0.295 HD
ENDBRANCH  25  26
ENDBRANCH  22  25
ENDBRANCH  19  22
ENDBRANCH  17  20
ENDBRANCH  16  17
ENDBRANCH  15  16
ENDBRANCH   1  15
TORSDOF 11
ENDMDL
MODEL 9
REMARK VINA RESULT:      -8.5      5.227     11.076
REMARK  Name = 5496653
REMARK  11 active torsions:
REMARK  status: ('A' for Active; 'I' for Inactive)
REMARK    1  A    between atoms: P_1  and  O_3
REMARK    2  A    between atoms: P_1  and  O_5
REMARK    3  A    between atoms: P_1  and  C_15
REMARK    4  A    between atoms: O_5  and  C_6
REMARK    5  A    between atoms: C_11  and  N_14
REMARK    6  A    between atoms: C_15  and  C_16
REMARK    7  A    between atoms: C_16  and  C_17
REMARK    8  A    between atoms: C_17  and  C_20
REMARK    9  A    between atoms: N_19  and  CA_22
REMARK   10  A    between atoms: CA_22  and  C_25
REMARK   11  A    between atoms: C_25  and  O_26
REMARK                            x       y       z     vdW  Elec       q    Type
REMARK                         _______ _______ _______ _____ _____    ______ ____
ROOT
ATOM      1  P   UNL     1      35.070 -23.399 -16.031  0.00  0.00    +0.388 P 
ATOM      2  O   UNL     1      36.194 -22.438 -15.845  0.00  0.00    -0.244 OA
ENDROOT
BRANCH   1   3
ATOM      3  O   UNL     1      35.447 -24.964 -15.943  0.00  0.00    -0.315 OA
ATOM      4  H   UNL     1      36.408 -25.069 -16.024  0.00  0.00    +0.221 HD
ENDBRANCH   1   3
BRANCH   1   5
ATOM      5  O   UNL     1      34.203 -23.257 -17.378  0.00  0.00    -0.422 OA
BRANCH   5   6
ATOM      6  C   UNL     1      34.442 -22.335 -18.360  0.00  0.00    +0.147 C 
ATOM      7  C   UNL     1      35.752 -21.960 -18.660  0.00  0.00    +0.039 C 
ATOM      8  C   UNL     1      33.378 -21.768 -19.060  0.00  0.00    +0.039 C 
ATOM      9  C   UNL     1      35.997 -21.020 -19.660  0.00  0.00    +0.027 C 
ATOM     10  C   UNL     1      33.622 -20.827 -20.061  0.00  0.00    +0.027 C 
ATOM     11  C   UNL     1      34.931 -20.453 -20.360  0.00  0.00    +0.143 C 
BRANCH  11  14
ATOM     12  O   UNL     1      34.373 -19.399 -22.335  0.00  0.00    -0.126 OA
ATOM     13  O   UNL     1      36.202 -18.771 -21.295  0.00  0.00    -0.126 OA
ATOM     14  N   UNL     1      35.181 -19.495 -21.379  0.00  0.00    +0.058 N 
ENDBRANCH  11  14
ENDBRANCH   5   6
ENDBRANCH   1   5
BRANCH   1  15
ATOM     15  C   UNL     1      33.802 -23.248 -14.752  0.00  0.00    +0.129 C 
BRANCH  15  16
ATOM     16  C   UNL     1      33.976 -24.232 -13.602  0.00  0.00    +0.023 C 
BRANCH  16  17
ATOM     17  C   UNL     1      35.067 -23.791 -12.628  0.00  0.00    +0.086 C 
BRANCH  17  20
ATOM     18  O   UNL     1      36.302 -25.619 -11.632  0.00  0.00    -0.275 OA
ATOM     19  N   UNL     1      37.092 -24.656 -13.592  0.00  0.00    -0.297 N 
ATOM     20  C   ACE A   0      36.202 -24.796 -12.537  0.00  0.00    +0.223 C 
ATOM     21  H   UNL     1      36.916 -23.960 -14.266  0.00  0.00    +0.150 HD
BRANCH  19  22
ATOM     22  CA  UNL     1      38.266 -25.484 -13.747  0.00  0.00    +0.171 C 
ATOM     23  CB  UNL     1      37.900 -26.817 -14.382  0.00  0.00    +0.033 C 
BRANCH  22  25
ATOM     24  OXT UNL     1      40.542 -24.928 -14.344  0.00  0.00    -0.248 OA
ATOM     25  C   UNL     1      39.342 -24.787 -14.562  0.00  0.00    +0.332 C 
BRANCH  25  26
ATOM     26  O   UNL     1      38.876 -23.984 -15.549  0.00  0.00    -0.479 OA
ATOM     27  H   UNL     1      37.987 -23.686 -15.529  0.00  0.00    +0.295 HD
ENDBRANCH  25  26
ENDBRANCH  22  25
ENDBRANCH  19  22
ENDBRANCH  17  20
ENDBRANCH  16  17
ENDBRANCH  15  16
ENDBRANCH   1  15
TORSDOF 11
ENDMDL
