MODEL 1
REMARK VINA RESULT:      -8.9      0.000      0.000
REMARK  Name = 6438378
REMARK  16 active torsions:
REMARK  status: ('A' for Active; 'I' for Inactive)
REMARK    1  A    between atoms: C_2  and  C_21
REMARK    2  A    between atoms: C_3  and  C_9
REMARK    3  A    between atoms: C_4  and  O_7
REMARK    4  A    between atoms: C_10  and  C_11
REMARK    5  A    between atoms: C_11  and  O_12
REMARK    6  A    between atoms: C_11  and  C_14
REMARK    7  A    between atoms: C_14  and  C_15
REMARK    8  A    between atoms: C_15  and  C_17
REMARK    9  A    between atoms: C_17  and  C_18
REMARK   10  A    between atoms: C_18  and  C_19
REMARK   11  A    between atoms: C_21  and  C_22
REMARK   12  A    between atoms: C_22  and  C_23
REMARK   13  A    between atoms: C_23  and  C_24
REMARK   14  A    between atoms: C_24  and  C_25
REMARK   15  A    between atoms: C_26  and  C_28
REMARK   16  A    between atoms: C_28  and  O_29
REMARK                            x       y       z     vdW  Elec       q    Type
REMARK                         _______ _______ _______ _____ _____    ______ ____
ROOT
ATOM      1  O   UNL     1      39.715 -24.327 -15.207  0.00  0.00    -0.296 OA
ATOM      2  C   UNL     1      37.292 -24.296 -15.072  0.00  0.00    +0.064 C 
ATOM      3  C   UNL     1      36.478 -24.804 -13.872  0.00  0.00    +0.056 C 
ATOM      4  C   UNL     1      37.182 -26.109 -13.478  0.00  0.00    +0.122 C 
ATOM      5  C   UNL     1      38.670 -25.797 -13.610  0.00  0.00    +0.094 C 
ATOM      6  C   UNL     1      38.687 -24.749 -14.692  0.00  0.00    +0.153 C 
ENDROOT
BRANCH   4   7
ATOM      7  O   UNL     1      36.861 -26.451 -12.138  0.00  0.00    -0.384 OA
ATOM      8  H   UNL     1      37.636 -26.849 -11.712  0.00  0.00    +0.210 HD
ENDBRANCH   4   7
BRANCH   3   9
ATOM      9  C   UNL     1      35.031 -24.998 -14.199  0.00  0.00    -0.026 C 
ATOM     10  C   UNL     1      34.047 -24.239 -13.694  0.00  0.00    -0.002 C 
BRANCH  10  11
ATOM     11  C   UNL     1      32.568 -24.355 -13.970  0.00  0.00    +0.132 C 
BRANCH  11  12
ATOM     12  O   UNL     1      32.044 -25.369 -13.112  0.00  0.00    -0.380 OA
ATOM     13  H   UNL     1      32.770 -25.782 -12.618  0.00  0.00    +0.211 HD
ENDBRANCH  11  12
BRANCH  11  14
ATOM     14  C   UNL     1      31.730 -23.074 -13.807  0.00  0.00    +0.034 C 
BRANCH  14  15
ATOM     15  C   UNL     1      30.989 -22.608 -15.085  0.00  0.00    +0.003 C 
ATOM     16  C   UNL     1      31.718 -23.175 -16.310  0.00  0.00    +0.000 C 
BRANCH  15  17
ATOM     17  C   UNL     1      29.501 -23.017 -15.064  0.00  0.00    +0.000 C 
BRANCH  17  18
ATOM     18  C   UNL     1      29.216 -24.339 -15.787  0.00  0.00    +0.000 C 
BRANCH  18  19
ATOM     19  C   UNL     1      28.164 -24.206 -16.892  0.00  0.00    +0.000 C 
ATOM     20  C   UNL     1      27.819 -22.764 -17.228  0.00  0.00    +0.000 C 
ENDBRANCH  18  19
ENDBRANCH  17  18
ENDBRANCH  15  17
ENDBRANCH  14  15
ENDBRANCH  11  14
ENDBRANCH  10  11
ENDBRANCH   3   9
BRANCH   2  21
ATOM     21  C   UNL     1      37.201 -22.792 -15.267  0.00  0.00    +0.008 C 
BRANCH  21  22
ATOM     22  C   UNL     1      36.390 -22.382 -16.500  0.00  0.00    +0.001 C 
BRANCH  22  23
ATOM     23  C   UNL     1      37.096 -21.338 -17.368  0.00  0.00    +0.005 C 
BRANCH  23  24
ATOM     24  C   UNL     1      36.765 -21.537 -18.850  0.00  0.00    +0.026 C 
BRANCH  24  25
ATOM     25  C   UNL     1      35.282 -21.629 -19.070  0.00  0.00    -0.020 C 
ATOM     26  C   UNL     1      34.615 -20.844 -19.926  0.00  0.00    +0.077 C 
BRANCH  26  28
ATOM     27  O   UNL     1      32.395 -20.200 -20.598  0.00  0.00    -0.245 OA
ATOM     28  C   UNL     1      33.157 -20.998 -20.078  0.00  0.00    +0.338 C 
BRANCH  28  29
ATOM     29  O   UNL     1      32.786 -22.184 -19.543  0.00  0.00    -0.477 OA
ATOM     30  H   UNL     1      32.006 -22.241 -19.027  0.00  0.00    +0.295 HD
ENDBRANCH  28  29
ENDBRANCH  26  28
ENDBRANCH  24  25
ENDBRANCH  23  24
ENDBRANCH  22  23
ENDBRANCH  21  22
ENDBRANCH   2  21
TORSDOF 16
ENDMDL
MODEL 2
REMARK VINA RESULT:      -8.8      2.080      7.532
REMARK  Name = 6438378
REMARK  16 active torsions:
REMARK  status: ('A' for Active; 'I' for Inactive)
REMARK    1  A    between atoms: C_2  and  C_21
REMARK    2  A    between atoms: C_3  and  C_9
REMARK    3  A    between atoms: C_4  and  O_7
REMARK    4  A    between atoms: C_10  and  C_11
REMARK    5  A    between atoms: C_11  and  O_12
REMARK    6  A    between atoms: C_11  and  C_14
REMARK    7  A    between atoms: C_14  and  C_15
REMARK    8  A    between atoms: C_15  and  C_17
REMARK    9  A    between atoms: C_17  and  C_18
REMARK   10  A    between atoms: C_18  and  C_19
REMARK   11  A    between atoms: C_21  and  C_22
REMARK   12  A    between atoms: C_22  and  C_23
REMARK   13  A    between atoms: C_23  and  C_24
REMARK   14  A    between atoms: C_24  and  C_25
REMARK   15  A    between atoms: C_26  and  C_28
REMARK   16  A    between atoms: C_28  and  O_29
REMARK                            x       y       z     vdW  Elec       q    Type
REMARK                         _______ _______ _______ _____ _____    ______ ____
ROOT
ATOM      1  O   UNL     1      31.627 -25.332 -13.081  0.00  0.00    -0.296 OA
ATOM      2  C   UNL     1      32.372 -24.010 -14.976  0.00  0.00    +0.064 C 
ATOM      3  C   UNL     1      31.469 -23.078 -15.799  0.00  0.00    +0.056 C 
ATOM      4  C   UNL     1      30.175 -23.884 -15.977  0.00  0.00    +0.122 C 
ATOM      5  C   UNL     1      29.948 -24.547 -14.621  0.00  0.00    +0.094 C 
ATOM      6  C   UNL     1      31.352 -24.704 -14.096  0.00  0.00    +0.153 C 
ENDROOT
BRANCH   4   7
ATOM      7  O   UNL     1      29.099 -23.015 -16.293  0.00  0.00    -0.384 OA
ATOM      8  H   UNL     1      29.449 -22.171 -16.617  0.00  0.00    +0.210 HD
ENDBRANCH   4   7
BRANCH   3   9
ATOM      9  C   UNL     1      32.090 -22.679 -17.101  0.00  0.00    -0.026 C 
ATOM     10  C   UNL     1      33.314 -23.068 -17.490  0.00  0.00    -0.002 C 
BRANCH  10  11
ATOM     11  C   UNL     1      34.016 -22.723 -18.780  0.00  0.00    +0.132 C 
BRANCH  11  12
ATOM     12  O   UNL     1      34.035 -23.898 -19.591  0.00  0.00    -0.380 OA
ATOM     13  H   UNL     1      34.182 -24.677 -19.030  0.00  0.00    +0.211 HD
ENDBRANCH  11  12
BRANCH  11  14
ATOM     14  C   UNL     1      33.430 -21.558 -19.597  0.00  0.00    +0.034 C 
BRANCH  14  15
ATOM     15  C   UNL     1      34.453 -20.476 -20.023  0.00  0.00    +0.003 C 
ATOM     16  C   UNL     1      35.840 -21.125 -20.127  0.00  0.00    +0.000 C 
BRANCH  15  17
ATOM     17  C   UNL     1      34.044 -19.789 -21.343  0.00  0.00    +0.000 C 
BRANCH  17  18
ATOM     18  C   UNL     1      35.234 -19.297 -22.177  0.00  0.00    +0.000 C 
BRANCH  18  19
ATOM     19  C   UNL     1      34.897 -19.121 -23.660  0.00  0.00    +0.000 C 
ATOM     20  C   UNL     1      34.656 -17.674 -24.058  0.00  0.00    +0.000 C 
ENDBRANCH  18  19
ENDBRANCH  17  18
ENDBRANCH  15  17
ENDBRANCH  14  15
ENDBRANCH  11  14
ENDBRANCH  10  11
ENDBRANCH   3   9
BRANCH   2  21
ATOM     21  C   UNL     1      33.426 -23.270 -14.172  0.00  0.00    +0.008 C 
BRANCH  21  22
ATOM     22  C   UNL     1      34.573 -24.166 -13.695  0.00  0.00    +0.001 C 
BRANCH  22  23
ATOM     23  C   UNL     1      35.748 -24.218 -14.675  0.00  0.00    +0.005 C 
BRANCH  23  24
ATOM     24  C   UNL     1      36.122 -25.664 -15.012  0.00  0.00    +0.026 C 
BRANCH  24  25
ATOM     25  C   UNL     1      37.604 -25.884 -14.898  0.00  0.00    -0.020 C 
ATOM     26  C   UNL     1      38.508 -24.913 -15.081  0.00  0.00    +0.077 C 
BRANCH  26  28
ATOM     27  O   UNL     1      40.675 -24.893 -14.033  0.00  0.00    -0.245 OA
ATOM     28  C   UNL     1      39.945 -25.216 -14.955  0.00  0.00    +0.338 C 
BRANCH  28  29
ATOM     29  O   UNL     1      40.339 -25.920 -16.042  0.00  0.00    -0.477 OA
ATOM     30  H   UNL     1      41.237 -26.167 -16.139  0.00  0.00    +0.295 HD
ENDBRANCH  28  29
ENDBRANCH  26  28
ENDBRANCH  24  25
ENDBRANCH  23  24
ENDBRANCH  22  23
ENDBRANCH  21  22
ENDBRANCH   2  21
TORSDOF 16
ENDMDL
MODEL 3
REMARK VINA RESULT:      -8.6      2.058      6.445
REMARK  Name = 6438378
REMARK  16 active torsions:
REMARK  status: ('A' for Active; 'I' for Inactive)
REMARK    1  A    between atoms: C_2  and  C_21
REMARK    2  A    between atoms: C_3  and  C_9
REMARK    3  A    between atoms: C_4  and  O_7
REMARK    4  A    between atoms: C_10  and  C_11
REMARK    5  A    between atoms: C_11  and  O_12
REMARK    6  A    between atoms: C_11  and  C_14
REMARK    7  A    between atoms: C_14  and  C_15
REMARK    8  A    between atoms: C_15  and  C_17
REMARK    9  A    between atoms: C_17  and  C_18
REMARK   10  A    between atoms: C_18  and  C_19
REMARK   11  A    between atoms: C_21  and  C_22
REMARK   12  A    between atoms: C_22  and  C_23
REMARK   13  A    between atoms: C_23  and  C_24
REMARK   14  A    between atoms: C_24  and  C_25
REMARK   15  A    between atoms: C_26  and  C_28
REMARK   16  A    between atoms: C_28  and  O_29
REMARK                            x       y       z     vdW  Elec       q    Type
REMARK                         _______ _______ _______ _____ _____    ______ ____
ROOT
ATOM      1  O   UNL     1      29.066 -22.740 -17.272  0.00  0.00    -0.296 OA
ATOM      2  C   UNL     1      31.144 -22.753 -16.018  0.00  0.00    +0.064 C 
ATOM      3  C   UNL     1      31.559 -23.850 -15.026  0.00  0.00    +0.056 C 
ATOM      4  C   UNL     1      30.271 -24.143 -14.244  0.00  0.00    +0.122 C 
ATOM      5  C   UNL     1      29.168 -24.120 -15.300  0.00  0.00    +0.094 C 
ATOM      6  C   UNL     1      29.715 -23.155 -16.319  0.00  0.00    +0.153 C 
ENDROOT
BRANCH   4   7
ATOM      7  O   UNL     1      30.350 -25.421 -13.633  0.00  0.00    -0.384 OA
ATOM      8  H   UNL     1      31.224 -25.806 -13.802  0.00  0.00    +0.210 HD
ENDBRANCH   4   7
BRANCH   3   9
ATOM      9  C   UNL     1      32.692 -23.430 -14.144  0.00  0.00    -0.026 C 
ATOM     10  C   UNL     1      33.553 -24.291 -13.581  0.00  0.00    -0.002 C 
BRANCH  10  11
ATOM     11  C   UNL     1      34.724 -23.962 -12.689  0.00  0.00    +0.132 C 
BRANCH  11  12
ATOM     12  O   UNL     1      34.926 -25.069 -11.809  0.00  0.00    -0.380 OA
ATOM     13  H   UNL     1      34.090 -25.285 -11.365  0.00  0.00    +0.211 HD
ENDBRANCH  11  12
BRANCH  11  14
ATOM     14  C   UNL     1      36.054 -23.626 -13.387  0.00  0.00    +0.034 C 
BRANCH  14  15
ATOM     15  C   UNL     1      36.263 -24.309 -14.762  0.00  0.00    +0.003 C 
ATOM     16  C   UNL     1      36.953 -23.314 -15.705  0.00  0.00    +0.000 C 
BRANCH  15  17
ATOM     17  C   UNL     1      37.061 -25.623 -14.633  0.00  0.00    +0.000 C 
BRANCH  17  18
ATOM     18  C   UNL     1      37.907 -25.707 -13.356  0.00  0.00    +0.000 C 
BRANCH  18  19
ATOM     19  C   UNL     1      39.368 -25.303 -13.575  0.00  0.00    +0.000 C 
ATOM     20  C   UNL     1      39.863 -25.565 -14.989  0.00  0.00    +0.000 C 
ENDBRANCH  18  19
ENDBRANCH  17  18
ENDBRANCH  15  17
ENDBRANCH  14  15
ENDBRANCH  11  14
ENDBRANCH  10  11
ENDBRANCH   3   9
BRANCH   2  21
ATOM     21  C   UNL     1      32.012 -22.710 -17.264  0.00  0.00    +0.008 C 
BRANCH  21  22
ATOM     22  C   UNL     1      33.454 -23.163 -17.022  0.00  0.00    +0.001 C 
BRANCH  22  23
ATOM     23  C   UNL     1      34.441 -22.626 -18.062  0.00  0.00    +0.005 C 
BRANCH  23  24
ATOM     24  C   UNL     1      33.705 -22.054 -19.277  0.00  0.00    +0.026 C 
BRANCH  24  25
ATOM     25  C   UNL     1      34.488 -20.942 -19.914  0.00  0.00    -0.020 C 
ATOM     26  C   UNL     1      33.934 -20.003 -20.692  0.00  0.00    +0.077 C 
BRANCH  26  28
ATOM     27  O   UNL     1      35.597 -18.262 -20.695  0.00  0.00    -0.245 OA
ATOM     28  C   UNL     1      34.777 -18.948 -21.283  0.00  0.00    +0.338 C 
BRANCH  28  29
ATOM     29  O   UNL     1      34.497 -18.855 -22.603  0.00  0.00    -0.477 OA
ATOM     30  H   UNL     1      34.402 -18.013 -23.004  0.00  0.00    +0.295 HD
ENDBRANCH  28  29
ENDBRANCH  26  28
ENDBRANCH  24  25
ENDBRANCH  23  24
ENDBRANCH  22  23
ENDBRANCH  21  22
ENDBRANCH   2  21
TORSDOF 16
ENDMDL
MODEL 4
REMARK VINA RESULT:      -8.5      8.298     13.250
REMARK  Name = 6438378
REMARK  16 active torsions:
REMARK  status: ('A' for Active; 'I' for Inactive)
REMARK    1  A    between atoms: C_2  and  C_21
REMARK    2  A    between atoms: C_3  and  C_9
REMARK    3  A    between atoms: C_4  and  O_7
REMARK    4  A    between atoms: C_10  and  C_11
REMARK    5  A    between atoms: C_11  and  O_12
REMARK    6  A    between atoms: C_11  and  C_14
REMARK    7  A    between atoms: C_14  and  C_15
REMARK    8  A    between atoms: C_15  and  C_17
REMARK    9  A    between atoms: C_17  and  C_18
REMARK   10  A    between atoms: C_18  and  C_19
REMARK   11  A    between atoms: C_21  and  C_22
REMARK   12  A    between atoms: C_22  and  C_23
REMARK   13  A    between atoms: C_23  and  C_24
REMARK   14  A    between atoms: C_24  and  C_25
REMARK   15  A    between atoms: C_26  and  C_28
REMARK   16  A    between atoms: C_28  and  O_29
REMARK                            x       y       z     vdW  Elec       q    Type
REMARK                         _______ _______ _______ _____ _____    ______ ____
ROOT
ATOM      1  O   UNL     1      34.524 -17.789 -24.508  0.00  0.00    -0.296 OA
ATOM      2  C   UNL     1      34.215 -15.621 -23.461  0.00  0.00    +0.064 C 
ATOM      3  C   UNL     1      33.251 -14.537 -23.966  0.00  0.00    +0.056 C 
ATOM      4  C   UNL     1      33.445 -14.555 -25.489  0.00  0.00    +0.122 C 
ATOM      5  C   UNL     1      33.551 -16.036 -25.843  0.00  0.00    +0.094 C 
ATOM      6  C   UNL     1      34.141 -16.629 -24.590  0.00  0.00    +0.153 C 
ENDROOT
BRANCH   4   7
ATOM      7  O   UNL     1      32.323 -13.968 -26.130  0.00  0.00    -0.384 OA
ATOM      8  H   UNL     1      32.207 -13.060 -25.813  0.00  0.00    +0.210 HD
ENDBRANCH   4   7
BRANCH   3   9
ATOM      9  C   UNL     1      33.524 -13.197 -23.360  0.00  0.00    -0.026 C 
ATOM     10  C   UNL     1      33.806 -12.100 -24.080  0.00  0.00    -0.002 C 
BRANCH  10  11
ATOM     11  C   UNL     1      34.087 -10.712 -23.560  0.00  0.00    +0.132 C 
BRANCH  11  12
ATOM     12  O   UNL     1      35.223 -10.206 -24.263  0.00  0.00    -0.380 OA
ATOM     13  H   UNL     1      36.021 -10.673 -23.966  0.00  0.00    +0.211 HD
ENDBRANCH  11  12
BRANCH  11  14
ATOM     14  C   UNL     1      32.939  -9.690 -23.658  0.00  0.00    +0.034 C 
BRANCH  14  15
ATOM     15  C   UNL     1      32.993  -8.544 -22.618  0.00  0.00    +0.003 C 
ATOM     16  C   UNL     1      33.051  -7.205 -23.365  0.00  0.00    +0.000 C 
BRANCH  15  17
ATOM     17  C   UNL     1      31.800  -8.601 -21.641  0.00  0.00    +0.000 C 
BRANCH  17  18
ATOM     18  C   UNL     1      32.192  -8.998 -20.212  0.00  0.00    +0.000 C 
BRANCH  18  19
ATOM     19  C   UNL     1      31.447 -10.235 -19.704  0.00  0.00    +0.000 C 
ATOM     20  C   UNL     1      31.131 -11.242 -20.799  0.00  0.00    +0.000 C 
ENDBRANCH  18  19
ENDBRANCH  17  18
ENDBRANCH  15  17
ENDBRANCH  14  15
ENDBRANCH  11  14
ENDBRANCH  10  11
ENDBRANCH   3   9
BRANCH   2  21
ATOM     21  C   UNL     1      33.805 -16.214 -22.124  0.00  0.00    +0.008 C 
BRANCH  21  22
ATOM     22  C   UNL     1      34.991 -16.559 -21.218  0.00  0.00    +0.001 C 
BRANCH  22  23
ATOM     23  C   UNL     1      35.347 -18.048 -21.227  0.00  0.00    +0.005 C 
BRANCH  23  24
ATOM     24  C   UNL     1      34.087 -18.917 -21.280  0.00  0.00    +0.026 C 
BRANCH  24  25
ATOM     25  C   UNL     1      34.282 -20.206 -20.535  0.00  0.00    -0.020 C 
ATOM     26  C   UNL     1      33.316 -20.795 -19.819  0.00  0.00    +0.077 C 
BRANCH  26  28
ATOM     27  O   UNL     1      34.628 -22.705 -19.162  0.00  0.00    -0.245 OA
ATOM     28  C   UNL     1      33.594 -22.059 -19.112  0.00  0.00    +0.338 C 
BRANCH  28  29
ATOM     29  O   UNL     1      32.505 -22.400 -18.385  0.00  0.00    -0.477 OA
ATOM     30  H   UNL     1      32.608 -22.733 -17.515  0.00  0.00    +0.295 HD
ENDBRANCH  28  29
ENDBRANCH  26  28
ENDBRANCH  24  25
ENDBRANCH  23  24
ENDBRANCH  22  23
ENDBRANCH  21  22
ENDBRANCH   2  21
TORSDOF 16
ENDMDL
MODEL 5
REMARK VINA RESULT:      -8.5      8.860     13.702
REMARK  Name = 6438378
REMARK  16 active torsions:
REMARK  status: ('A' for Active; 'I' for Inactive)
REMARK    1  A    between atoms: C_2  and  C_21
REMARK    2  A    between atoms: C_3  and  C_9
REMARK    3  A    between atoms: C_4  and  O_7
REMARK    4  A    between atoms: C_10  and  C_11
REMARK    5  A    between atoms: C_11  and  O_12
REMARK    6  A    between atoms: C_11  and  C_14
REMARK    7  A    between atoms: C_14  and  C_15
REMARK    8  A    between atoms: C_15  and  C_17
REMARK    9  A    between atoms: C_17  and  C_18
REMARK   10  A    between atoms: C_18  and  C_19
REMARK   11  A    between atoms: C_21  and  C_22
REMARK   12  A    between atoms: C_22  and  C_23
REMARK   13  A    between atoms: C_23  and  C_24
REMARK   14  A    between atoms: C_24  and  C_25
REMARK   15  A    between atoms: C_26  and  C_28
REMARK   16  A    between atoms: C_28  and  O_29
REMARK                            x       y       z     vdW  Elec       q    Type
REMARK                         _______ _______ _______ _____ _____    ______ ____
ROOT
ATOM      1  O   UNL     1      34.856 -17.569 -24.362  0.00  0.00    -0.296 OA
ATOM      2  C   UNL     1      34.142 -15.440 -23.440  0.00  0.00    +0.064 C 
ATOM      3  C   UNL     1      33.076 -14.530 -24.068  0.00  0.00    +0.056 C 
ATOM      4  C   UNL     1      33.400 -14.567 -25.568  0.00  0.00    +0.122 C 
ATOM      5  C   UNL     1      33.753 -16.025 -25.847  0.00  0.00    +0.094 C 
ATOM      6  C   UNL     1      34.315 -16.482 -24.526  0.00  0.00    +0.153 C 
ENDROOT
BRANCH   4   7
ATOM      7  O   UNL     1      32.263 -14.176 -26.322  0.00  0.00    -0.384 OA
ATOM      8  H   UNL     1      32.522 -14.026 -27.244  0.00  0.00    +0.210 HD
ENDBRANCH   4   7
BRANCH   3   9
ATOM      9  C   UNL     1      33.096 -13.145 -23.502  0.00  0.00    -0.026 C 
ATOM     10  C   UNL     1      33.805 -12.137 -24.032  0.00  0.00    -0.002 C 
BRANCH  10  11
ATOM     11  C   UNL     1      33.881 -10.713 -23.538  0.00  0.00    +0.132 C 
BRANCH  11  12
ATOM     12  O   UNL     1      35.073 -10.132 -24.068  0.00  0.00    -0.380 OA
ATOM     13  H   UNL     1      34.893  -9.219 -24.345  0.00  0.00    +0.211 HD
ENDBRANCH  11  12
BRANCH  11  14
ATOM     14  C   UNL     1      32.687  -9.800 -23.869  0.00  0.00    +0.034 C 
BRANCH  14  15
ATOM     15  C   UNL     1      31.994  -9.157 -22.642  0.00  0.00    +0.003 C 
ATOM     16  C   UNL     1      31.557 -10.273 -21.683  0.00  0.00    +0.000 C 
BRANCH  15  17
ATOM     17  C   UNL     1      32.906  -8.127 -21.944  0.00  0.00    +0.000 C 
BRANCH  17  18
ATOM     18  C   UNL     1      32.550  -6.670 -22.265  0.00  0.00    +0.000 C 
BRANCH  18  19
ATOM     19  C   UNL     1      31.615  -6.037 -21.231  0.00  0.00    +0.000 C 
ATOM     20  C   UNL     1      30.432  -5.311 -21.850  0.00  0.00    +0.000 C 
ENDBRANCH  18  19
ENDBRANCH  17  18
ENDBRANCH  15  17
ENDBRANCH  14  15
ENDBRANCH  11  14
ENDBRANCH  10  11
ENDBRANCH   3   9
BRANCH   2  21
ATOM     21  C   UNL     1      33.712 -16.045 -22.115  0.00  0.00    +0.008 C 
BRANCH  21  22
ATOM     22  C   UNL     1      34.863 -16.223 -21.121  0.00  0.00    +0.001 C 
BRANCH  22  23
ATOM     23  C   UNL     1      35.334 -17.674 -20.994  0.00  0.00    +0.005 C 
BRANCH  23  24
ATOM     24  C   UNL     1      34.208 -18.653 -21.342  0.00  0.00    +0.026 C 
BRANCH  24  25
ATOM     25  C   UNL     1      34.344 -19.936 -20.573  0.00  0.00    -0.020 C 
ATOM     26  C   UNL     1      33.302 -20.588 -20.041  0.00  0.00    +0.077 C 
BRANCH  26  28
ATOM     27  O   UNL     1      32.709 -22.423 -18.599  0.00  0.00    -0.245 OA
ATOM     28  C   UNL     1      33.524 -21.841 -19.296  0.00  0.00    +0.338 C 
BRANCH  28  29
ATOM     29  O   UNL     1      34.795 -22.254 -19.507  0.00  0.00    -0.477 OA
ATOM     30  H   UNL     1      34.957 -23.055 -19.966  0.00  0.00    +0.295 HD
ENDBRANCH  28  29
ENDBRANCH  26  28
ENDBRANCH  24  25
ENDBRANCH  23  24
ENDBRANCH  22  23
ENDBRANCH  21  22
ENDBRANCH   2  21
TORSDOF 16
ENDMDL
MODEL 6
REMARK VINA RESULT:      -8.4      1.511      1.776
REMARK  Name = 6438378
REMARK  16 active torsions:
REMARK  status: ('A' for Active; 'I' for Inactive)
REMARK    1  A    between atoms: C_2  and  C_21
REMARK    2  A    between atoms: C_3  and  C_9
REMARK    3  A    between atoms: C_4  and  O_7
REMARK    4  A    between atoms: C_10  and  C_11
REMARK    5  A    between atoms: C_11  and  O_12
REMARK    6  A    between atoms: C_11  and  C_14
REMARK    7  A    between atoms: C_14  and  C_15
REMARK    8  A    between atoms: C_15  and  C_17
REMARK    9  A    between atoms: C_17  and  C_18
REMARK   10  A    between atoms: C_18  and  C_19
REMARK   11  A    between atoms: C_21  and  C_22
REMARK   12  A    between atoms: C_22  and  C_23
REMARK   13  A    between atoms: C_23  and  C_24
REMARK   14  A    between atoms: C_24  and  C_25
REMARK   15  A    between atoms: C_26  and  C_28
REMARK   16  A    between atoms: C_28  and  O_29
REMARK                            x       y       z     vdW  Elec       q    Type
REMARK                         _______ _______ _______ _____ _____    ______ ____
ROOT
ATOM      1  O   UNL     1      39.432 -24.417 -15.361  0.00  0.00    -0.296 OA
ATOM      2  C   UNL     1      37.116 -23.746 -15.076  0.00  0.00    +0.064 C 
ATOM      3  C   UNL     1      36.435 -23.517 -13.719  0.00  0.00    +0.056 C 
ATOM      4  C   UNL     1      36.933 -24.684 -12.856  0.00  0.00    +0.122 C 
ATOM      5  C   UNL     1      38.410 -24.824 -13.218  0.00  0.00    +0.094 C 
ATOM      6  C   UNL     1      38.444 -24.334 -14.642  0.00  0.00    +0.153 C 
ENDROOT
BRANCH   4   7
ATOM      7  O   UNL     1      36.784 -24.373 -11.480  0.00  0.00    -0.384 OA
ATOM      8  H   UNL     1      36.355 -25.114 -11.025  0.00  0.00    +0.210 HD
ENDBRANCH   4   7
BRANCH   3   9
ATOM      9  C   UNL     1      34.943 -23.467 -13.825  0.00  0.00    -0.026 C 
ATOM     10  C   UNL     1      34.183 -24.537 -14.104  0.00  0.00    -0.002 C 
BRANCH  10  11
ATOM     11  C   UNL     1      32.680 -24.585 -14.225  0.00  0.00    +0.132 C 
BRANCH  11  12
ATOM     12  O   UNL     1      32.168 -25.190 -13.037  0.00  0.00    -0.380 OA
ATOM     13  H   UNL     1      32.312 -24.596 -12.283  0.00  0.00    +0.211 HD
ENDBRANCH  11  12
BRANCH  11  14
ATOM     14  C   UNL     1      31.961 -23.243 -14.455  0.00  0.00    +0.034 C 
BRANCH  14  15
ATOM     15  C   UNL     1      31.289 -23.090 -15.842  0.00  0.00    +0.003 C 
ATOM     16  C   UNL     1      32.376 -23.143 -16.924  0.00  0.00    +0.000 C 
BRANCH  15  17
ATOM     17  C   UNL     1      30.200 -24.159 -16.072  0.00  0.00    +0.000 C 
BRANCH  17  18
ATOM     18  C   UNL     1      28.931 -23.935 -15.240  0.00  0.00    +0.000 C 
BRANCH  18  19
ATOM     19  C   UNL     1      28.102 -22.739 -15.718  0.00  0.00    +0.000 C 
ATOM     20  C   UNL     1      27.797 -22.771 -17.207  0.00  0.00    +0.000 C 
ENDBRANCH  18  19
ENDBRANCH  17  18
ENDBRANCH  15  17
ENDBRANCH  14  15
ENDBRANCH  11  14
ENDBRANCH  10  11
ENDBRANCH   3   9
BRANCH   2  21
ATOM     21  C   UNL     1      37.282 -22.473 -15.889  0.00  0.00    +0.008 C 
BRANCH  21  22
ATOM     22  C   UNL     1      36.133 -22.219 -16.869  0.00  0.00    +0.001 C 
BRANCH  22  23
ATOM     23  C   UNL     1      36.597 -21.641 -18.208  0.00  0.00    +0.005 C 
BRANCH  23  24
ATOM     24  C   UNL     1      35.601 -21.965 -19.325  0.00  0.00    +0.026 C 
BRANCH  24  25
ATOM     25  C   UNL     1      35.166 -20.720 -20.045  0.00  0.00    -0.020 C 
ATOM     26  C   UNL     1      36.024 -19.845 -20.585  0.00  0.00    +0.077 C 
BRANCH  26  28
ATOM     27  O   UNL     1      35.446 -17.519 -20.808  0.00  0.00    -0.245 OA
ATOM     28  C   UNL     1      35.513 -18.645 -21.272  0.00  0.00    +0.338 C 
BRANCH  28  29
ATOM     29  O   UNL     1      35.122 -18.990 -22.520  0.00  0.00    -0.477 OA
ATOM     30  H   UNL     1      34.637 -19.781 -22.657  0.00  0.00    +0.295 HD
ENDBRANCH  28  29
ENDBRANCH  26  28
ENDBRANCH  24  25
ENDBRANCH  23  24
ENDBRANCH  22  23
ENDBRANCH  21  22
ENDBRANCH   2  21
TORSDOF 16
ENDMDL
MODEL 7
REMARK VINA RESULT:      -8.3      8.158     12.917
REMARK  Name = 6438378
REMARK  16 active torsions:
REMARK  status: ('A' for Active; 'I' for Inactive)
REMARK    1  A    between atoms: C_2  and  C_21
REMARK    2  A    between atoms: C_3  and  C_9
REMARK    3  A    between atoms: C_4  and  O_7
REMARK    4  A    between atoms: C_10  and  C_11
REMARK    5  A    between atoms: C_11  and  O_12
REMARK    6  A    between atoms: C_11  and  C_14
REMARK    7  A    between atoms: C_14  and  C_15
REMARK    8  A    between atoms: C_15  and  C_17
REMARK    9  A    between atoms: C_17  and  C_18
REMARK   10  A    between atoms: C_18  and  C_19
REMARK   11  A    between atoms: C_21  and  C_22
REMARK   12  A    between atoms: C_22  and  C_23
REMARK   13  A    between atoms: C_23  and  C_24
REMARK   14  A    between atoms: C_24  and  C_25
REMARK   15  A    between atoms: C_26  and  C_28
REMARK   16  A    between atoms: C_28  and  O_29
REMARK                            x       y       z     vdW  Elec       q    Type
REMARK                         _______ _______ _______ _____ _____    ______ ____
ROOT
ATOM      1  O   UNL     1      34.992 -17.825 -24.309  0.00  0.00    -0.296 OA
ATOM      2  C   UNL     1      34.355 -15.767 -23.190  0.00  0.00    +0.064 C 
ATOM      3  C   UNL     1      33.276 -14.797 -23.695  0.00  0.00    +0.056 C 
ATOM      4  C   UNL     1      33.532 -14.719 -25.207  0.00  0.00    +0.122 C 
ATOM      5  C   UNL     1      33.849 -16.155 -25.616  0.00  0.00    +0.094 C 
ATOM      6  C   UNL     1      34.462 -16.722 -24.361  0.00  0.00    +0.153 C 
ENDROOT
BRANCH   4   7
ATOM      7  O   UNL     1      32.368 -14.255 -25.875  0.00  0.00    -0.384 OA
ATOM      8  H   UNL     1      32.606 -13.532 -26.475  0.00  0.00    +0.210 HD
ENDBRANCH   4   7
BRANCH   3   9
ATOM      9  C   UNL     1      33.343 -13.462 -23.023  0.00  0.00    -0.026 C 
ATOM     10  C   UNL     1      32.326 -12.587 -23.007  0.00  0.00    -0.002 C 
BRANCH  10  11
ATOM     11  C   UNL     1      32.300 -11.227 -22.352  0.00  0.00    +0.132 C 
BRANCH  11  12
ATOM     12  O   UNL     1      32.520 -10.251 -23.371  0.00  0.00    -0.380 OA
ATOM     13  H   UNL     1      31.697  -9.761 -23.532  0.00  0.00    +0.211 HD
ENDBRANCH  11  12
BRANCH  11  14
ATOM     14  C   UNL     1      31.027 -10.860 -21.570  0.00  0.00    +0.034 C 
BRANCH  14  15
ATOM     15  C   UNL     1      31.273 -10.188 -20.196  0.00  0.00    +0.003 C 
ATOM     16  C   UNL     1      31.498 -11.284 -19.146  0.00  0.00    +0.000 C 
BRANCH  15  17
ATOM     17  C   UNL     1      32.452  -9.195 -20.248  0.00  0.00    +0.000 C 
BRANCH  17  18
ATOM     18  C   UNL     1      32.017  -7.727 -20.346  0.00  0.00    +0.000 C 
BRANCH  18  19
ATOM     19  C   UNL     1      32.416  -7.068 -21.670  0.00  0.00    +0.000 C 
ATOM     20  C   UNL     1      31.282  -7.010 -22.681  0.00  0.00    +0.000 C 
ENDBRANCH  18  19
ENDBRANCH  17  18
ENDBRANCH  15  17
ENDBRANCH  14  15
ENDBRANCH  11  14
ENDBRANCH  10  11
ENDBRANCH   3   9
BRANCH   2  21
ATOM     21  C   UNL     1      33.974 -16.470 -21.899  0.00  0.00    +0.008 C 
BRANCH  21  22
ATOM     22  C   UNL     1      35.159 -17.137 -21.193  0.00  0.00    +0.001 C 
BRANCH  22  23
ATOM     23  C   UNL     1      34.998 -18.652 -21.042  0.00  0.00    +0.005 C 
BRANCH  23  24
ATOM     24  C   UNL     1      33.549 -19.081 -21.285  0.00  0.00    +0.026 C 
BRANCH  24  25
ATOM     25  C   UNL     1      33.173 -20.250 -20.420  0.00  0.00    -0.020 C 
ATOM     26  C   UNL     1      34.073 -21.027 -19.802  0.00  0.00    +0.077 C 
BRANCH  26  28
ATOM     27  O   UNL     1      32.514 -22.293 -18.475  0.00  0.00    -0.245 OA
ATOM     28  C   UNL     1      33.619 -22.158 -18.973  0.00  0.00    +0.338 C 
BRANCH  28  29
ATOM     29  O   UNL     1      34.636 -23.042 -18.848  0.00  0.00    -0.477 OA
ATOM     30  H   UNL     1      35.522 -22.753 -18.950  0.00  0.00    +0.295 HD
ENDBRANCH  28  29
ENDBRANCH  26  28
ENDBRANCH  24  25
ENDBRANCH  23  24
ENDBRANCH  22  23
ENDBRANCH  21  22
ENDBRANCH   2  21
TORSDOF 16
ENDMDL
MODEL 8
REMARK VINA RESULT:      -8.3      1.960      5.357
REMARK  Name = 6438378
REMARK  16 active torsions:
REMARK  status: ('A' for Active; 'I' for Inactive)
REMARK    1  A    between atoms: C_2  and  C_21
REMARK    2  A    between atoms: C_3  and  C_9
REMARK    3  A    between atoms: C_4  and  O_7
REMARK    4  A    between atoms: C_10  and  C_11
REMARK    5  A    between atoms: C_11  and  O_12
REMARK    6  A    between atoms: C_11  and  C_14
REMARK    7  A    between atoms: C_14  and  C_15
REMARK    8  A    between atoms: C_15  and  C_17
REMARK    9  A    between atoms: C_17  and  C_18
REMARK   10  A    between atoms: C_18  and  C_19
REMARK   11  A    between atoms: C_21  and  C_22
REMARK   12  A    between atoms: C_22  and  C_23
REMARK   13  A    between atoms: C_23  and  C_24
REMARK   14  A    between atoms: C_24  and  C_25
REMARK   15  A    between atoms: C_26  and  C_28
REMARK   16  A    between atoms: C_28  and  O_29
REMARK                            x       y       z     vdW  Elec       q    Type
REMARK                         _______ _______ _______ _____ _____    ______ ____
ROOT
ATOM      1  O   UNL     1      37.195 -21.009 -17.543  0.00  0.00    -0.296 OA
ATOM      2  C   UNL     1      35.914 -22.361 -15.987  0.00  0.00    +0.064 C 
ATOM      3  C   UNL     1      34.947 -23.483 -16.396  0.00  0.00    +0.056 C 
ATOM      4  C   UNL     1      34.191 -22.896 -17.596  0.00  0.00    +0.122 C 
ATOM      5  C   UNL     1      35.261 -22.161 -18.400  0.00  0.00    +0.094 C 
ATOM      6  C   UNL     1      36.246 -21.754 -17.335  0.00  0.00    +0.153 C 
ENDROOT
BRANCH   4   7
ATOM      7  O   UNL     1      33.616 -23.938 -18.368  0.00  0.00    -0.384 OA
ATOM      8  H   UNL     1      34.313 -24.404 -18.854  0.00  0.00    +0.210 HD
ENDBRANCH   4   7
BRANCH   3   9
ATOM      9  C   UNL     1      34.039 -23.894 -15.281  0.00  0.00    -0.026 C 
ATOM     10  C   UNL     1      32.925 -23.226 -14.945  0.00  0.00    -0.002 C 
BRANCH  10  11
ATOM     11  C   UNL     1      31.949 -23.567 -13.846  0.00  0.00    +0.132 C 
BRANCH  11  12
ATOM     12  O   UNL     1      32.304 -22.799 -12.696  0.00  0.00    -0.380 OA
ATOM     13  H   UNL     1      32.814 -23.352 -12.082  0.00  0.00    +0.211 HD
ENDBRANCH  11  12
BRANCH  11  14
ATOM     14  C   UNL     1      30.456 -23.352 -14.154  0.00  0.00    +0.034 C 
BRANCH  14  15
ATOM     15  C   UNL     1      29.934 -24.088 -15.413  0.00  0.00    +0.003 C 
ATOM     16  C   UNL     1      30.167 -25.594 -15.235  0.00  0.00    +0.000 C 
BRANCH  15  17
ATOM     17  C   UNL     1      28.450 -23.768 -15.688  0.00  0.00    +0.000 C 
BRANCH  17  18
ATOM     18  C   UNL     1      28.202 -22.316 -16.120  0.00  0.00    +0.000 C 
BRANCH  18  19
ATOM     19  C   UNL     1      26.720 -21.998 -16.338  0.00  0.00    +0.000 C 
ATOM     20  C   UNL     1      26.402 -21.542 -17.754  0.00  0.00    +0.000 C 
ENDBRANCH  18  19
ENDBRANCH  17  18
ENDBRANCH  15  17
ENDBRANCH  14  15
ENDBRANCH  11  14
ENDBRANCH  10  11
ENDBRANCH   3   9
BRANCH   2  21
ATOM     21  C   UNL     1      37.146 -22.866 -15.257  0.00  0.00    +0.008 C 
BRANCH  21  22
ATOM     22  C   UNL     1      37.223 -24.393 -15.170  0.00  0.00    +0.001 C 
BRANCH  22  23
ATOM     23  C   UNL     1      38.616 -24.908 -14.796  0.00  0.00    +0.005 C 
BRANCH  23  24
ATOM     24  C   UNL     1      38.712 -25.205 -13.297  0.00  0.00    +0.026 C 
BRANCH  24  25
ATOM     25  C   UNL     1      37.355 -25.198 -12.652  0.00  0.00    -0.020 C 
ATOM     26  C   UNL     1      37.001 -24.333 -11.693  0.00  0.00    +0.077 C 
BRANCH  26  28
ATOM     27  O   UNL     1      35.309 -25.060 -10.142  0.00  0.00    -0.245 OA
ATOM     28  C   UNL     1      35.649 -24.399 -11.109  0.00  0.00    +0.338 C 
BRANCH  28  29
ATOM     29  O   UNL     1      34.827 -23.597 -11.825  0.00  0.00    -0.477 OA
ATOM     30  H   UNL     1      33.900 -23.738 -11.804  0.00  0.00    +0.295 HD
ENDBRANCH  28  29
ENDBRANCH  26  28
ENDBRANCH  24  25
ENDBRANCH  23  24
ENDBRANCH  22  23
ENDBRANCH  21  22
ENDBRANCH   2  21
TORSDOF 16
ENDMDL
MODEL 9
REMARK VINA RESULT:      -8.3      7.276     11.894
REMARK  Name = 6438378
REMARK  16 active torsions:
REMARK  status: ('A' for Active; 'I' for Inactive)
REMARK    1  A    between atoms: C_2  and  C_21
REMARK    2  A    between atoms: C_3  and  C_9
REMARK    3  A    between atoms: C_4  and  O_7
REMARK    4  A    between atoms: C_10  and  C_11
REMARK    5  A    between atoms: C_11  and  O_12
REMARK    6  A    between atoms: C_11  and  C_14
REMARK    7  A    between atoms: C_14  and  C_15
REMARK    8  A    between atoms: C_15  and  C_17
REMARK    9  A    between atoms: C_17  and  C_18
REMARK   10  A    between atoms: C_18  and  C_19
REMARK   11  A    between atoms: C_21  and  C_22
REMARK   12  A    between atoms: C_22  and  C_23
REMARK   13  A    between atoms: C_23  and  C_24
REMARK   14  A    between atoms: C_24  and  C_25
REMARK   15  A    between atoms: C_26  and  C_28
REMARK   16  A    between atoms: C_28  and  O_29
REMARK                            x       y       z     vdW  Elec       q    Type
REMARK                         _______ _______ _______ _____ _____    ______ ____
ROOT
ATOM      1  O   UNL     1      32.567 -13.323 -24.803  0.00  0.00    -0.296 OA
ATOM      2  C   UNL     1      33.485 -15.056 -23.373  0.00  0.00    +0.064 C 
ATOM      3  C   UNL     1      34.480 -16.132 -23.833  0.00  0.00    +0.056 C 
ATOM      4  C   UNL     1      33.938 -16.571 -25.201  0.00  0.00    +0.122 C 
ATOM      5  C   UNL     1      33.494 -15.274 -25.871  0.00  0.00    +0.094 C 
ATOM      6  C   UNL     1      33.117 -14.412 -24.694  0.00  0.00    +0.153 C 
ENDROOT
BRANCH   4   7
ATOM      7  O   UNL     1      34.965 -17.196 -25.955  0.00  0.00    -0.384 OA
ATOM      8  H   UNL     1      35.085 -18.107 -25.646  0.00  0.00    +0.210 HD
ENDBRANCH   4   7
BRANCH   3   9
ATOM      9  C   UNL     1      34.594 -17.264 -22.862  0.00  0.00    -0.026 C 
ATOM     10  C   UNL     1      35.720 -17.966 -22.668  0.00  0.00    -0.002 C 
BRANCH  10  11
ATOM     11  C   UNL     1      35.930 -19.113 -21.710  0.00  0.00    +0.132 C 
BRANCH  11  12
ATOM     12  O   UNL     1      36.073 -18.564 -20.400  0.00  0.00    -0.380 OA
ATOM     13  H   UNL     1      35.383 -18.925 -19.821  0.00  0.00    +0.211 HD
ENDBRANCH  11  12
BRANCH  11  14
ATOM     14  C   UNL     1      34.842 -20.201 -21.684  0.00  0.00    +0.034 C 
BRANCH  14  15
ATOM     15  C   UNL     1      34.024 -20.278 -20.370  0.00  0.00    +0.003 C 
ATOM     16  C   UNL     1      32.670 -19.593 -20.594  0.00  0.00    +0.000 C 
BRANCH  15  17
ATOM     17  C   UNL     1      33.856 -21.733 -19.885  0.00  0.00    +0.000 C 
BRANCH  17  18
ATOM     18  C   UNL     1      34.686 -22.067 -18.640  0.00  0.00    +0.000 C 
BRANCH  18  19
ATOM     19  C   UNL     1      36.158 -21.665 -18.772  0.00  0.00    +0.000 C 
ATOM     20  C   UNL     1      36.908 -21.669 -17.449  0.00  0.00    +0.000 C 
ENDBRANCH  18  19
ENDBRANCH  17  18
ENDBRANCH  15  17
ENDBRANCH  14  15
ENDBRANCH  11  14
ENDBRANCH  10  11
ENDBRANCH   3   9
BRANCH   2  21
ATOM     21  C   UNL     1      34.084 -14.065 -22.389  0.00  0.00    +0.008 C 
BRANCH  21  22
ATOM     22  C   UNL     1      33.166 -13.750 -21.204  0.00  0.00    +0.001 C 
BRANCH  22  23
ATOM     23  C   UNL     1      31.956 -12.895 -21.587  0.00  0.00    +0.005 C 
BRANCH  23  24
ATOM     24  C   UNL     1      31.555 -11.960 -20.443  0.00  0.00    +0.026 C 
BRANCH  24  25
ATOM     25  C   UNL     1      31.866 -10.528 -20.774  0.00  0.00    -0.020 C 
ATOM     26  C   UNL     1      31.941  -9.559 -19.852  0.00  0.00    +0.077 C 
BRANCH  26  28
ATOM     27  O   UNL     1      32.908  -7.365 -19.638  0.00  0.00    -0.245 OA
ATOM     28  C   UNL     1      32.248  -8.177 -20.264  0.00  0.00    +0.338 C 
BRANCH  28  29
ATOM     29  O   UNL     1      31.673  -7.943 -21.467  0.00  0.00    -0.477 OA
ATOM     30  H   UNL     1      31.171  -7.164 -21.602  0.00  0.00    +0.295 HD
ENDBRANCH  28  29
ENDBRANCH  26  28
ENDBRANCH  24  25
ENDBRANCH  23  24
ENDBRANCH  22  23
ENDBRANCH  21  22
ENDBRANCH   2  21
TORSDOF 16
ENDMDL
