MODEL 1
REMARK VINA RESULT:     -11.6      0.000      0.000
REMARK  Name = 16719221
REMARK  6 active torsions:
REMARK  status: ('A' for Active; 'I' for Inactive)
REMARK    1  A    between atoms: C_3  and  C_20
REMARK    2  A    between atoms: C_11  and  O_13
REMARK    3  A    between atoms: O_13  and  C_16
REMARK    4  A    between atoms: C_20  and  C_24
REMARK    5  A    between atoms: N_22  and  S_30
REMARK    6  A    between atoms: S_30  and  N_33
REMARK                            x       y       z     vdW  Elec       q    Type
REMARK                         _______ _______ _______ _____ _____    ______ ____
ROOT
ATOM      1  O   UNL     1      33.232 -21.456 -19.373  0.00  0.00    -0.421 OA
ATOM      2  O   UNL     1      32.355 -20.462 -21.215  0.00  0.00    -0.245 OA
ATOM      3  C   UNL     1      34.718 -20.305 -20.957  0.00  0.00    +0.054 A 
ATOM      4  C   UNL     1      35.797 -20.580 -20.193  0.00  0.00    -0.016 A 
ATOM      5  C   UNL     1      35.628 -21.371 -18.957  0.00  0.00    +0.031 A 
ATOM      6  C   UNL     1      34.349 -21.779 -18.588  0.00  0.00    +0.151 A 
ATOM      7  C   UNL     1      33.349 -20.735 -20.550  0.00  0.00    +0.342 A 
ATOM      8  C   UNL     1      37.194 -20.112 -20.518  0.00  0.00    +0.031 C 
ATOM      9  C   UNL     1      36.687 -21.752 -18.118  0.00  0.00    +0.006 C 
ATOM     10  C   UNL     1      34.101 -22.529 -17.435  0.00  0.00    +0.076 C 
ATOM     11  C   UNL     1      35.166 -22.891 -16.616  0.00  0.00    +0.162 C 
ATOM     12  C   UNL     1      36.458 -22.503 -16.958  0.00  0.00    +0.039 C 
ENDROOT
BRANCH  11  13
ATOM     13  O   UNL     1      34.946 -23.619 -15.490  0.00  0.00    -0.392 OA
BRANCH  13  16
ATOM     14  N   UNL     1      36.856 -23.977 -14.215  0.00  0.00    -0.185 NA
ATOM     15  N   UNL     1      35.907 -25.733 -15.565  0.00  0.00    -0.162 NA
ATOM     16  C   UNL     1      35.947 -24.481 -15.072  0.00  0.00    +0.196 C 
ATOM     17  C   UNL     1      37.816 -24.843 -13.829  0.00  0.00    +0.167 C 
ATOM     18  C   UNL     1      36.896 -26.545 -15.139  0.00  0.00    +0.110 C 
ATOM     19  C   UNL     1      37.887 -26.152 -14.262  0.00  0.00    +0.022 C 
ENDBRANCH  13  16
ENDBRANCH  11  13
BRANCH   3  20
ATOM     20  C   UNL     1      34.758 -19.566 -22.271  0.00  0.00    +0.061 C 
BRANCH  20  24
ATOM     21  F   UNL     1      34.657 -17.733 -24.436  0.00  0.00    -0.202 F 
ATOM     22  N   UNL     1      34.527 -14.967 -24.068  0.00  0.00    -0.187 N 
ATOM     23  N   UNL     1      34.560 -15.310 -21.736  0.00  0.00    -0.226 NA
ATOM     24  C   UNL     1      34.689 -18.079 -22.086  0.00  0.00    +0.014 C 
ATOM     25  C   UNL     1      34.641 -17.237 -23.192  0.00  0.00    +0.169 C 
ATOM     26  C   UNL     1      34.672 -17.538 -20.805  0.00  0.00    +0.019 C 
ATOM     27  C   UNL     1      34.579 -15.872 -22.965  0.00  0.00    +0.175 C 
ATOM     28  C   UNL     1      34.607 -16.159 -20.685  0.00  0.00    +0.100 C 
ATOM     29  H   UNL     1      35.095 -15.098 -24.862  0.00  0.00    +0.176 HD
BRANCH  22  30
ATOM     30  S   UNL     1      33.429 -13.633 -23.958  0.00  0.00    +0.111 S 
ATOM     31  O   UNL     1      32.293 -14.049 -23.157  0.00  0.00    -0.138 OA
ATOM     32  O   UNL     1      34.159 -12.430 -23.603  0.00  0.00    -0.138 OA
BRANCH  30  33
ATOM     33  N   UNL     1      32.911 -13.476 -25.594  0.00  0.00    -0.165 NA
ATOM     34  C   UNL     1      32.892 -14.698 -26.428  0.00  0.00    +0.112 C 
ATOM     35  H   UNL     1      33.534 -12.807 -26.048  0.00  0.00    +0.150 HD
ENDBRANCH  30  33
ENDBRANCH  22  30
ENDBRANCH  20  24
ENDBRANCH   3  20
TORSDOF 6
ENDMDL
MODEL 2
REMARK VINA RESULT:     -11.6      3.629     10.552
REMARK  Name = 16719221
REMARK  6 active torsions:
REMARK  status: ('A' for Active; 'I' for Inactive)
REMARK    1  A    between atoms: C_3  and  C_20
REMARK    2  A    between atoms: C_11  and  O_13
REMARK    3  A    between atoms: O_13  and  C_16
REMARK    4  A    between atoms: C_20  and  C_24
REMARK    5  A    between atoms: N_22  and  S_30
REMARK    6  A    between atoms: S_30  and  N_33
REMARK                            x       y       z     vdW  Elec       q    Type
REMARK                         _______ _______ _______ _____ _____    ______ ____
ROOT
ATOM      1  O   UNL     1      32.945 -19.413 -20.227  0.00  0.00    -0.421 OA
ATOM      2  O   UNL     1      32.303 -21.307 -19.152  0.00  0.00    -0.245 OA
ATOM      3  C   UNL     1      34.570 -21.226 -19.883  0.00  0.00    +0.054 A 
ATOM      4  C   UNL     1      35.527 -20.535 -20.537  0.00  0.00    -0.016 A 
ATOM      5  C   UNL     1      35.223 -19.182 -21.049  0.00  0.00    +0.031 A 
ATOM      6  C   UNL     1      33.940 -18.669 -20.878  0.00  0.00    +0.151 A 
ATOM      7  C   UNL     1      33.193 -20.676 -19.713  0.00  0.00    +0.342 A 
ATOM      8  C   UNL     1      36.913 -21.067 -20.800  0.00  0.00    +0.031 C 
ATOM      9  C   UNL     1      36.157 -18.362 -21.701  0.00  0.00    +0.006 C 
ATOM     10  C   UNL     1      33.570 -17.401 -21.331  0.00  0.00    +0.076 C 
ATOM     11  C   UNL     1      34.511 -16.607 -21.978  0.00  0.00    +0.162 C 
ATOM     12  C   UNL     1      35.804 -17.087 -22.162  0.00  0.00    +0.039 C 
ENDROOT
BRANCH  11  13
ATOM     13  O   UNL     1      34.170 -15.370 -22.428  0.00  0.00    -0.392 OA
BRANCH  13  16
ATOM     14  N   UNL     1      33.378 -14.032 -24.155  0.00  0.00    -0.185 NA
ATOM     15  N   UNL     1      33.971 -16.337 -24.531  0.00  0.00    -0.162 NA
ATOM     16  C   UNL     1      33.824 -15.241 -23.763  0.00  0.00    +0.196 C 
ATOM     17  C   UNL     1      33.050 -13.941 -25.460  0.00  0.00    +0.167 C 
ATOM     18  C   UNL     1      33.625 -16.176 -25.825  0.00  0.00    +0.110 C 
ATOM     19  C   UNL     1      33.154 -14.991 -26.351  0.00  0.00    +0.022 C 
ENDBRANCH  13  16
ENDBRANCH  11  13
BRANCH   3  20
ATOM     20  C   UNL     1      34.763 -22.583 -19.256  0.00  0.00    +0.061 C 
BRANCH  20  24
ATOM     21  F   UNL     1      33.327 -23.449 -16.965  0.00  0.00    -0.202 F 
ATOM     22  N   UNL     1      34.361 -23.265 -14.377  0.00  0.00    -0.187 N 
ATOM     23  N   UNL     1      36.326 -22.313 -15.265  0.00  0.00    -0.226 NA
ATOM     24  C   UNL     1      35.307 -22.489 -17.861  0.00  0.00    +0.014 C 
ATOM     25  C   UNL     1      34.550 -22.933 -16.782  0.00  0.00    +0.169 C 
ATOM     26  C   UNL     1      36.574 -21.958 -17.643  0.00  0.00    +0.019 C 
ATOM     27  C   UNL     1      35.099 -22.823 -15.516  0.00  0.00    +0.175 C 
ATOM     28  C   UNL     1      37.033 -21.892 -16.338  0.00  0.00    +0.100 C 
ATOM     29  H   UNL     1      33.399 -23.074 -14.286  0.00  0.00    +0.176 HD
BRANCH  22  30
ATOM     30  S   UNL     1      35.219 -24.149 -13.160  0.00  0.00    +0.111 S 
ATOM     31  O   UNL     1      34.255 -24.621 -12.182  0.00  0.00    -0.138 OA
ATOM     32  O   UNL     1      36.125 -25.091 -13.790  0.00  0.00    -0.138 OA
BRANCH  30  33
ATOM     33  N   UNL     1      36.165 -22.907 -12.433  0.00  0.00    -0.165 NA
ATOM     34  C   UNL     1      37.491 -23.280 -11.892  0.00  0.00    +0.112 C 
ATOM     35  H   UNL     1      35.620 -22.520 -11.662  0.00  0.00    +0.150 HD
ENDBRANCH  30  33
ENDBRANCH  22  30
ENDBRANCH  20  24
ENDBRANCH   3  20
TORSDOF 6
ENDMDL
MODEL 3
REMARK VINA RESULT:     -11.6      4.152     10.983
REMARK  Name = 16719221
REMARK  6 active torsions:
REMARK  status: ('A' for Active; 'I' for Inactive)
REMARK    1  A    between atoms: C_3  and  C_20
REMARK    2  A    between atoms: C_11  and  O_13
REMARK    3  A    between atoms: O_13  and  C_16
REMARK    4  A    between atoms: C_20  and  C_24
REMARK    5  A    between atoms: N_22  and  S_30
REMARK    6  A    between atoms: S_30  and  N_33
REMARK                            x       y       z     vdW  Elec       q    Type
REMARK                         _______ _______ _______ _____ _____    ______ ____
ROOT
ATOM      1  O   UNL     1      34.599 -15.380 -21.842  0.00  0.00    -0.421 OA
ATOM      2  O   UNL     1      35.422 -16.608 -20.120  0.00  0.00    -0.245 OA
ATOM      3  C   UNL     1      35.237 -17.724 -22.218  0.00  0.00    +0.054 A 
ATOM      4  C   UNL     1      34.849 -17.655 -23.509  0.00  0.00    -0.016 A 
ATOM      5  C   UNL     1      34.334 -16.379 -24.045  0.00  0.00    +0.031 A 
ATOM      6  C   UNL     1      34.225 -15.285 -23.191  0.00  0.00    +0.151 A 
ATOM      7  C   UNL     1      35.106 -16.551 -21.304  0.00  0.00    +0.342 A 
ATOM      8  C   UNL     1      34.893 -18.826 -24.459  0.00  0.00    +0.031 C 
ATOM      9  C   UNL     1      33.948 -16.187 -25.381  0.00  0.00    +0.006 C 
ATOM     10  C   UNL     1      33.748 -14.042 -23.616  0.00  0.00    +0.076 C 
ATOM     11  C   UNL     1      33.366 -13.877 -24.943  0.00  0.00    +0.162 C 
ATOM     12  C   UNL     1      33.468 -14.948 -25.825  0.00  0.00    +0.039 C 
ENDROOT
BRANCH  11  13
ATOM     13  O   UNL     1      32.899 -12.676 -25.377  0.00  0.00    -0.392 OA
BRANCH  13  16
ATOM     14  N   UNL     1      33.215 -10.811 -24.028  0.00  0.00    -0.185 NA
ATOM     15  N   UNL     1      34.712 -11.302 -25.851  0.00  0.00    -0.162 NA
ATOM     16  C   UNL     1      33.641 -11.546 -25.072  0.00  0.00    +0.196 C 
ATOM     17  C   UNL     1      33.960  -9.718 -23.759  0.00  0.00    +0.167 C 
ATOM     18  C   UNL     1      35.411 -10.195 -25.527  0.00  0.00    +0.110 C 
ATOM     19  C   UNL     1      35.080  -9.358 -24.482  0.00  0.00    +0.022 C 
ENDBRANCH  13  16
ENDBRANCH  11  13
BRANCH   3  20
ATOM     20  C   UNL     1      35.839 -18.941 -21.562  0.00  0.00    +0.061 C 
BRANCH  20  24
ATOM     21  F   UNL     1      36.446 -21.375 -20.233  0.00  0.00    -0.202 F 
ATOM     22  N   UNL     1      34.508 -22.908 -18.930  0.00  0.00    -0.187 N 
ATOM     23  N   UNL     1      32.881 -21.319 -19.552  0.00  0.00    -0.226 NA
ATOM     24  C   UNL     1      34.808 -19.773 -20.860  0.00  0.00    +0.014 C 
ATOM     25  C   UNL     1      35.173 -20.956 -20.227  0.00  0.00    +0.169 C 
ATOM     26  C   UNL     1      33.479 -19.362 -20.839  0.00  0.00    +0.019 C 
ATOM     27  C   UNL     1      34.182 -21.687 -19.594  0.00  0.00    +0.175 C 
ATOM     28  C   UNL     1      32.563 -20.163 -20.177  0.00  0.00    +0.100 C 
ATOM     29  H   UNL     1      35.126 -23.559 -19.334  0.00  0.00    +0.176 HD
BRANCH  22  30
ATOM     30  S   UNL     1      33.778 -23.201 -17.387  0.00  0.00    +0.111 S 
ATOM     31  O   UNL     1      33.631 -24.636 -17.224  0.00  0.00    -0.138 OA
ATOM     32  O   UNL     1      34.463 -22.427 -16.369  0.00  0.00    -0.138 OA
BRANCH  30  33
ATOM     33  N   UNL     1      32.213 -22.517 -17.611  0.00  0.00    -0.165 NA
ATOM     34  C   UNL     1      31.163 -22.869 -16.630  0.00  0.00    +0.112 C 
ATOM     35  H   UNL     1      31.881 -22.810 -18.530  0.00  0.00    +0.150 HD
ENDBRANCH  30  33
ENDBRANCH  22  30
ENDBRANCH  20  24
ENDBRANCH   3  20
TORSDOF 6
ENDMDL
MODEL 4
REMARK VINA RESULT:     -11.3      4.150     10.674
REMARK  Name = 16719221
REMARK  6 active torsions:
REMARK  status: ('A' for Active; 'I' for Inactive)
REMARK    1  A    between atoms: C_3  and  C_20
REMARK    2  A    between atoms: C_11  and  O_13
REMARK    3  A    between atoms: O_13  and  C_16
REMARK    4  A    between atoms: C_20  and  C_24
REMARK    5  A    between atoms: N_22  and  S_30
REMARK    6  A    between atoms: S_30  and  N_33
REMARK                            x       y       z     vdW  Elec       q    Type
REMARK                         _______ _______ _______ _____ _____    ______ ____
ROOT
ATOM      1  O   UNL     1      33.429 -15.276 -24.387  0.00  0.00    -0.421 OA
ATOM      2  O   UNL     1      34.428 -16.961 -25.533  0.00  0.00    -0.245 OA
ATOM      3  C   UNL     1      34.736 -16.966 -23.170  0.00  0.00    +0.054 A 
ATOM      4  C   UNL     1      34.506 -16.343 -21.995  0.00  0.00    -0.016 A 
ATOM      5  C   UNL     1      33.661 -15.131 -21.969  0.00  0.00    +0.031 A 
ATOM      6  C   UNL     1      33.154 -14.638 -23.168  0.00  0.00    +0.151 A 
ATOM      7  C   UNL     1      34.199 -16.426 -24.453  0.00  0.00    +0.342 A 
ATOM      8  C   UNL     1      35.080 -16.803 -20.677  0.00  0.00    +0.031 C 
ATOM      9  C   UNL     1      33.323 -14.435 -20.798  0.00  0.00    +0.006 C 
ATOM     10  C   UNL     1      32.347 -13.499 -23.232  0.00  0.00    +0.076 C 
ATOM     11  C   UNL     1      32.029 -12.823 -22.059  0.00  0.00    +0.162 C 
ATOM     12  C   UNL     1      32.515 -13.292 -20.843  0.00  0.00    +0.039 C 
ENDROOT
BRANCH  11  13
ATOM     13  O   UNL     1      31.246 -11.712 -22.101  0.00  0.00    -0.392 OA
BRANCH  13  16
ATOM     14  N   UNL     1      32.515 -10.035 -23.089  0.00  0.00    -0.185 NA
ATOM     15  N   UNL     1      31.762  -9.852 -20.808  0.00  0.00    -0.162 NA
ATOM     16  C   UNL     1      31.869 -10.479 -21.994  0.00  0.00    +0.196 C 
ATOM     17  C   UNL     1      33.109  -8.832 -22.952  0.00  0.00    +0.167 C 
ATOM     18  C   UNL     1      32.380  -8.654 -20.739  0.00  0.00    +0.110 C 
ATOM     19  C   UNL     1      33.074  -8.088 -21.788  0.00  0.00    +0.022 C 
ENDBRANCH  13  16
ENDBRANCH  11  13
BRANCH   3  20
ATOM     20  C   UNL     1      35.523 -18.242 -23.330  0.00  0.00    +0.061 C 
BRANCH  20  24
ATOM     21  F   UNL     1      33.329 -19.566 -22.106  0.00  0.00    -0.202 F 
ATOM     22  N   UNL     1      33.565 -20.977 -19.707  0.00  0.00    -0.187 N 
ATOM     23  N   UNL     1      35.854 -20.416 -19.641  0.00  0.00    -0.226 NA
ATOM     24  C   UNL     1      35.636 -19.001 -22.041  0.00  0.00    +0.014 C 
ATOM     25  C   UNL     1      34.521 -19.628 -21.496  0.00  0.00    +0.169 C 
ATOM     26  C   UNL     1      36.861 -19.082 -21.387  0.00  0.00    +0.019 C 
ATOM     27  C   UNL     1      34.681 -20.316 -20.305  0.00  0.00    +0.175 C 
ATOM     28  C   UNL     1      36.917 -19.795 -20.201  0.00  0.00    +0.100 C 
ATOM     29  H   UNL     1      32.678 -20.550 -19.672  0.00  0.00    +0.176 HD
BRANCH  22  30
ATOM     30  S   UNL     1      33.829 -22.555 -19.046  0.00  0.00    +0.111 S 
ATOM     31  O   UNL     1      32.695 -22.886 -18.203  0.00  0.00    -0.138 OA
ATOM     32  O   UNL     1      34.229 -23.465 -20.103  0.00  0.00    -0.138 OA
BRANCH  30  33
ATOM     33  N   UNL     1      35.196 -22.281 -18.034  0.00  0.00    -0.165 NA
ATOM     34  C   UNL     1      35.136 -22.792 -16.646  0.00  0.00    +0.112 C 
ATOM     35  H   UNL     1      35.339 -21.273 -17.981  0.00  0.00    +0.150 HD
ENDBRANCH  30  33
ENDBRANCH  22  30
ENDBRANCH  20  24
ENDBRANCH   3  20
TORSDOF 6
ENDMDL
MODEL 5
REMARK VINA RESULT:     -11.3      4.312      6.912
REMARK  Name = 16719221
REMARK  6 active torsions:
REMARK  status: ('A' for Active; 'I' for Inactive)
REMARK    1  A    between atoms: C_3  and  C_20
REMARK    2  A    between atoms: C_11  and  O_13
REMARK    3  A    between atoms: O_13  and  C_16
REMARK    4  A    between atoms: C_20  and  C_24
REMARK    5  A    between atoms: N_22  and  S_30
REMARK    6  A    between atoms: S_30  and  N_33
REMARK                            x       y       z     vdW  Elec       q    Type
REMARK                         _______ _______ _______ _____ _____    ______ ____
ROOT
ATOM      1  O   UNL     1      33.844 -15.365 -20.795  0.00  0.00    -0.421 OA
ATOM      2  O   UNL     1      32.458 -13.573 -20.663  0.00  0.00    -0.245 OA
ATOM      3  C   UNL     1      32.891 -14.412 -22.850  0.00  0.00    +0.054 A 
ATOM      4  C   UNL     1      33.556 -15.306 -23.611  0.00  0.00    -0.016 A 
ATOM      5  C   UNL     1      34.398 -16.331 -22.958  0.00  0.00    +0.031 A 
ATOM      6  C   UNL     1      34.514 -16.323 -21.571  0.00  0.00    +0.151 A 
ATOM      7  C   UNL     1      33.029 -14.401 -21.365  0.00  0.00    +0.342 A 
ATOM      8  C   UNL     1      33.510 -15.322 -25.119  0.00  0.00    +0.031 C 
ATOM      9  C   UNL     1      35.093 -17.334 -23.652  0.00  0.00    +0.006 C 
ATOM     10  C   UNL     1      35.288 -17.255 -20.875  0.00  0.00    +0.076 C 
ATOM     11  C   UNL     1      35.972 -18.236 -21.583  0.00  0.00    +0.162 C 
ATOM     12  C   UNL     1      35.874 -18.277 -22.971  0.00  0.00    +0.039 C 
ENDROOT
BRANCH  11  13
ATOM     13  O   UNL     1      36.731 -19.152 -20.925  0.00  0.00    -0.392 OA
BRANCH  13  16
ATOM     14  N   UNL     1      36.788 -20.767 -19.255  0.00  0.00    -0.185 NA
ATOM     15  N   UNL     1      34.790 -20.371 -20.542  0.00  0.00    -0.162 NA
ATOM     16  C   UNL     1      36.075 -20.141 -20.210  0.00  0.00    +0.196 C 
ATOM     17  C   UNL     1      36.119 -21.723 -18.578  0.00  0.00    +0.167 C 
ATOM     18  C   UNL     1      34.182 -21.340 -19.827  0.00  0.00    +0.110 C 
ATOM     19  C   UNL     1      34.802 -22.056 -18.823  0.00  0.00    +0.022 C 
ENDBRANCH  13  16
ENDBRANCH  11  13
BRANCH   3  20
ATOM     20  C   UNL     1      31.952 -13.359 -23.381  0.00  0.00    +0.061 C 
BRANCH  20  24
ATOM     21  F   UNL     1      30.740 -11.018 -22.325  0.00  0.00    -0.202 F 
ATOM     22  N   UNL     1      31.957  -8.506 -22.437  0.00  0.00    -0.187 N 
ATOM     23  N   UNL     1      33.797  -9.484 -23.542  0.00  0.00    -0.226 NA
ATOM     24  C   UNL     1      32.594 -12.004 -23.437  0.00  0.00    +0.014 C 
ATOM     25  C   UNL     1      31.945 -10.898 -22.899  0.00  0.00    +0.169 C 
ATOM     26  C   UNL     1      33.844 -11.852 -24.027  0.00  0.00    +0.019 C 
ATOM     27  C   UNL     1      32.583  -9.671 -22.976  0.00  0.00    +0.175 C 
ATOM     28  C   UNL     1      34.397 -10.582 -24.053  0.00  0.00    +0.100 C 
ATOM     29  H   UNL     1      30.996  -8.336 -22.569  0.00  0.00    +0.176 HD
BRANCH  22  30
ATOM     30  S   UNL     1      32.950  -7.405 -21.544  0.00  0.00    +0.111 S 
ATOM     31  O   UNL     1      34.291  -7.457 -22.097  0.00  0.00    -0.138 OA
ATOM     32  O   UNL     1      32.271  -6.128 -21.420  0.00  0.00    -0.138 OA
BRANCH  30  33
ATOM     33  N   UNL     1      32.975  -8.146 -19.989  0.00  0.00    -0.165 NA
ATOM     34  C   UNL     1      31.852  -9.042 -19.637  0.00  0.00    +0.112 C 
ATOM     35  H   UNL     1      32.997  -7.398 -19.295  0.00  0.00    +0.150 HD
ENDBRANCH  30  33
ENDBRANCH  22  30
ENDBRANCH  20  24
ENDBRANCH   3  20
TORSDOF 6
ENDMDL
MODEL 6
REMARK VINA RESULT:     -11.3      2.543      3.516
REMARK  Name = 16719221
REMARK  6 active torsions:
REMARK  status: ('A' for Active; 'I' for Inactive)
REMARK    1  A    between atoms: C_3  and  C_20
REMARK    2  A    between atoms: C_11  and  O_13
REMARK    3  A    between atoms: O_13  and  C_16
REMARK    4  A    between atoms: C_20  and  C_24
REMARK    5  A    between atoms: N_22  and  S_30
REMARK    6  A    between atoms: S_30  and  N_33
REMARK                            x       y       z     vdW  Elec       q    Type
REMARK                         _______ _______ _______ _____ _____    ______ ____
ROOT
ATOM      1  O   UNL     1      32.577 -21.203 -19.638  0.00  0.00    -0.421 OA
ATOM      2  O   UNL     1      32.468 -19.995 -21.557  0.00  0.00    -0.245 OA
ATOM      3  C   UNL     1      34.653 -20.533 -20.773  0.00  0.00    +0.054 A 
ATOM      4  C   UNL     1      35.402 -21.111 -19.811  0.00  0.00    -0.016 A 
ATOM      5  C   UNL     1      34.736 -21.819 -18.698  0.00  0.00    +0.031 A 
ATOM      6  C   UNL     1      33.344 -21.838 -18.650  0.00  0.00    +0.151 A 
ATOM      7  C   UNL     1      33.163 -20.546 -20.709  0.00  0.00    +0.342 A 
ATOM      8  C   UNL     1      36.910 -21.070 -19.785  0.00  0.00    +0.031 C 
ATOM      9  C   UNL     1      35.419 -22.493 -17.674  0.00  0.00    +0.006 C 
ATOM     10  C   UNL     1      32.635 -22.484 -17.634  0.00  0.00    +0.076 C 
ATOM     11  C   UNL     1      33.334 -23.140 -16.627  0.00  0.00    +0.162 C 
ATOM     12  C   UNL     1      34.725 -23.146 -16.647  0.00  0.00    +0.039 C 
ENDROOT
BRANCH  11  13
ATOM     13  O   UNL     1      32.663 -23.774 -15.629  0.00  0.00    -0.392 OA
BRANCH  13  16
ATOM     14  N   UNL     1      30.575 -24.676 -16.106  0.00  0.00    -0.185 NA
ATOM     15  N   UNL     1      30.794 -22.516 -15.061  0.00  0.00    -0.162 NA
ATOM     16  C   UNL     1      31.283 -23.650 -15.598  0.00  0.00    +0.196 C 
ATOM     17  C   UNL     1      29.235 -24.522 -16.060  0.00  0.00    +0.167 C 
ATOM     18  C   UNL     1      29.448 -22.428 -15.047  0.00  0.00    +0.110 C 
ATOM     19  C   UNL     1      28.609 -23.408 -15.537  0.00  0.00    +0.022 C 
ENDBRANCH  13  16
ENDBRANCH  11  13
BRANCH   3  20
ATOM     20  C   UNL     1      35.203 -19.837 -21.992  0.00  0.00    +0.061 C 
BRANCH  20  24
ATOM     21  F   UNL     1      34.731 -18.231 -24.286  0.00  0.00    -0.202 F 
ATOM     22  N   UNL     1      34.374 -15.465 -24.144  0.00  0.00    -0.187 N 
ATOM     23  N   UNL     1      34.653 -15.582 -21.806  0.00  0.00    -0.226 NA
ATOM     24  C   UNL     1      35.011 -18.351 -21.929  0.00  0.00    +0.014 C 
ATOM     25  C   UNL     1      34.783 -17.624 -23.093  0.00  0.00    +0.169 C 
ATOM     26  C   UNL     1      35.060 -17.694 -20.704  0.00  0.00    +0.019 C 
ATOM     27  C   UNL     1      34.612 -16.254 -22.979  0.00  0.00    +0.175 C 
ATOM     28  C   UNL     1      34.876 -16.321 -20.697  0.00  0.00    +0.100 C 
ATOM     29  H   UNL     1      34.877 -15.620 -24.977  0.00  0.00    +0.176 HD
BRANCH  22  30
ATOM     30  S   UNL     1      33.170 -14.225 -24.040  0.00  0.00    +0.111 S 
ATOM     31  O   UNL     1      32.623 -14.016 -25.368  0.00  0.00    -0.138 OA
ATOM     32  O   UNL     1      32.279 -14.504 -22.930  0.00  0.00    -0.138 OA
BRANCH  30  33
ATOM     33  N   UNL     1      34.124 -12.852 -23.625  0.00  0.00    -0.165 NA
ATOM     34  C   UNL     1      33.770 -11.556 -24.245  0.00  0.00    +0.112 C 
ATOM     35  H   UNL     1      35.088 -13.061 -23.884  0.00  0.00    +0.150 HD
ENDBRANCH  30  33
ENDBRANCH  22  30
ENDBRANCH  20  24
ENDBRANCH   3  20
TORSDOF 6
ENDMDL
MODEL 7
REMARK VINA RESULT:     -11.3      3.754     10.358
REMARK  Name = 16719221
REMARK  6 active torsions:
REMARK  status: ('A' for Active; 'I' for Inactive)
REMARK    1  A    between atoms: C_3  and  C_20
REMARK    2  A    between atoms: C_11  and  O_13
REMARK    3  A    between atoms: O_13  and  C_16
REMARK    4  A    between atoms: C_20  and  C_24
REMARK    5  A    between atoms: N_22  and  S_30
REMARK    6  A    between atoms: S_30  and  N_33
REMARK                            x       y       z     vdW  Elec       q    Type
REMARK                         _______ _______ _______ _____ _____    ______ ____
ROOT
ATOM      1  O   UNL     1      33.178 -19.352 -20.447  0.00  0.00    -0.421 OA
ATOM      2  O   UNL     1      32.165 -20.994 -19.250  0.00  0.00    -0.245 OA
ATOM      3  C   UNL     1      34.460 -21.345 -19.790  0.00  0.00    +0.054 A 
ATOM      4  C   UNL     1      35.559 -20.885 -20.424  0.00  0.00    -0.016 A 
ATOM      5  C   UNL     1      35.514 -19.568 -21.091  0.00  0.00    +0.031 A 
ATOM      6  C   UNL     1      34.323 -18.847 -21.081  0.00  0.00    +0.151 A 
ATOM      7  C   UNL     1      33.183 -20.573 -19.793  0.00  0.00    +0.342 A 
ATOM      8  C   UNL     1      36.855 -21.651 -20.514  0.00  0.00    +0.031 C 
ATOM      9  C   UNL     1      36.612 -18.978 -21.738  0.00  0.00    +0.006 C 
ATOM     10  C   UNL     1      34.195 -17.595 -21.687  0.00  0.00    +0.076 C 
ATOM     11  C   UNL     1      35.295 -17.032 -22.326  0.00  0.00    +0.162 C 
ATOM     12  C   UNL     1      36.503 -17.722 -22.350  0.00  0.00    +0.039 C 
ENDROOT
BRANCH  11  13
ATOM     13  O   UNL     1      35.191 -15.815 -22.922  0.00  0.00    -0.392 OA
BRANCH  13  16
ATOM     14  N   UNL     1      34.092 -14.736 -21.182  0.00  0.00    -0.185 NA
ATOM     15  N   UNL     1      33.364 -14.486 -23.465  0.00  0.00    -0.162 NA
ATOM     16  C   UNL     1      34.170 -14.976 -22.504  0.00  0.00    +0.196 C 
ATOM     17  C   UNL     1      33.088 -13.915 -20.810  0.00  0.00    +0.167 C 
ATOM     18  C   UNL     1      32.382 -13.674 -23.024  0.00  0.00    +0.110 C 
ATOM     19  C   UNL     1      32.193 -13.349 -21.696  0.00  0.00    +0.022 C 
ENDBRANCH  13  16
ENDBRANCH  11  13
BRANCH   3  20
ATOM     20  C   UNL     1      34.387 -22.638 -19.018  0.00  0.00    +0.061 C 
BRANCH  20  24
ATOM     21  F   UNL     1      33.184 -23.592 -16.630  0.00  0.00    -0.202 F 
ATOM     22  N   UNL     1      34.414 -23.380 -14.131  0.00  0.00    -0.187 N 
ATOM     23  N   UNL     1      36.253 -22.325 -15.163  0.00  0.00    -0.226 NA
ATOM     24  C   UNL     1      35.037 -22.529 -17.670  0.00  0.00    +0.014 C 
ATOM     25  C   UNL     1      34.391 -23.018 -16.540  0.00  0.00    +0.169 C 
ATOM     26  C   UNL     1      36.290 -21.938 -17.548  0.00  0.00    +0.019 C 
ATOM     27  C   UNL     1      35.035 -22.892 -15.320  0.00  0.00    +0.175 C 
ATOM     28  C   UNL     1      36.850 -21.861 -16.283  0.00  0.00    +0.100 C 
ATOM     29  H   UNL     1      33.454 -23.237 -13.962  0.00  0.00    +0.176 HD
BRANCH  22  30
ATOM     30  S   UNL     1      35.409 -24.231 -12.998  0.00  0.00    +0.111 S 
ATOM     31  O   UNL     1      34.549 -24.774 -11.962  0.00  0.00    -0.138 OA
ATOM     32  O   UNL     1      36.317 -25.109 -13.712  0.00  0.00    -0.138 OA
BRANCH  30  33
ATOM     33  N   UNL     1      36.334 -22.947 -12.318  0.00  0.00    -0.165 NA
ATOM     34  C   UNL     1      37.708 -23.256 -11.864  0.00  0.00    +0.112 C 
ATOM     35  H   UNL     1      35.819 -22.594 -11.512  0.00  0.00    +0.150 HD
ENDBRANCH  30  33
ENDBRANCH  22  30
ENDBRANCH  20  24
ENDBRANCH   3  20
TORSDOF 6
ENDMDL
MODEL 8
REMARK VINA RESULT:     -11.2      2.517      3.658
REMARK  Name = 16719221
REMARK  6 active torsions:
REMARK  status: ('A' for Active; 'I' for Inactive)
REMARK    1  A    between atoms: C_3  and  C_20
REMARK    2  A    between atoms: C_11  and  O_13
REMARK    3  A    between atoms: O_13  and  C_16
REMARK    4  A    between atoms: C_20  and  C_24
REMARK    5  A    between atoms: N_22  and  S_30
REMARK    6  A    between atoms: S_30  and  N_33
REMARK                            x       y       z     vdW  Elec       q    Type
REMARK                         _______ _______ _______ _____ _____    ______ ____
ROOT
ATOM      1  O   UNL     1      36.445 -20.307 -20.672  0.00  0.00    -0.421 OA
ATOM      2  O   UNL     1      37.773 -18.770 -21.685  0.00  0.00    -0.245 OA
ATOM      3  C   UNL     1      35.468 -18.200 -21.478  0.00  0.00    +0.054 A 
ATOM      4  C   UNL     1      34.237 -18.582 -21.078  0.00  0.00    -0.016 A 
ATOM      5  C   UNL     1      34.065 -19.882 -20.398  0.00  0.00    +0.031 A 
ATOM      6  C   UNL     1      35.177 -20.701 -20.220  0.00  0.00    +0.151 A 
ATOM      7  C   UNL     1      36.653 -19.088 -21.296  0.00  0.00    +0.342 A 
ATOM      8  C   UNL     1      32.992 -17.758 -21.298  0.00  0.00    +0.031 C 
ATOM      9  C   UNL     1      32.839 -20.353 -19.902  0.00  0.00    +0.006 C 
ATOM     10  C   UNL     1      35.102 -21.944 -19.587  0.00  0.00    +0.076 C 
ATOM     11  C   UNL     1      33.876 -22.392 -19.108  0.00  0.00    +0.162 C 
ATOM     12  C   UNL     1      32.745 -21.596 -19.264  0.00  0.00    +0.039 C 
ENDROOT
BRANCH  11  13
ATOM     13  O   UNL     1      33.782 -23.600 -18.490  0.00  0.00    -0.392 OA
BRANCH  13  16
ATOM     14  N   UNL     1      34.751 -23.762 -16.384  0.00  0.00    -0.185 NA
ATOM     15  N   UNL     1      32.374 -23.465 -16.647  0.00  0.00    -0.162 NA
ATOM     16  C   UNL     1      33.629 -23.610 -17.113  0.00  0.00    +0.196 C 
ATOM     17  C   UNL     1      34.566 -23.767 -15.048  0.00  0.00    +0.167 C 
ATOM     18  C   UNL     1      32.261 -23.479 -15.303  0.00  0.00    +0.110 C 
ATOM     19  C   UNL     1      33.331 -23.628 -14.445  0.00  0.00    +0.022 C 
ENDBRANCH  13  16
ENDBRANCH  11  13
BRANCH   3  20
ATOM     20  C   UNL     1      35.793 -16.877 -22.124  0.00  0.00    +0.061 C 
BRANCH  20  24
ATOM     21  F   UNL     1      34.344 -14.507 -22.715  0.00  0.00    -0.202 F 
ATOM     22  N   UNL     1      32.950 -14.148 -25.108  0.00  0.00    -0.187 N 
ATOM     23  N   UNL     1      33.639 -16.296 -25.793  0.00  0.00    -0.226 NA
ATOM     24  C   UNL     1      35.040 -16.672 -23.404  0.00  0.00    +0.014 C 
ATOM     25  C   UNL     1      34.351 -15.486 -23.631  0.00  0.00    +0.169 C 
ATOM     26  C   UNL     1      35.029 -17.671 -24.372  0.00  0.00    +0.019 C 
ATOM     27  C   UNL     1      33.671 -15.348 -24.830  0.00  0.00    +0.175 C 
ATOM     28  C   UNL     1      34.320 -17.436 -25.539  0.00  0.00    +0.100 C 
ATOM     29  H   UNL     1      32.399 -13.712 -24.418  0.00  0.00    +0.176 HD
BRANCH  22  30
ATOM     30  S   UNL     1      33.080 -13.487 -26.703  0.00  0.00    +0.111 S 
ATOM     31  O   UNL     1      34.095 -14.237 -27.420  0.00  0.00    -0.138 OA
ATOM     32  O   UNL     1      31.756 -13.337 -27.277  0.00  0.00    -0.138 OA
BRANCH  30  33
ATOM     33  N   UNL     1      33.698 -11.913 -26.375  0.00  0.00    -0.165 NA
ATOM     34  C   UNL     1      34.108 -11.612 -24.986  0.00  0.00    +0.112 C 
ATOM     35  H   UNL     1      32.974 -11.242 -26.632  0.00  0.00    +0.150 HD
ENDBRANCH  30  33
ENDBRANCH  22  30
ENDBRANCH  20  24
ENDBRANCH   3  20
TORSDOF 6
ENDMDL
MODEL 9
REMARK VINA RESULT:     -11.1      3.529     10.710
REMARK  Name = 16719221
REMARK  6 active torsions:
REMARK  status: ('A' for Active; 'I' for Inactive)
REMARK    1  A    between atoms: C_3  and  C_20
REMARK    2  A    between atoms: C_11  and  O_13
REMARK    3  A    between atoms: O_13  and  C_16
REMARK    4  A    between atoms: C_20  and  C_24
REMARK    5  A    between atoms: N_22  and  S_30
REMARK    6  A    between atoms: S_30  and  N_33
REMARK                            x       y       z     vdW  Elec       q    Type
REMARK                         _______ _______ _______ _____ _____    ______ ____
ROOT
ATOM      1  O   UNL     1      36.227 -17.912 -21.311  0.00  0.00    -0.421 OA
ATOM      2  O   UNL     1      37.525 -19.748 -20.999  0.00  0.00    -0.245 OA
ATOM      3  C   UNL     1      35.186 -20.036 -20.643  0.00  0.00    +0.054 A 
ATOM      4  C   UNL     1      33.965 -19.463 -20.606  0.00  0.00    -0.016 A 
ATOM      5  C   UNL     1      33.821 -18.039 -20.972  0.00  0.00    +0.031 A 
ATOM      6  C   UNL     1      34.959 -17.311 -21.309  0.00  0.00    +0.151 A 
ATOM      7  C   UNL     1      36.404 -19.249 -20.994  0.00  0.00    +0.342 A 
ATOM      8  C   UNL     1      32.710 -20.190 -20.192  0.00  0.00    +0.031 C 
ATOM      9  C   UNL     1      32.594 -17.359 -21.011  0.00  0.00    +0.006 C 
ATOM     10  C   UNL     1      34.912 -15.962 -21.667  0.00  0.00    +0.076 C 
ATOM     11  C   UNL     1      33.685 -15.307 -21.695  0.00  0.00    +0.162 C 
ATOM     12  C   UNL     1      32.526 -16.005 -21.368  0.00  0.00    +0.039 C 
ENDROOT
BRANCH  11  13
ATOM     13  O   UNL     1      33.617 -13.994 -22.040  0.00  0.00    -0.392 OA
BRANCH  13  16
ATOM     14  N   UNL     1      33.171 -14.680 -24.215  0.00  0.00    -0.185 NA
ATOM     15  N   UNL     1      33.841 -12.417 -23.731  0.00  0.00    -0.162 NA
ATOM     16  C   UNL     1      33.540 -13.684 -23.388  0.00  0.00    +0.196 C 
ATOM     17  C   UNL     1      33.106 -14.343 -25.519  0.00  0.00    +0.167 C 
ATOM     18  C   UNL     1      33.756 -12.149 -25.050  0.00  0.00    +0.110 C 
ATOM     19  C   UNL     1      33.390 -13.081 -26.000  0.00  0.00    +0.022 C 
ENDBRANCH  13  16
ENDBRANCH  11  13
BRANCH   3  20
ATOM     20  C   UNL     1      35.465 -21.491 -20.358  0.00  0.00    +0.061 C 
BRANCH  20  24
ATOM     21  F   UNL     1      33.539 -22.737 -18.684  0.00  0.00    -0.202 F 
ATOM     22  N   UNL     1      33.980 -23.207 -15.967  0.00  0.00    -0.187 N 
ATOM     23  N   UNL     1      36.113 -22.225 -16.177  0.00  0.00    -0.226 NA
ATOM     24  C   UNL     1      35.689 -21.747 -18.897  0.00  0.00    +0.014 C 
ATOM     25  C   UNL     1      34.703 -22.364 -18.134  0.00  0.00    +0.169 C 
ATOM     26  C   UNL     1      36.887 -21.370 -18.301  0.00  0.00    +0.019 C 
ATOM     27  C   UNL     1      34.961 -22.577 -16.791  0.00  0.00    +0.175 C 
ATOM     28  C   UNL     1      37.049 -21.629 -16.950  0.00  0.00    +0.100 C 
ATOM     29  H   UNL     1      33.026 -22.972 -16.039  0.00  0.00    +0.176 HD
BRANCH  22  30
ATOM     30  S   UNL     1      34.529 -24.398 -14.836  0.00  0.00    +0.111 S 
ATOM     31  O   UNL     1      33.364 -25.003 -14.217  0.00  0.00    -0.138 OA
ATOM     32  O   UNL     1      35.529 -25.241 -15.464  0.00  0.00    -0.138 OA
BRANCH  30  33
ATOM     33  N   UNL     1      35.321 -23.419 -13.660  0.00  0.00    -0.165 NA
ATOM     34  C   UNL     1      35.379 -23.926 -12.271  0.00  0.00    +0.112 C 
ATOM     35  H   UNL     1      34.838 -22.521 -13.637  0.00  0.00    +0.150 HD
ENDBRANCH  30  33
ENDBRANCH  22  30
ENDBRANCH  20  24
ENDBRANCH   3  20
TORSDOF 6
ENDMDL
