MODEL 1
REMARK VINA RESULT:     -10.4      0.000      0.000
REMARK  Name = 5326885
REMARK  8 active torsions:
REMARK  status: ('A' for Active; 'I' for Inactive)
REMARK    1  A    between atoms: N_3  and  C_19
REMARK    2  A    between atoms: C_6  and  C_11
REMARK    3  A    between atoms: C_18  and  O_24
REMARK    4  A    between atoms: O_24  and  C_25
REMARK    5  A    between atoms: C_25  and  C_26
REMARK    6  A    between atoms: C_26  and  C_27
REMARK    7  A    between atoms: C_27  and  C_29
REMARK    8  A    between atoms: C_29  and  O_30
REMARK                            x       y       z     vdW  Elec       q    Type
REMARK                         _______ _______ _______ _____ _____    ______ ____
ROOT
ATOM      1  O   UNL     1      31.973 -12.781 -21.868  0.00  0.00    -0.252 OA
ATOM      2  O   UNL     1      30.922 -10.287 -21.227  0.00  0.00    -0.270 OA
ATOM      3  N   UNL     1      33.400 -12.714 -23.737  0.00  0.00    -0.267 N 
ATOM      4  N   UNL     1      32.382 -10.778 -22.974  0.00  0.00    -0.236 N 
ATOM      5  C   UNL     1      32.534 -12.165 -22.771  0.00  0.00    +0.310 C 
ATOM      6  C   UNL     1      31.591  -9.934 -22.195  0.00  0.00    +0.253 C 
ATOM      7  H   UNL     1      33.765 -12.080 -24.395  0.00  0.00    +0.156 HD
ATOM      8  H   UNL     1      32.873 -10.374 -23.725  0.00  0.00    +0.159 HD
ENDROOT
BRANCH   6  11
ATOM      9 CL   UNL     1      32.775  -7.915 -20.180  0.00  0.00    -0.082 Cl
ATOM     10 CL   UNL     1      31.615  -4.179 -23.874  0.00  0.00    -0.082 Cl
ATOM     11  C   UNL     1      31.612  -8.500 -22.577  0.00  0.00    +0.064 C 
ATOM     12  C   UNL     1      32.128  -7.518 -21.731  0.00  0.00    +0.063 C 
ATOM     13  C   UNL     1      31.099  -8.146 -23.825  0.00  0.00    +0.006 C 
ATOM     14  C   UNL     1      32.130  -6.182 -22.132  0.00  0.00    +0.023 C 
ATOM     15  C   UNL     1      31.100  -6.810 -24.225  0.00  0.00    +0.012 C 
ATOM     16  C   UNL     1      31.616  -5.827 -23.379  0.00  0.00    +0.059 C 
ENDBRANCH   6  11
BRANCH   3  19
ATOM     17 CL   UNL     1      32.635 -14.075 -26.346  0.00  0.00    -0.081 Cl
ATOM     18  C   UNL     1      34.646 -16.695 -24.103  0.00  0.00    +0.139 C 
ATOM     19  C   UNL     1      33.806 -14.045 -23.881  0.00  0.00    +0.062 C 
ATOM     20  C   UNL     1      33.933 -16.100 -25.144  0.00  0.00    +0.050 C 
ATOM     21  C   UNL     1      34.938 -15.965 -22.951  0.00  0.00    +0.038 C 
ATOM     22  C   UNL     1      33.514 -14.774 -25.033  0.00  0.00    +0.074 C 
ATOM     23  C   UNL     1      34.519 -14.640 -22.839  0.00  0.00    +0.019 C 
BRANCH  18  24
ATOM     24  O   UNL     1      35.058 -17.998 -24.210  0.00  0.00    -0.475 OA
BRANCH  24  25
ATOM     25  C   UNL     1      35.651 -18.581 -23.059  0.00  0.00    +0.206 C 
BRANCH  25  26
ATOM     26  C   UNL     1      34.711 -19.616 -22.456  0.00  0.00    +0.059 C 
BRANCH  26  27
ATOM     27  C   UNL     1      34.149 -19.172 -21.105  0.00  0.00    +0.113 C 
BRANCH  27  29
ATOM     28  O   UNL     1      32.576 -20.615 -19.934  0.00  0.00    -0.250 OA
ATOM     29  C   UNL     1      33.725 -20.349 -20.255  0.00  0.00    +0.314 C 
BRANCH  29  30
ATOM     30  O   UNL     1      34.795 -21.098 -19.877  0.00  0.00    -0.480 OA
ATOM     31  H   UNL     1      35.476 -21.286 -20.492  0.00  0.00    +0.295 HD
ENDBRANCH  29  30
ENDBRANCH  27  29
ENDBRANCH  26  27
ENDBRANCH  25  26
ENDBRANCH  24  25
ENDBRANCH  18  24
ENDBRANCH   3  19
TORSDOF 8
ENDMDL
MODEL 2
REMARK VINA RESULT:     -10.3      4.647      7.477
REMARK  Name = 5326885
REMARK  8 active torsions:
REMARK  status: ('A' for Active; 'I' for Inactive)
REMARK    1  A    between atoms: N_3  and  C_19
REMARK    2  A    between atoms: C_6  and  C_11
REMARK    3  A    between atoms: C_18  and  O_24
REMARK    4  A    between atoms: O_24  and  C_25
REMARK    5  A    between atoms: C_25  and  C_26
REMARK    6  A    between atoms: C_26  and  C_27
REMARK    7  A    between atoms: C_27  and  C_29
REMARK    8  A    between atoms: C_29  and  O_30
REMARK                            x       y       z     vdW  Elec       q    Type
REMARK                         _______ _______ _______ _____ _____    ______ ____
ROOT
ATOM      1  O   UNL     1      35.204 -17.067 -20.333  0.00  0.00    -0.252 OA
ATOM      2  O   UNL     1      35.081 -14.676 -21.748  0.00  0.00    -0.270 OA
ATOM      3  N   UNL     1      34.187 -18.854 -21.477  0.00  0.00    -0.267 N 
ATOM      4  N   UNL     1      34.236 -16.739 -22.421  0.00  0.00    -0.236 N 
ATOM      5  C   UNL     1      34.605 -17.520 -21.306  0.00  0.00    +0.310 C 
ATOM      6  C   UNL     1      34.496 -15.377 -22.569  0.00  0.00    +0.253 C 
ATOM      7  H   UNL     1      33.715 -19.051 -22.317  0.00  0.00    +0.156 HD
ATOM      8  H   UNL     1      33.758 -17.192 -23.152  0.00  0.00    +0.159 HD
ENDROOT
BRANCH   6  11
ATOM      9 CL   UNL     1      34.154 -17.236 -25.012  0.00  0.00    -0.082 Cl
ATOM     10 CL   UNL     1      32.659 -12.796 -27.659  0.00  0.00    -0.082 Cl
ATOM     11  C   UNL     1      34.043 -14.772 -23.847  0.00  0.00    +0.064 C 
ATOM     12  C   UNL     1      33.861 -15.534 -25.001  0.00  0.00    +0.063 C 
ATOM     13  C   UNL     1      33.796 -13.399 -23.871  0.00  0.00    +0.006 C 
ATOM     14  C   UNL     1      33.432 -14.924 -26.179  0.00  0.00    +0.023 C 
ATOM     15  C   UNL     1      33.368 -12.789 -25.050  0.00  0.00    +0.012 C 
ATOM     16  C   UNL     1      33.186 -13.551 -26.205  0.00  0.00    +0.059 C 
ENDBRANCH   6  11
BRANCH   3  19
ATOM     17 CL   UNL     1      37.059 -19.626 -20.846  0.00  0.00    -0.081 Cl
ATOM     18  C   UNL     1      34.629 -22.097 -18.866  0.00  0.00    +0.139 C 
ATOM     19  C   UNL     1      34.359 -19.935 -20.606  0.00  0.00    +0.062 C 
ATOM     20  C   UNL     1      35.764 -21.464 -19.373  0.00  0.00    +0.050 C 
ATOM     21  C   UNL     1      33.359 -21.650 -19.229  0.00  0.00    +0.038 C 
ATOM     22  C   UNL     1      35.629 -20.382 -20.242  0.00  0.00    +0.074 C 
ATOM     23  C   UNL     1      33.223 -20.569 -20.100  0.00  0.00    +0.019 C 
BRANCH  18  24
ATOM     24  O   UNL     1      34.762 -23.162 -18.011  0.00  0.00    -0.475 OA
BRANCH  24  25
ATOM     25  C   UNL     1      33.916 -23.178 -16.870  0.00  0.00    +0.206 C 
BRANCH  25  26
ATOM     26  C   UNL     1      34.662 -23.761 -15.678  0.00  0.00    +0.059 C 
BRANCH  26  27
ATOM     27  C   UNL     1      35.605 -22.746 -15.031  0.00  0.00    +0.113 C 
BRANCH  27  29
ATOM     28  O   UNL     1      37.856 -23.433 -14.407  0.00  0.00    -0.250 OA
ATOM     29  C   UNL     1      37.057 -23.094 -15.268  0.00  0.00    +0.314 C 
BRANCH  29  30
ATOM     30  O   UNL     1      37.386 -22.983 -16.583  0.00  0.00    -0.480 OA
ATOM     31  H   UNL     1      38.205 -23.317 -16.891  0.00  0.00    +0.295 HD
ENDBRANCH  29  30
ENDBRANCH  27  29
ENDBRANCH  26  27
ENDBRANCH  25  26
ENDBRANCH  24  25
ENDBRANCH  18  24
ENDBRANCH   3  19
TORSDOF 8
ENDMDL
MODEL 3
REMARK VINA RESULT:     -10.3      2.707      3.949
REMARK  Name = 5326885
REMARK  8 active torsions:
REMARK  status: ('A' for Active; 'I' for Inactive)
REMARK    1  A    between atoms: N_3  and  C_19
REMARK    2  A    between atoms: C_6  and  C_11
REMARK    3  A    between atoms: C_18  and  O_24
REMARK    4  A    between atoms: O_24  and  C_25
REMARK    5  A    between atoms: C_25  and  C_26
REMARK    6  A    between atoms: C_26  and  C_27
REMARK    7  A    between atoms: C_27  and  C_29
REMARK    8  A    between atoms: C_29  and  O_30
REMARK                            x       y       z     vdW  Elec       q    Type
REMARK                         _______ _______ _______ _____ _____    ______ ____
ROOT
ATOM      1  O   UNL     1      33.988 -15.163 -24.563  0.00  0.00    -0.252 OA
ATOM      2  O   UNL     1      33.539 -12.614 -25.581  0.00  0.00    -0.270 OA
ATOM      3  N   UNL     1      34.445 -15.153 -22.255  0.00  0.00    -0.267 N 
ATOM      4  N   UNL     1      34.029 -13.167 -23.373  0.00  0.00    -0.236 N 
ATOM      5  C   UNL     1      34.139 -14.567 -23.499  0.00  0.00    +0.310 C 
ATOM      6  C   UNL     1      33.737 -12.287 -24.414  0.00  0.00    +0.253 C 
ATOM      7  H   UNL     1      34.536 -14.531 -21.499  0.00  0.00    +0.156 HD
ATOM      8  H   UNL     1      34.167 -12.781 -22.478  0.00  0.00    +0.159 HD
ENDROOT
BRANCH   6  11
ATOM      9 CL   UNL     1      35.777 -10.317 -25.638  0.00  0.00    -0.082 Cl
ATOM     10 CL   UNL     1      33.205  -6.537 -22.801  0.00  0.00    -0.082 Cl
ATOM     11  C   UNL     1      33.636 -10.855 -24.036  0.00  0.00    +0.064 C 
ATOM     12  C   UNL     1      34.513  -9.894 -24.539  0.00  0.00    +0.063 C 
ATOM     13  C   UNL     1      32.624 -10.480 -23.152  0.00  0.00    +0.006 C 
ATOM     14  C   UNL     1      34.380  -8.559 -24.159  0.00  0.00    +0.023 C 
ATOM     15  C   UNL     1      32.492  -9.145 -22.770  0.00  0.00    +0.012 C 
ATOM     16  C   UNL     1      33.369  -8.184 -23.274  0.00  0.00    +0.059 C 
ENDBRANCH   6  11
BRANCH   3  19
ATOM     17 CL   UNL     1      32.229 -16.505 -20.674  0.00  0.00    -0.081 Cl
ATOM     18  C   UNL     1      35.082 -19.202 -21.398  0.00  0.00    +0.139 C 
ATOM     19  C   UNL     1      34.637 -16.506 -21.958  0.00  0.00    +0.062 C 
ATOM     20  C   UNL     1      33.913 -18.582 -20.957  0.00  0.00    +0.050 C 
ATOM     21  C   UNL     1      36.028 -18.474 -22.118  0.00  0.00    +0.038 C 
ATOM     22  C   UNL     1      33.690 -17.234 -21.238  0.00  0.00    +0.074 C 
ATOM     23  C   UNL     1      35.807 -17.126 -22.399  0.00  0.00    +0.019 C 
BRANCH  18  24
ATOM     24  O   UNL     1      35.302 -20.527 -21.121  0.00  0.00    -0.475 OA
BRANCH  24  25
ATOM     25  C   UNL     1      36.280 -20.822 -20.134  0.00  0.00    +0.206 C 
BRANCH  25  26
ATOM     26  C   UNL     1      35.656 -21.636 -19.009  0.00  0.00    +0.059 C 
BRANCH  26  27
ATOM     27  C   UNL     1      34.227 -22.076 -19.335  0.00  0.00    +0.113 C 
BRANCH  27  29
ATOM     28  O   UNL     1      34.139 -23.536 -17.390  0.00  0.00    -0.250 OA
ATOM     29  C   UNL     1      33.574 -22.783 -18.169  0.00  0.00    +0.314 C 
BRANCH  29  30
ATOM     30  O   UNL     1      32.252 -22.479 -18.083  0.00  0.00    -0.480 OA
ATOM     31  H   UNL     1      31.619 -23.013 -18.522  0.00  0.00    +0.295 HD
ENDBRANCH  29  30
ENDBRANCH  27  29
ENDBRANCH  26  27
ENDBRANCH  25  26
ENDBRANCH  24  25
ENDBRANCH  18  24
ENDBRANCH   3  19
TORSDOF 8
ENDMDL
MODEL 4
REMARK VINA RESULT:     -10.2      3.004      4.326
REMARK  Name = 5326885
REMARK  8 active torsions:
REMARK  status: ('A' for Active; 'I' for Inactive)
REMARK    1  A    between atoms: N_3  and  C_19
REMARK    2  A    between atoms: C_6  and  C_11
REMARK    3  A    between atoms: C_18  and  O_24
REMARK    4  A    between atoms: O_24  and  C_25
REMARK    5  A    between atoms: C_25  and  C_26
REMARK    6  A    between atoms: C_26  and  C_27
REMARK    7  A    between atoms: C_27  and  C_29
REMARK    8  A    between atoms: C_29  and  O_30
REMARK                            x       y       z     vdW  Elec       q    Type
REMARK                         _______ _______ _______ _____ _____    ______ ____
ROOT
ATOM      1  O   UNL     1      33.572 -15.614 -24.492  0.00  0.00    -0.252 OA
ATOM      2  O   UNL     1      33.235 -13.139 -25.714  0.00  0.00    -0.270 OA
ATOM      3  N   UNL     1      34.613 -15.456 -22.387  0.00  0.00    -0.267 N 
ATOM      4  N   UNL     1      34.202 -13.548 -23.635  0.00  0.00    -0.236 N 
ATOM      5  C   UNL     1      34.078 -14.951 -23.589  0.00  0.00    +0.310 C 
ATOM      6  C   UNL     1      33.776 -12.737 -24.687  0.00  0.00    +0.253 C 
ATOM      7  H   UNL     1      34.984 -14.787 -21.769  0.00  0.00    +0.156 HD
ATOM      8  H   UNL     1      34.622 -13.105 -22.863  0.00  0.00    +0.159 HD
ENDROOT
BRANCH   6  11
ATOM      9 CL   UNL     1      31.987 -11.279 -22.635  0.00  0.00    -0.082 Cl
ATOM     10 CL   UNL     1      34.712  -6.853 -24.026  0.00  0.00    -0.082 Cl
ATOM     11  C   UNL     1      33.979 -11.279 -24.497  0.00  0.00    +0.064 C 
ATOM     12  C   UNL     1      33.218 -10.538 -23.593  0.00  0.00    +0.063 C 
ATOM     13  C   UNL     1      34.968 -10.651 -25.255  0.00  0.00    +0.006 C 
ATOM     14  C   UNL     1      33.445  -9.170 -23.446  0.00  0.00    +0.023 C 
ATOM     15  C   UNL     1      35.193  -9.282 -25.109  0.00  0.00    +0.012 C 
ATOM     16  C   UNL     1      34.433  -8.541 -24.204  0.00  0.00    +0.059 C 
ENDBRANCH   6  11
BRANCH   3  19
ATOM     17 CL   UNL     1      32.288 -16.446 -20.698  0.00  0.00    -0.081 Cl
ATOM     18  C   UNL     1      34.887 -19.444 -21.142  0.00  0.00    +0.139 C 
ATOM     19  C   UNL     1      34.683 -16.786 -21.960  0.00  0.00    +0.062 C 
ATOM     20  C   UNL     1      33.779 -18.683 -20.770  0.00  0.00    +0.050 C 
ATOM     21  C   UNL     1      35.893 -18.876 -21.922  0.00  0.00    +0.038 C 
ATOM     22  C   UNL     1      33.677 -17.354 -21.180  0.00  0.00    +0.074 C 
ATOM     23  C   UNL     1      35.792 -17.547 -22.332  0.00  0.00    +0.019 C 
BRANCH  18  24
ATOM     24  O   UNL     1      34.988 -20.751 -20.738  0.00  0.00    -0.475 OA
BRANCH  24  25
ATOM     25  C   UNL     1      34.008 -21.216 -19.821  0.00  0.00    +0.206 C 
BRANCH  25  26
ATOM     26  C   UNL     1      34.677 -21.992 -18.694  0.00  0.00    +0.059 C 
BRANCH  26  27
ATOM     27  C   UNL     1      36.197 -21.826 -18.698  0.00  0.00    +0.113 C 
BRANCH  27  29
ATOM     28  O   UNL     1      36.765 -22.852 -16.565  0.00  0.00    -0.250 OA
ATOM     29  C   UNL     1      36.774 -21.876 -17.301  0.00  0.00    +0.314 C 
BRANCH  29  30
ATOM     30  O   UNL     1      37.317 -20.682 -16.945  0.00  0.00    -0.480 OA
ATOM     31  H   UNL     1      36.818 -20.075 -16.435  0.00  0.00    +0.295 HD
ENDBRANCH  29  30
ENDBRANCH  27  29
ENDBRANCH  26  27
ENDBRANCH  25  26
ENDBRANCH  24  25
ENDBRANCH  18  24
ENDBRANCH   3  19
TORSDOF 8
ENDMDL
MODEL 5
REMARK VINA RESULT:     -10.1      5.474     11.550
REMARK  Name = 5326885
REMARK  8 active torsions:
REMARK  status: ('A' for Active; 'I' for Inactive)
REMARK    1  A    between atoms: N_3  and  C_19
REMARK    2  A    between atoms: C_6  and  C_11
REMARK    3  A    between atoms: C_18  and  O_24
REMARK    4  A    between atoms: O_24  and  C_25
REMARK    5  A    between atoms: C_25  and  C_26
REMARK    6  A    between atoms: C_26  and  C_27
REMARK    7  A    between atoms: C_27  and  C_29
REMARK    8  A    between atoms: C_29  and  O_30
REMARK                            x       y       z     vdW  Elec       q    Type
REMARK                         _______ _______ _______ _____ _____    ______ ____
ROOT
ATOM      1  O   UNL     1      33.057 -20.486 -21.080  0.00  0.00    -0.252 OA
ATOM      2  O   UNL     1      32.972 -22.194 -18.887  0.00  0.00    -0.270 OA
ATOM      3  N   UNL     1      35.127 -19.390 -21.301  0.00  0.00    -0.267 N 
ATOM      4  N   UNL     1      34.772 -20.878 -19.561  0.00  0.00    -0.236 N 
ATOM      5  C   UNL     1      34.204 -20.267 -20.698  0.00  0.00    +0.310 C 
ATOM      6  C   UNL     1      34.124 -21.796 -18.735  0.00  0.00    +0.253 C 
ATOM      7  H   UNL     1      36.007 -19.328 -20.864  0.00  0.00    +0.156 HD
ATOM      8  H   UNL     1      35.699 -20.638 -19.333  0.00  0.00    +0.159 HD
ENDROOT
BRANCH   6  11
ATOM      9 CL   UNL     1      32.682 -23.474 -16.580  0.00  0.00    -0.082 Cl
ATOM     10 CL   UNL     1      37.523 -23.911 -14.272  0.00  0.00    -0.082 Cl
ATOM     11  C   UNL     1      34.935 -22.335 -17.614  0.00  0.00    +0.064 C 
ATOM     12  C   UNL     1      34.369 -23.104 -16.596  0.00  0.00    +0.063 C 
ATOM     13  C   UNL     1      36.301 -22.055 -17.599  0.00  0.00    +0.006 C 
ATOM     14  C   UNL     1      35.169 -23.592 -15.564  0.00  0.00    +0.023 C 
ATOM     15  C   UNL     1      37.101 -22.543 -16.565  0.00  0.00    +0.012 C 
ATOM     16  C   UNL     1      36.535 -23.312 -15.547  0.00  0.00    +0.059 C 
ENDBRANCH   6  11
BRANCH   3  19
ATOM     17 CL   UNL     1      34.913 -16.394 -20.832  0.00  0.00    -0.081 Cl
ATOM     18  C   UNL     1      34.610 -17.079 -24.753  0.00  0.00    +0.139 C 
ATOM     19  C   UNL     1      34.954 -18.598 -22.441  0.00  0.00    +0.062 C 
ATOM     20  C   UNL     1      34.669 -16.451 -23.509  0.00  0.00    +0.050 C 
ATOM     21  C   UNL     1      34.721 -18.466 -24.841  0.00  0.00    +0.038 C 
ATOM     22  C   UNL     1      34.843 -17.211 -22.353  0.00  0.00    +0.074 C 
ATOM     23  C   UNL     1      34.893 -19.226 -23.685  0.00  0.00    +0.019 C 
BRANCH  18  24
ATOM     24  O   UNL     1      34.438 -16.332 -25.890  0.00  0.00    -0.475 OA
BRANCH  24  25
ATOM     25  C   UNL     1      33.123 -15.870 -26.162  0.00  0.00    +0.206 C 
BRANCH  25  26
ATOM     26  C   UNL     1      33.108 -14.348 -26.220  0.00  0.00    +0.059 C 
BRANCH  26  27
ATOM     27  C   UNL     1      32.697 -13.721 -24.886  0.00  0.00    +0.113 C 
BRANCH  27  29
ATOM     28  O   UNL     1      33.954 -11.641 -25.013  0.00  0.00    -0.250 OA
ATOM     29  C   UNL     1      33.689 -12.678 -24.424  0.00  0.00    +0.314 C 
BRANCH  29  30
ATOM     30  O   UNL     1      34.269 -13.033 -23.247  0.00  0.00    -0.480 OA
ATOM     31  H   UNL     1      35.161 -13.320 -23.233  0.00  0.00    +0.295 HD
ENDBRANCH  29  30
ENDBRANCH  27  29
ENDBRANCH  26  27
ENDBRANCH  25  26
ENDBRANCH  24  25
ENDBRANCH  18  24
ENDBRANCH   3  19
TORSDOF 8
ENDMDL
MODEL 6
REMARK VINA RESULT:     -10.1      3.606     10.536
REMARK  Name = 5326885
REMARK  8 active torsions:
REMARK  status: ('A' for Active; 'I' for Inactive)
REMARK    1  A    between atoms: N_3  and  C_19
REMARK    2  A    between atoms: C_6  and  C_11
REMARK    3  A    between atoms: C_18  and  O_24
REMARK    4  A    between atoms: O_24  and  C_25
REMARK    5  A    between atoms: C_25  and  C_26
REMARK    6  A    between atoms: C_26  and  C_27
REMARK    7  A    between atoms: C_27  and  C_29
REMARK    8  A    between atoms: C_29  and  O_30
REMARK                            x       y       z     vdW  Elec       q    Type
REMARK                         _______ _______ _______ _____ _____    ______ ____
ROOT
ATOM      1  O   UNL     1      35.317 -15.751 -23.410  0.00  0.00    -0.252 OA
ATOM      2  O   UNL     1      35.990 -18.374 -22.773  0.00  0.00    -0.270 OA
ATOM      3  N   UNL     1      33.468 -14.963 -22.186  0.00  0.00    -0.267 N 
ATOM      4  N   UNL     1      34.254 -17.118 -21.859  0.00  0.00    -0.236 N 
ATOM      5  C   UNL     1      34.433 -15.915 -22.571  0.00  0.00    +0.310 C 
ATOM      6  C   UNL     1      35.038 -18.262 -22.005  0.00  0.00    +0.253 C 
ATOM      7  H   UNL     1      32.828 -15.257 -21.499  0.00  0.00    +0.156 HD
ATOM      8  H   UNL     1      33.517 -17.154 -21.208  0.00  0.00    +0.159 HD
ENDROOT
BRANCH   6  11
ATOM      9 CL   UNL     1      37.330 -19.741 -20.557  0.00  0.00    -0.082 Cl
ATOM     10 CL   UNL     1      33.457 -22.837 -18.467  0.00  0.00    -0.082 Cl
ATOM     11  C   UNL     1      34.683 -19.401 -21.121  0.00  0.00    +0.064 C 
ATOM     12  C   UNL     1      35.652 -20.127 -20.427  0.00  0.00    +0.063 C 
ATOM     13  C   UNL     1      33.335 -19.737 -20.993  0.00  0.00    +0.006 C 
ATOM     14  C   UNL     1      35.273 -21.188 -19.606  0.00  0.00    +0.023 C 
ATOM     15  C   UNL     1      32.957 -20.800 -20.173  0.00  0.00    +0.012 C 
ATOM     16  C   UNL     1      33.925 -21.525 -19.479  0.00  0.00    +0.059 C 
ENDBRANCH   6  11
BRANCH   3  19
ATOM     17 CL   UNL     1      31.920 -13.077 -20.373  0.00  0.00    -0.081 Cl
ATOM     18  C   UNL     1      33.014 -11.065 -23.643  0.00  0.00    +0.139 C 
ATOM     19  C   UNL     1      33.305 -13.655 -22.652  0.00  0.00    +0.062 C 
ATOM     20  C   UNL     1      32.466 -11.404 -22.406  0.00  0.00    +0.050 C 
ATOM     21  C   UNL     1      33.706 -12.021 -24.385  0.00  0.00    +0.038 C 
ATOM     22  C   UNL     1      32.613 -12.699 -21.910  0.00  0.00    +0.074 C 
ATOM     23  C   UNL     1      33.852 -13.317 -23.891  0.00  0.00    +0.019 C 
BRANCH  18  24
ATOM     24  O   UNL     1      32.870  -9.791 -24.131  0.00  0.00    -0.475 OA
BRANCH  24  25
ATOM     25  C   UNL     1      32.030  -8.913 -23.395  0.00  0.00    +0.206 C 
BRANCH  25  26
ATOM     26  C   UNL     1      32.877  -7.933 -22.595  0.00  0.00    +0.059 C 
BRANCH  26  27
ATOM     27  C   UNL     1      32.070  -7.222 -21.508  0.00  0.00    +0.113 C 
BRANCH  27  29
ATOM     28  O   UNL     1      32.956  -6.662 -19.311  0.00  0.00    -0.250 OA
ATOM     29  C   UNL     1      32.611  -7.506 -20.125  0.00  0.00    +0.314 C 
BRANCH  29  30
ATOM     30  O   UNL     1      32.675  -8.842 -19.882  0.00  0.00    -0.480 OA
ATOM     31  H   UNL     1      32.011  -9.257 -19.369  0.00  0.00    +0.295 HD
ENDBRANCH  29  30
ENDBRANCH  27  29
ENDBRANCH  26  27
ENDBRANCH  25  26
ENDBRANCH  24  25
ENDBRANCH  18  24
ENDBRANCH   3  19
TORSDOF 8
ENDMDL
MODEL 7
REMARK VINA RESULT:      -9.8      4.570      7.428
REMARK  Name = 5326885
REMARK  8 active torsions:
REMARK  status: ('A' for Active; 'I' for Inactive)
REMARK    1  A    between atoms: N_3  and  C_19
REMARK    2  A    between atoms: C_6  and  C_11
REMARK    3  A    between atoms: C_18  and  O_24
REMARK    4  A    between atoms: O_24  and  C_25
REMARK    5  A    between atoms: C_25  and  C_26
REMARK    6  A    between atoms: C_26  and  C_27
REMARK    7  A    between atoms: C_27  and  C_29
REMARK    8  A    between atoms: C_29  and  O_30
REMARK                            x       y       z     vdW  Elec       q    Type
REMARK                         _______ _______ _______ _____ _____    ______ ____
ROOT
ATOM      1  O   UNL     1      34.630 -19.480 -23.570  0.00  0.00    -0.252 OA
ATOM      2  O   UNL     1      34.509 -17.475 -25.494  0.00  0.00    -0.270 OA
ATOM      3  N   UNL     1      34.252 -18.676 -21.392  0.00  0.00    -0.267 N 
ATOM      4  N   UNL     1      34.208 -17.225 -23.198  0.00  0.00    -0.236 N 
ATOM      5  C   UNL     1      34.387 -18.563 -22.790  0.00  0.00    +0.310 C 
ATOM      6  C   UNL     1      34.280 -16.771 -24.514  0.00  0.00    +0.253 C 
ATOM      7  H   UNL     1      34.059 -17.839 -20.911  0.00  0.00    +0.156 HD
ATOM      8  H   UNL     1      34.017 -16.560 -22.498  0.00  0.00    +0.159 HD
ENDROOT
BRANCH   6  11
ATOM      9 CL   UNL     1      34.717 -14.884 -22.108  0.00  0.00    -0.082 Cl
ATOM     10 CL   UNL     1      33.201 -10.948 -25.447  0.00  0.00    -0.082 Cl
ATOM     11  C   UNL     1      34.021 -15.322 -24.709  0.00  0.00    +0.064 C 
ATOM     12  C   UNL     1      34.192 -14.396 -23.679  0.00  0.00    +0.063 C 
ATOM     13  C   UNL     1      33.598 -14.894 -25.967  0.00  0.00    +0.006 C 
ATOM     14  C   UNL     1      33.940 -13.044 -23.907  0.00  0.00    +0.023 C 
ATOM     15  C   UNL     1      33.345 -13.542 -26.195  0.00  0.00    +0.012 C 
ATOM     16  C   UNL     1      33.515 -12.616 -25.165  0.00  0.00    +0.059 C 
ENDBRANCH   6  11
BRANCH   3  19
ATOM     17 CL   UNL     1      37.073 -19.572 -20.698  0.00  0.00    -0.081 Cl
ATOM     18  C   UNL     1      34.495 -22.118 -19.021  0.00  0.00    +0.139 C 
ATOM     19  C   UNL     1      34.357 -19.824 -20.600  0.00  0.00    +0.062 C 
ATOM     20  C   UNL     1      35.667 -21.480 -19.428  0.00  0.00    +0.050 C 
ATOM     21  C   UNL     1      33.255 -21.610 -19.404  0.00  0.00    +0.038 C 
ATOM     22  C   UNL     1      35.598 -20.332 -20.217  0.00  0.00    +0.074 C 
ATOM     23  C   UNL     1      33.185 -20.462 -20.194  0.00  0.00    +0.019 C 
BRANCH  18  24
ATOM     24  O   UNL     1      34.563 -23.248 -18.247  0.00  0.00    -0.475 OA
BRANCH  24  25
ATOM     25  C   UNL     1      33.412 -23.569 -17.479  0.00  0.00    +0.206 C 
BRANCH  25  26
ATOM     26  C   UNL     1      33.639 -23.195 -16.020  0.00  0.00    +0.059 C 
BRANCH  26  27
ATOM     27  C   UNL     1      35.086 -23.425 -15.581  0.00  0.00    +0.113 C 
BRANCH  27  29
ATOM     28  O   UNL     1      35.888 -25.723 -15.617  0.00  0.00    -0.250 OA
ATOM     29  C   UNL     1      35.298 -24.821 -15.041  0.00  0.00    +0.314 C 
BRANCH  29  30
ATOM     30  O   UNL     1      34.741 -24.966 -13.809  0.00  0.00    -0.480 OA
ATOM     31  H   UNL     1      33.922 -24.556 -13.615  0.00  0.00    +0.295 HD
ENDBRANCH  29  30
ENDBRANCH  27  29
ENDBRANCH  26  27
ENDBRANCH  25  26
ENDBRANCH  24  25
ENDBRANCH  18  24
ENDBRANCH   3  19
TORSDOF 8
ENDMDL
MODEL 8
REMARK VINA RESULT:      -9.8      4.761      7.776
REMARK  Name = 5326885
REMARK  8 active torsions:
REMARK  status: ('A' for Active; 'I' for Inactive)
REMARK    1  A    between atoms: N_3  and  C_19
REMARK    2  A    between atoms: C_6  and  C_11
REMARK    3  A    between atoms: C_18  and  O_24
REMARK    4  A    between atoms: O_24  and  C_25
REMARK    5  A    between atoms: C_25  and  C_26
REMARK    6  A    between atoms: C_26  and  C_27
REMARK    7  A    between atoms: C_27  and  C_29
REMARK    8  A    between atoms: C_29  and  O_30
REMARK                            x       y       z     vdW  Elec       q    Type
REMARK                         _______ _______ _______ _____ _____    ______ ____
ROOT
ATOM      1  O   UNL     1      35.236 -17.297 -20.316  0.00  0.00    -0.252 OA
ATOM      2  O   UNL     1      35.193 -14.928 -21.773  0.00  0.00    -0.270 OA
ATOM      3  N   UNL     1      34.066 -19.040 -21.379  0.00  0.00    -0.267 N 
ATOM      4  N   UNL     1      34.199 -16.949 -22.367  0.00  0.00    -0.236 N 
ATOM      5  C   UNL     1      34.569 -17.730 -21.253  0.00  0.00    +0.310 C 
ATOM      6  C   UNL     1      34.532 -15.608 -22.554  0.00  0.00    +0.253 C 
ATOM      7  H   UNL     1      33.546 -19.223 -22.194  0.00  0.00    +0.156 HD
ATOM      8  H   UNL     1      33.663 -17.385 -23.068  0.00  0.00    +0.159 HD
ENDROOT
BRANCH   6  11
ATOM      9 CL   UNL     1      34.304 -17.430 -25.038  0.00  0.00    -0.082 Cl
ATOM     10 CL   UNL     1      32.611 -13.017 -27.607  0.00  0.00    -0.082 Cl
ATOM     11  C   UNL     1      34.060 -15.000 -23.823  0.00  0.00    +0.064 C 
ATOM     12  C   UNL     1      33.926 -15.745 -24.995  0.00  0.00    +0.063 C 
ATOM     13  C   UNL     1      33.744 -13.641 -23.822  0.00  0.00    +0.006 C 
ATOM     14  C   UNL     1      33.477 -15.133 -26.164  0.00  0.00    +0.023 C 
ATOM     15  C   UNL     1      33.296 -13.028 -24.992  0.00  0.00    +0.012 C 
ATOM     16  C   UNL     1      33.162 -13.774 -26.164  0.00  0.00    +0.059 C 
ENDBRANCH   6  11
BRANCH   3  19
ATOM     17 CL   UNL     1      36.918 -19.895 -20.764  0.00  0.00    -0.081 Cl
ATOM     18  C   UNL     1      34.429 -22.258 -18.725  0.00  0.00    +0.139 C 
ATOM     19  C   UNL     1      34.211 -20.113 -20.494  0.00  0.00    +0.062 C 
ATOM     20  C   UNL     1      35.578 -21.669 -19.252  0.00  0.00    +0.050 C 
ATOM     21  C   UNL     1      33.171 -21.775 -19.083  0.00  0.00    +0.038 C 
ATOM     22  C   UNL     1      35.469 -20.596 -20.136  0.00  0.00    +0.074 C 
ATOM     23  C   UNL     1      33.061 -20.703 -19.967  0.00  0.00    +0.019 C 
BRANCH  18  24
ATOM     24  O   UNL     1      34.536 -23.314 -17.857  0.00  0.00    -0.475 OA
BRANCH  24  25
ATOM     25  C   UNL     1      34.316 -23.038 -16.481  0.00  0.00    +0.206 C 
BRANCH  25  26
ATOM     26  C   UNL     1      32.961 -23.586 -16.050  0.00  0.00    +0.059 C 
BRANCH  26  27
ATOM     27  C   UNL     1      32.572 -23.131 -14.643  0.00  0.00    +0.113 C 
BRANCH  27  29
ATOM     28  O   UNL     1      31.826 -25.395 -14.152  0.00  0.00    -0.250 OA
ATOM     29  C   UNL     1      31.810 -24.201 -13.894  0.00  0.00    +0.314 C 
BRANCH  29  30
ATOM     30  O   UNL     1      31.084 -23.671 -12.875  0.00  0.00    -0.480 OA
ATOM     31  H   UNL     1      30.487 -22.968 -13.041  0.00  0.00    +0.295 HD
ENDBRANCH  29  30
ENDBRANCH  27  29
ENDBRANCH  26  27
ENDBRANCH  25  26
ENDBRANCH  24  25
ENDBRANCH  18  24
ENDBRANCH   3  19
TORSDOF 8
ENDMDL
MODEL 9
REMARK VINA RESULT:      -9.6      3.596     10.948
REMARK  Name = 5326885
REMARK  8 active torsions:
REMARK  status: ('A' for Active; 'I' for Inactive)
REMARK    1  A    between atoms: N_3  and  C_19
REMARK    2  A    between atoms: C_6  and  C_11
REMARK    3  A    between atoms: C_18  and  O_24
REMARK    4  A    between atoms: O_24  and  C_25
REMARK    5  A    between atoms: C_25  and  C_26
REMARK    6  A    between atoms: C_26  and  C_27
REMARK    7  A    between atoms: C_27  and  C_29
REMARK    8  A    between atoms: C_29  and  O_30
REMARK                            x       y       z     vdW  Elec       q    Type
REMARK                         _______ _______ _______ _____ _____    ______ ____
ROOT
ATOM      1  O   UNL     1      34.685 -14.967 -22.379  0.00  0.00    -0.252 OA
ATOM      2  O   UNL     1      35.737 -17.538 -22.231  0.00  0.00    -0.270 OA
ATOM      3  N   UNL     1      32.685 -14.732 -21.162  0.00  0.00    -0.267 N 
ATOM      4  N   UNL     1      33.787 -16.768 -21.216  0.00  0.00    -0.236 N 
ATOM      5  C   UNL     1      33.804 -15.430 -21.658  0.00  0.00    +0.310 C 
ATOM      6  C   UNL     1      34.748 -17.729 -21.528  0.00  0.00    +0.253 C 
ATOM      7  H   UNL     1      32.070 -15.253 -20.598  0.00  0.00    +0.156 HD
ATOM      8  H   UNL     1      33.039 -17.046 -20.640  0.00  0.00    +0.159 HD
ENDROOT
BRANCH   6  11
ATOM      9 CL   UNL     1      37.247 -19.370 -20.752  0.00  0.00    -0.082 Cl
ATOM     10 CL   UNL     1      33.760 -23.109 -19.073  0.00  0.00    -0.082 Cl
ATOM     11  C   UNL     1      34.541 -19.067 -20.918  0.00  0.00    +0.064 C 
ATOM     12  C   UNL     1      35.610 -19.878 -20.536  0.00  0.00    +0.063 C 
ATOM     13  C   UNL     1      33.231 -19.506 -20.729  0.00  0.00    +0.006 C 
ATOM     14  C   UNL     1      35.369 -21.127 -19.964  0.00  0.00    +0.023 C 
ATOM     15  C   UNL     1      32.990 -20.756 -20.158  0.00  0.00    +0.012 C 
ATOM     16  C   UNL     1      34.059 -21.567 -19.775  0.00  0.00    +0.059 C 
ENDBRANCH   6  11
BRANCH   3  19
ATOM     17 CL   UNL     1      32.569 -13.809 -24.056  0.00  0.00    -0.081 Cl
ATOM     18  C   UNL     1      31.637 -10.715 -21.711  0.00  0.00    +0.139 C 
ATOM     19  C   UNL     1      32.336 -13.393 -21.369  0.00  0.00    +0.062 C 
ATOM     20  C   UNL     1      31.902 -11.514 -22.823  0.00  0.00    +0.050 C 
ATOM     21  C   UNL     1      31.723 -11.255 -20.428  0.00  0.00    +0.038 C 
ATOM     22  C   UNL     1      32.250 -12.854 -22.652  0.00  0.00    +0.074 C 
ATOM     23  C   UNL     1      32.072 -12.594 -20.256  0.00  0.00    +0.019 C 
BRANCH  18  24
ATOM     24  O   UNL     1      31.295  -9.398 -21.879  0.00  0.00    -0.475 OA
BRANCH  24  25
ATOM     25  C   UNL     1      31.998  -8.675 -22.880  0.00  0.00    +0.206 C 
BRANCH  25  26
ATOM     26  C   UNL     1      31.075  -7.649 -23.524  0.00  0.00    +0.059 C 
BRANCH  26  27
ATOM     27  C   UNL     1      31.618  -6.224 -23.403  0.00  0.00    +0.113 C 
BRANCH  27  29
ATOM     28  O   UNL     1      30.038  -4.930 -22.079  0.00  0.00    -0.250 OA
ATOM     29  C   UNL     1      31.101  -5.526 -22.166  0.00  0.00    +0.314 C 
BRANCH  29  30
ATOM     30  O   UNL     1      31.976  -5.637 -21.131  0.00  0.00    -0.480 OA
ATOM     31  H   UNL     1      32.562  -6.367 -21.090  0.00  0.00    +0.295 HD
ENDBRANCH  29  30
ENDBRANCH  27  29
ENDBRANCH  26  27
ENDBRANCH  25  26
ENDBRANCH  24  25
ENDBRANCH  18  24
ENDBRANCH   3  19
TORSDOF 8
ENDMDL
