MODEL 1
REMARK VINA RESULT:      -8.6      0.000      0.000
REMARK  Name = 445504
REMARK  4 active torsions:
REMARK  status: ('A' for Active; 'I' for Inactive)
REMARK    1  A    between atoms: S_1  and  C_4
REMARK    2  A    between atoms: S_1  and  N_11
REMARK    3  A    between atoms: C_12  and  C_17
REMARK    4  A    between atoms: C_17  and  O_18
REMARK                            x       y       z     vdW  Elec       q    Type
REMARK                         _______ _______ _______ _____ _____    ______ ____
ROOT
ATOM      1  S   UNL     1      35.413 -18.457 -22.618  0.00  0.00    +0.064 S 
ATOM      2  O   UNL     1      36.807 -18.205 -22.305  0.00  0.00    -0.153 OA
ATOM      3  O   UNL     1      35.032 -18.955 -23.927  0.00  0.00    -0.153 OA
ENDROOT
BRANCH   1   4
ATOM      4  C   UNL     1      34.792 -19.590 -21.412  0.00  0.00    +0.122 C 
ATOM      5  C   UNL     1      35.686 -20.304 -20.633  0.00  0.00    +0.020 C 
ATOM      6  C   UNL     1      33.424 -19.742 -21.268  0.00  0.00    +0.020 C 
ATOM      7  C   UNL     1      35.198 -21.199 -19.681  0.00  0.00    -0.003 C 
ATOM      8  C   UNL     1      32.936 -20.637 -20.316  0.00  0.00    -0.003 C 
ATOM      9  C   UNL     1      33.822 -21.366 -19.522  0.00  0.00    -0.022 C 
ATOM     10  C   UNL     1      33.300 -22.322 -18.505  0.00  0.00    +0.031 C 
ENDBRANCH   1   4
BRANCH   1  11
ATOM     11  N   UNL     1      34.490 -17.077 -22.248  0.00  0.00    -0.146 NA
ATOM     12  C   UNL     1      34.864 -15.791 -22.897  0.00  0.00    +0.178 C 
ATOM     13  C   UNL     1      34.768 -14.733 -21.803  0.00  0.00    +0.031 C 
ATOM     14  C   UNL     1      34.199 -16.813 -20.812  0.00  0.00    +0.096 C 
ATOM     15  C   UNL     1      33.820 -15.342 -20.783  0.00  0.00    +0.021 C 
BRANCH  12  17
ATOM     16  O   UNL     1      32.970 -14.743 -23.961  0.00  0.00    -0.249 OA
ATOM     17  C   UNL     1      33.852 -15.590 -23.975  0.00  0.00    +0.330 C 
BRANCH  17  18
ATOM     18  O   UNL     1      34.041 -16.478 -24.980  0.00  0.00    -0.479 OA
ATOM     19  H   UNL     1      33.866 -17.388 -24.841  0.00  0.00    +0.295 HD
ENDBRANCH  17  18
ENDBRANCH  12  17
ENDBRANCH   1  11
TORSDOF 4
ENDMDL
MODEL 2
REMARK VINA RESULT:      -8.3      7.510     10.253
REMARK  Name = 445504
REMARK  4 active torsions:
REMARK  status: ('A' for Active; 'I' for Inactive)
REMARK    1  A    between atoms: S_1  and  C_4
REMARK    2  A    between atoms: S_1  and  N_11
REMARK    3  A    between atoms: C_12  and  C_17
REMARK    4  A    between atoms: C_17  and  O_18
REMARK                            x       y       z     vdW  Elec       q    Type
REMARK                         _______ _______ _______ _____ _____    ______ ____
ROOT
ATOM      1  S   UNL     1      35.303 -24.281 -14.866  0.00  0.00    +0.064 S 
ATOM      2  O   UNL     1      34.165 -23.733 -14.151  0.00  0.00    -0.153 OA
ATOM      3  O   UNL     1      35.284 -25.654 -15.337  0.00  0.00    -0.153 OA
ENDROOT
BRANCH   1   4
ATOM      4  C   UNL     1      35.607 -23.240 -16.262  0.00  0.00    +0.122 C 
ATOM      5  C   UNL     1      34.617 -23.082 -17.215  0.00  0.00    +0.020 C 
ATOM      6  C   UNL     1      36.830 -22.601 -16.375  0.00  0.00    +0.020 C 
ATOM      7  C   UNL     1      34.856 -22.261 -18.317  0.00  0.00    -0.003 C 
ATOM      8  C   UNL     1      37.069 -21.780 -17.477  0.00  0.00    -0.003 C 
ATOM      9  C   UNL     1      36.082 -21.610 -18.448  0.00  0.00    -0.022 C 
ATOM     10  C   UNL     1      36.338 -20.731 -19.625  0.00  0.00    +0.031 C 
ENDBRANCH   1   4
BRANCH   1  11
ATOM     11  N   UNL     1      36.721 -24.012 -13.966  0.00  0.00    -0.146 NA
ATOM     12  C   UNL     1      37.527 -25.195 -13.560  0.00  0.00    +0.178 C 
ATOM     13  C   UNL     1      37.938 -24.940 -12.114  0.00  0.00    +0.031 C 
ATOM     14  C   UNL     1      36.629 -23.084 -12.805  0.00  0.00    +0.096 C 
ATOM     15  C   UNL     1      37.848 -23.429 -11.967  0.00  0.00    +0.021 C 
BRANCH  12  17
ATOM     16  O   UNL     1      39.740 -24.603 -14.315  0.00  0.00    -0.249 OA
ATOM     17  C   UNL     1      38.693 -25.210 -14.490  0.00  0.00    +0.330 C 
BRANCH  17  18
ATOM     18  O   UNL     1      38.437 -25.992 -15.567  0.00  0.00    -0.479 OA
ATOM     19  H   UNL     1      37.555 -26.111 -15.861  0.00  0.00    +0.295 HD
ENDBRANCH  17  18
ENDBRANCH  12  17
ENDBRANCH   1  11
TORSDOF 4
ENDMDL
MODEL 3
REMARK VINA RESULT:      -8.1      8.582     10.817
REMARK  Name = 445504
REMARK  4 active torsions:
REMARK  status: ('A' for Active; 'I' for Inactive)
REMARK    1  A    between atoms: S_1  and  C_4
REMARK    2  A    between atoms: S_1  and  N_11
REMARK    3  A    between atoms: C_12  and  C_17
REMARK    4  A    between atoms: C_17  and  O_18
REMARK                            x       y       z     vdW  Elec       q    Type
REMARK                         _______ _______ _______ _____ _____    ______ ____
ROOT
ATOM      1  S   UNL     1      34.829 -23.498 -15.294  0.00  0.00    +0.064 S 
ATOM      2  O   UNL     1      35.186 -23.632 -16.695  0.00  0.00    -0.153 OA
ATOM      3  O   UNL     1      35.038 -22.241 -14.599  0.00  0.00    -0.153 OA
ENDROOT
BRANCH   1   4
ATOM      4  C   UNL     1      33.119 -23.918 -15.138  0.00  0.00    +0.122 C 
ATOM      5  C   UNL     1      32.719 -24.748 -14.106  0.00  0.00    +0.020 C 
ATOM      6  C   UNL     1      32.212 -23.409 -16.052  0.00  0.00    +0.020 C 
ATOM      7  C   UNL     1      31.370 -25.081 -13.982  0.00  0.00    -0.003 C 
ATOM      8  C   UNL     1      30.863 -23.742 -15.928  0.00  0.00    -0.003 C 
ATOM      9  C   UNL     1      30.442 -24.578 -14.894  0.00  0.00    -0.022 C 
ATOM     10  C   UNL     1      29.000 -24.933 -14.762  0.00  0.00    +0.031 C 
ENDBRANCH   1   4
BRANCH   1  11
ATOM     11  N   UNL     1      35.539 -24.761 -14.404  0.00  0.00    -0.146 NA
ATOM     12  C   UNL     1      36.523 -24.405 -13.346  0.00  0.00    +0.178 C 
ATOM     13  C   UNL     1      37.663 -25.408 -13.485  0.00  0.00    +0.031 C 
ATOM     14  C   UNL     1      36.072 -25.922 -15.170  0.00  0.00    +0.096 C 
ATOM     15  C   UNL     1      37.028 -26.591 -14.197  0.00  0.00    +0.021 C 
BRANCH  12  17
ATOM     16  O   UNL     1      35.948 -25.466 -11.257  0.00  0.00    -0.249 OA
ATOM     17  C   UNL     1      35.783 -24.558 -12.059  0.00  0.00    +0.330 C 
BRANCH  17  18
ATOM     18  O   UNL     1      34.893 -23.549 -11.896  0.00  0.00    -0.479 OA
ATOM     19  H   UNL     1      35.196 -22.678 -11.730  0.00  0.00    +0.295 HD
ENDBRANCH  17  18
ENDBRANCH  12  17
ENDBRANCH   1  11
TORSDOF 4
ENDMDL
MODEL 4
REMARK VINA RESULT:      -7.9      7.901     10.806
REMARK  Name = 445504
REMARK  4 active torsions:
REMARK  status: ('A' for Active; 'I' for Inactive)
REMARK    1  A    between atoms: S_1  and  C_4
REMARK    2  A    between atoms: S_1  and  N_11
REMARK    3  A    between atoms: C_12  and  C_17
REMARK    4  A    between atoms: C_17  and  O_18
REMARK                            x       y       z     vdW  Elec       q    Type
REMARK                         _______ _______ _______ _____ _____    ______ ____
ROOT
ATOM      1  S   UNL     1      34.870 -23.999 -14.144  0.00  0.00    +0.064 S 
ATOM      2  O   UNL     1      35.124 -23.068 -13.060  0.00  0.00    -0.153 OA
ATOM      3  O   UNL     1      33.549 -24.570 -14.328  0.00  0.00    -0.153 OA
ENDROOT
BRANCH   1   4
ATOM      4  C   UNL     1      35.320 -23.194 -15.652  0.00  0.00    +0.122 C 
ATOM      5  C   UNL     1      36.561 -22.591 -15.752  0.00  0.00    +0.020 C 
ATOM      6  C   UNL     1      34.422 -23.182 -16.706  0.00  0.00    +0.020 C 
ATOM      7  C   UNL     1      36.918 -21.955 -16.941  0.00  0.00    -0.003 C 
ATOM      8  C   UNL     1      34.779 -22.546 -17.896  0.00  0.00    -0.003 C 
ATOM      9  C   UNL     1      36.027 -21.933 -18.013  0.00  0.00    -0.022 C 
ATOM     10  C   UNL     1      36.407 -21.254 -19.285  0.00  0.00    +0.031 C 
ENDBRANCH   1   4
BRANCH   1  11
ATOM     11  N   UNL     1      36.024 -25.246 -14.104  0.00  0.00    -0.146 NA
ATOM     12  C   UNL     1      37.390 -24.921 -13.609  0.00  0.00    +0.178 C 
ATOM     13  C   UNL     1      38.353 -25.625 -14.557  0.00  0.00    +0.031 C 
ATOM     14  C   UNL     1      36.155 -26.098 -15.319  0.00  0.00    +0.096 C 
ATOM     15  C   UNL     1      37.522 -26.744 -15.164  0.00  0.00    +0.021 C 
BRANCH  12  17
ATOM     16  O   UNL     1      36.983 -26.555 -11.882  0.00  0.00    -0.249 OA
ATOM     17  C   UNL     1      37.445 -25.476 -12.225  0.00  0.00    +0.330 C 
BRANCH  17  18
ATOM     18  O   UNL     1      38.077 -24.617 -11.389  0.00  0.00    -0.479 OA
ATOM     19  H   UNL     1      37.661 -23.817 -11.135  0.00  0.00    +0.295 HD
ENDBRANCH  17  18
ENDBRANCH  12  17
ENDBRANCH   1  11
TORSDOF 4
ENDMDL
MODEL 5
REMARK VINA RESULT:      -7.8      8.302     10.931
REMARK  Name = 445504
REMARK  4 active torsions:
REMARK  status: ('A' for Active; 'I' for Inactive)
REMARK    1  A    between atoms: S_1  and  C_4
REMARK    2  A    between atoms: S_1  and  N_11
REMARK    3  A    between atoms: C_12  and  C_17
REMARK    4  A    between atoms: C_17  and  O_18
REMARK                            x       y       z     vdW  Elec       q    Type
REMARK                         _______ _______ _______ _____ _____    ______ ____
ROOT
ATOM      1  S   UNL     1      36.245 -23.373 -14.859  0.00  0.00    +0.064 S 
ATOM      2  O   UNL     1      36.915 -23.115 -16.120  0.00  0.00    -0.153 OA
ATOM      3  O   UNL     1      36.447 -22.490 -13.725  0.00  0.00    -0.153 OA
ENDROOT
BRANCH   1   4
ATOM      4  C   UNL     1      34.509 -23.440 -15.183  0.00  0.00    +0.122 C 
ATOM      5  C   UNL     1      34.053 -23.225 -16.472  0.00  0.00    +0.020 C 
ATOM      6  C   UNL     1      33.636 -23.707 -14.142  0.00  0.00    +0.020 C 
ATOM      7  C   UNL     1      32.683 -23.278 -16.729  0.00  0.00    -0.003 C 
ATOM      8  C   UNL     1      32.266 -23.760 -14.399  0.00  0.00    -0.003 C 
ATOM      9  C   UNL     1      31.790 -23.545 -15.692  0.00  0.00    -0.022 C 
ATOM     10  C   UNL     1      30.325 -23.602 -15.966  0.00  0.00    +0.031 C 
ENDBRANCH   1   4
BRANCH   1  11
ATOM     11  N   UNL     1      36.532 -24.980 -14.383  0.00  0.00    -0.146 NA
ATOM     12  C   UNL     1      37.820 -25.289 -13.703  0.00  0.00    +0.178 C 
ATOM     13  C   UNL     1      38.307 -26.598 -14.314  0.00  0.00    +0.031 C 
ATOM     14  C   UNL     1      36.260 -26.049 -15.383  0.00  0.00    +0.096 C 
ATOM     15  C   UNL     1      37.044 -27.242 -14.862  0.00  0.00    +0.021 C 
BRANCH  12  17
ATOM     16  O   UNL     1      36.881 -26.377 -11.766  0.00  0.00    -0.249 OA
ATOM     17  C   UNL     1      37.474 -25.428 -12.258  0.00  0.00    +0.330 C 
BRANCH  17  18
ATOM     18  O   UNL     1      37.905 -24.352 -11.557  0.00  0.00    -0.479 OA
ATOM     19  H   UNL     1      38.043 -23.533 -11.991  0.00  0.00    +0.295 HD
ENDBRANCH  17  18
ENDBRANCH  12  17
ENDBRANCH   1  11
TORSDOF 4
ENDMDL
MODEL 6
REMARK VINA RESULT:      -7.6      2.381      3.074
REMARK  Name = 445504
REMARK  4 active torsions:
REMARK  status: ('A' for Active; 'I' for Inactive)
REMARK    1  A    between atoms: S_1  and  C_4
REMARK    2  A    between atoms: S_1  and  N_11
REMARK    3  A    between atoms: C_12  and  C_17
REMARK    4  A    between atoms: C_17  and  O_18
REMARK                            x       y       z     vdW  Elec       q    Type
REMARK                         _______ _______ _______ _____ _____    ______ ____
ROOT
ATOM      1  S   UNL     1      33.968 -15.913 -21.403  0.00  0.00    +0.064 S 
ATOM      2  O   UNL     1      32.524 -15.865 -21.272  0.00  0.00    -0.153 OA
ATOM      3  O   UNL     1      34.810 -15.054 -20.591  0.00  0.00    -0.153 OA
ENDROOT
BRANCH   1   4
ATOM      4  C   UNL     1      34.473 -17.583 -21.118  0.00  0.00    +0.122 C 
ATOM      5  C   UNL     1      35.823 -17.878 -21.051  0.00  0.00    +0.020 C 
ATOM      6  C   UNL     1      33.509 -18.564 -20.966  0.00  0.00    +0.020 C 
ATOM      7  C   UNL     1      36.223 -19.196 -20.826  0.00  0.00    -0.003 C 
ATOM      8  C   UNL     1      33.909 -19.882 -20.741  0.00  0.00    -0.003 C 
ATOM      9  C   UNL     1      35.266 -20.197 -20.671  0.00  0.00    -0.022 C 
ATOM     10  C   UNL     1      35.692 -21.606 -20.430  0.00  0.00    +0.031 C 
ENDBRANCH   1   4
BRANCH   1  11
ATOM     11  N   UNL     1      34.394 -15.738 -23.040  0.00  0.00    -0.146 NA
ATOM     12  C   UNL     1      33.381 -15.169 -23.971  0.00  0.00    +0.178 C 
ATOM     13  C   UNL     1      33.457 -16.018 -25.235  0.00  0.00    +0.031 C 
ATOM     14  C   UNL     1      35.045 -16.900 -23.707  0.00  0.00    +0.096 C 
ATOM     15  C   UNL     1      34.850 -16.625 -25.188  0.00  0.00    +0.021 C 
BRANCH  12  17
ATOM     16  O   UNL     1      33.566 -13.106 -25.206  0.00  0.00    -0.249 OA
ATOM     17  C   UNL     1      33.813 -13.760 -24.203  0.00  0.00    +0.330 C 
BRANCH  17  18
ATOM     18  O   UNL     1      34.524 -13.297 -23.147  0.00  0.00    -0.479 OA
ATOM     19  H   UNL     1      35.434 -13.097 -23.245  0.00  0.00    +0.295 HD
ENDBRANCH  17  18
ENDBRANCH  12  17
ENDBRANCH   1  11
TORSDOF 4
ENDMDL
MODEL 7
REMARK VINA RESULT:      -7.6      7.755     10.638
REMARK  Name = 445504
REMARK  4 active torsions:
REMARK  status: ('A' for Active; 'I' for Inactive)
REMARK    1  A    between atoms: S_1  and  C_4
REMARK    2  A    between atoms: S_1  and  N_11
REMARK    3  A    between atoms: C_12  and  C_17
REMARK    4  A    between atoms: C_17  and  O_18
REMARK                            x       y       z     vdW  Elec       q    Type
REMARK                         _______ _______ _______ _____ _____    ______ ____
ROOT
ATOM      1  S   UNL     1      36.827 -23.334 -14.134  0.00  0.00    +0.064 S 
ATOM      2  O   UNL     1      37.551 -22.158 -13.686  0.00  0.00    -0.153 OA
ATOM      3  O   UNL     1      35.812 -23.937 -13.291  0.00  0.00    -0.153 OA
ENDROOT
BRANCH   1   4
ATOM      4  C   UNL     1      36.074 -22.938 -15.683  0.00  0.00    +0.122 C 
ATOM      5  C   UNL     1      36.778 -22.183 -16.603  0.00  0.00    +0.020 C 
ATOM      6  C   UNL     1      34.792 -23.391 -15.946  0.00  0.00    +0.020 C 
ATOM      7  C   UNL     1      36.184 -21.870 -17.826  0.00  0.00    -0.003 C 
ATOM      8  C   UNL     1      34.198 -23.078 -17.169  0.00  0.00    -0.003 C 
ATOM      9  C   UNL     1      34.894 -22.317 -18.109  0.00  0.00    -0.022 C 
ATOM     10  C   UNL     1      34.259 -21.983 -19.416  0.00  0.00    +0.031 C 
ENDBRANCH   1   4
BRANCH   1  11
ATOM     11  N   UNL     1      37.935 -24.527 -14.626  0.00  0.00    -0.146 NA
ATOM     12  C   UNL     1      38.389 -25.520 -13.614  0.00  0.00    +0.178 C 
ATOM     13  C   UNL     1      39.891 -25.674 -13.830  0.00  0.00    +0.031 C 
ATOM     14  C   UNL     1      39.118 -24.081 -15.411  0.00  0.00    +0.096 C 
ATOM     15  C   UNL     1      40.103 -25.228 -15.268  0.00  0.00    +0.021 C 
BRANCH  12  17
ATOM     16  O   UNL     1      37.885 -27.524 -14.859  0.00  0.00    -0.249 OA
ATOM     17  C   UNL     1      37.636 -26.769 -13.929  0.00  0.00    +0.330 C 
BRANCH  17  18
ATOM     18  O   UNL     1      36.631 -26.959 -13.041  0.00  0.00    -0.479 OA
ATOM     19  H   UNL     1      36.283 -26.231 -12.563  0.00  0.00    +0.295 HD
ENDBRANCH  17  18
ENDBRANCH  12  17
ENDBRANCH   1  11
TORSDOF 4
ENDMDL
MODEL 8
REMARK VINA RESULT:      -7.6      8.199     10.796
REMARK  Name = 445504
REMARK  4 active torsions:
REMARK  status: ('A' for Active; 'I' for Inactive)
REMARK    1  A    between atoms: S_1  and  C_4
REMARK    2  A    between atoms: S_1  and  N_11
REMARK    3  A    between atoms: C_12  and  C_17
REMARK    4  A    between atoms: C_17  and  O_18
REMARK                            x       y       z     vdW  Elec       q    Type
REMARK                         _______ _______ _______ _____ _____    ______ ____
ROOT
ATOM      1  S   UNL     1      36.850 -23.355 -13.355  0.00  0.00    +0.064 S 
ATOM      2  O   UNL     1      37.941 -22.494 -12.935  0.00  0.00    -0.153 OA
ATOM      3  O   UNL     1      35.622 -23.416 -12.584  0.00  0.00    -0.153 OA
ENDROOT
BRANCH   1   4
ATOM      4  C   UNL     1      36.423 -22.905 -15.010  0.00  0.00    +0.122 C 
ATOM      5  C   UNL     1      35.176 -23.247 -15.503  0.00  0.00    +0.020 C 
ATOM      6  C   UNL     1      37.343 -22.217 -15.782  0.00  0.00    +0.020 C 
ATOM      7  C   UNL     1      34.838 -22.893 -16.809  0.00  0.00    -0.003 C 
ATOM      8  C   UNL     1      37.005 -21.862 -17.089  0.00  0.00    -0.003 C 
ATOM      9  C   UNL     1      35.753 -22.200 -17.602  0.00  0.00    -0.022 C 
ATOM     10  C   UNL     1      35.392 -21.820 -18.998  0.00  0.00    +0.031 C 
ENDBRANCH   1   4
BRANCH   1  11
ATOM     11  N   UNL     1      37.438 -24.932 -13.607  0.00  0.00    -0.146 NA
ATOM     12  C   UNL     1      38.017 -25.259 -14.938  0.00  0.00    +0.178 C 
ATOM     13  C   UNL     1      37.481 -26.640 -15.295  0.00  0.00    +0.031 C 
ATOM     14  C   UNL     1      36.567 -26.063 -13.182  0.00  0.00    +0.096 C 
ATOM     15  C   UNL     1      37.115 -27.252 -13.953  0.00  0.00    +0.021 C 
BRANCH  12  17
ATOM     16  O   UNL     1      40.313 -25.734 -15.504  0.00  0.00    -0.249 OA
ATOM     17  C   UNL     1      39.495 -25.256 -14.731  0.00  0.00    +0.330 C 
BRANCH  17  18
ATOM     18  O   UNL     1      39.813 -24.650 -13.562  0.00  0.00    -0.479 OA
ATOM     19  H   UNL     1      40.706 -24.618 -13.278  0.00  0.00    +0.295 HD
ENDBRANCH  17  18
ENDBRANCH  12  17
ENDBRANCH   1  11
TORSDOF 4
ENDMDL
MODEL 9
REMARK VINA RESULT:      -7.6      8.909     10.915
REMARK  Name = 445504
REMARK  4 active torsions:
REMARK  status: ('A' for Active; 'I' for Inactive)
REMARK    1  A    between atoms: S_1  and  C_4
REMARK    2  A    between atoms: S_1  and  N_11
REMARK    3  A    between atoms: C_12  and  C_17
REMARK    4  A    between atoms: C_17  and  O_18
REMARK                            x       y       z     vdW  Elec       q    Type
REMARK                         _______ _______ _______ _____ _____    ______ ____
ROOT
ATOM      1  S   UNL     1      36.997 -23.159 -13.675  0.00  0.00    +0.064 S 
ATOM      2  O   UNL     1      37.696 -22.373 -14.675  0.00  0.00    -0.153 OA
ATOM      3  O   UNL     1      36.939 -22.711 -12.296  0.00  0.00    -0.153 OA
ENDROOT
BRANCH   1   4
ATOM      4  C   UNL     1      35.336 -23.380 -14.238  0.00  0.00    +0.122 C 
ATOM      5  C   UNL     1      35.045 -23.184 -15.576  0.00  0.00    +0.020 C 
ATOM      6  C   UNL     1      34.358 -23.745 -13.329  0.00  0.00    +0.020 C 
ATOM      7  C   UNL     1      33.734 -23.358 -16.021  0.00  0.00    -0.003 C 
ATOM      8  C   UNL     1      33.047 -23.919 -13.774  0.00  0.00    -0.003 C 
ATOM      9  C   UNL     1      32.735 -23.725 -15.120  0.00  0.00    -0.022 C 
ATOM     10  C   UNL     1      31.334 -23.911 -15.595  0.00  0.00    +0.031 C 
ENDBRANCH   1   4
BRANCH   1  11
ATOM     11  N   UNL     1      37.556 -24.765 -13.724  0.00  0.00    -0.146 NA
ATOM     12  C   UNL     1      38.081 -25.284 -15.016  0.00  0.00    +0.178 C 
ATOM     13  C   UNL     1      37.515 -26.693 -15.158  0.00  0.00    +0.031 C 
ATOM     14  C   UNL     1      36.687 -25.811 -13.115  0.00  0.00    +0.096 C 
ATOM     15  C   UNL     1      37.192 -27.105 -13.731  0.00  0.00    +0.021 C 
BRANCH  12  17
ATOM     16  O   UNL     1      40.169 -24.853 -13.889  0.00  0.00    -0.249 OA
ATOM     17  C   UNL     1      39.565 -25.278 -14.863  0.00  0.00    +0.330 C 
BRANCH  17  18
ATOM     18  O   UNL     1      40.162 -25.809 -15.958  0.00  0.00    -0.479 OA
ATOM     19  H   UNL     1      40.352 -26.726 -15.990  0.00  0.00    +0.295 HD
ENDBRANCH  17  18
ENDBRANCH  12  17
ENDBRANCH   1  11
TORSDOF 4
ENDMDL
