MODEL 1
REMARK VINA RESULT:      -4.3      0.000      0.000
REMARK  Name = 3485
REMARK  4 active torsions:
REMARK  status: ('A' for Active; 'I' for Inactive)
REMARK    1  A    between atoms: C_1  and  C_2
REMARK    2  A    between atoms: C_1  and  C_5
REMARK    3  A    between atoms: C_2  and  C_4
REMARK    4  A    between atoms: C_5  and  C_7
REMARK                            x       y       z     vdW  Elec       q    Type
REMARK                         _______ _______ _______ _____ _____    ______ ____
ROOT
ATOM      1  C   UNL     1      33.171 -20.520 -20.194  0.00  0.00    +0.016 C 
ENDROOT
BRANCH   1   2
ATOM      2  C   UNL     1      33.691 -19.366 -21.048  0.00  0.00    +0.073 C 
BRANCH   2   4
ATOM      3  O   UNL     1      35.851 -18.328 -20.659  0.00  0.00    -0.288 OA
ATOM      4  C   UNL     1      35.199 -19.286 -21.058  0.00  0.00    +0.207 C 
ENDBRANCH   2   4
ENDBRANCH   1   2
BRANCH   1   5
ATOM      5  C   UNL     1      34.298 -21.374 -19.620  0.00  0.00    +0.073 C 
BRANCH   5   7
ATOM      6  O   UNL     1      33.892 -23.737 -19.217  0.00  0.00    -0.288 OA
ATOM      7  C   UNL     1      33.819 -22.574 -18.835  0.00  0.00    +0.207 C 
ENDBRANCH   5   7
ENDBRANCH   1   5
TORSDOF 4
ENDMDL
MODEL 2
REMARK VINA RESULT:      -4.3      0.036      4.125
REMARK  Name = 3485
REMARK  4 active torsions:
REMARK  status: ('A' for Active; 'I' for Inactive)
REMARK    1  A    between atoms: C_1  and  C_2
REMARK    2  A    between atoms: C_1  and  C_5
REMARK    3  A    between atoms: C_2  and  C_4
REMARK    4  A    between atoms: C_5  and  C_7
REMARK                            x       y       z     vdW  Elec       q    Type
REMARK                         _______ _______ _______ _____ _____    ______ ____
ROOT
ATOM      1  C   UNL     1      33.173 -20.521 -20.197  0.00  0.00    +0.016 C 
ENDROOT
BRANCH   1   2
ATOM      2  C   UNL     1      34.309 -21.366 -19.625  0.00  0.00    +0.073 C 
BRANCH   2   4
ATOM      3  O   UNL     1      33.911 -23.728 -19.232  0.00  0.00    -0.288 OA
ATOM      4  C   UNL     1      33.809 -22.565 -18.857  0.00  0.00    +0.207 C 
ENDBRANCH   2   4
ENDBRANCH   1   2
BRANCH   1   5
ATOM      5  C   UNL     1      33.680 -19.368 -21.058  0.00  0.00    +0.073 C 
BRANCH   5   7
ATOM      6  O   UNL     1      35.817 -18.273 -20.674  0.00  0.00    -0.288 OA
ATOM      7  C   UNL     1      35.185 -19.240 -21.087  0.00  0.00    +0.207 C 
ENDBRANCH   5   7
ENDBRANCH   1   5
TORSDOF 4
ENDMDL
MODEL 3
REMARK VINA RESULT:      -4.3      7.778      8.614
REMARK  Name = 3485
REMARK  4 active torsions:
REMARK  status: ('A' for Active; 'I' for Inactive)
REMARK    1  A    between atoms: C_1  and  C_2
REMARK    2  A    between atoms: C_1  and  C_5
REMARK    3  A    between atoms: C_2  and  C_4
REMARK    4  A    between atoms: C_5  and  C_7
REMARK                            x       y       z     vdW  Elec       q    Type
REMARK                         _______ _______ _______ _____ _____    ______ ____
ROOT
ATOM      1  C   UNL     1      37.983 -24.791 -13.959  0.00  0.00    +0.016 C 
ENDROOT
BRANCH   1   2
ATOM      2  C   UNL     1      39.184 -25.734 -13.939  0.00  0.00    +0.073 C 
BRANCH   2   4
ATOM      3  O   UNL     1      40.665 -26.075 -15.832  0.00  0.00    -0.288 OA
ATOM      4  C   UNL     1      40.243 -25.345 -14.942  0.00  0.00    +0.207 C 
ENDBRANCH   2   4
ENDBRANCH   1   2
BRANCH   1   5
ATOM      5  C   UNL     1      36.953 -25.181 -15.015  0.00  0.00    +0.073 C 
BRANCH   5   7
ATOM      6  O   UNL     1      36.762 -27.303 -16.185  0.00  0.00    -0.288 OA
ATOM      7  C   UNL     1      36.731 -26.671 -15.135  0.00  0.00    +0.207 C 
ENDBRANCH   5   7
ENDBRANCH   1   5
TORSDOF 4
ENDMDL
MODEL 4
REMARK VINA RESULT:      -4.2      1.565      2.072
REMARK  Name = 3485
REMARK  4 active torsions:
REMARK  status: ('A' for Active; 'I' for Inactive)
REMARK    1  A    between atoms: C_1  and  C_2
REMARK    2  A    between atoms: C_1  and  C_5
REMARK    3  A    between atoms: C_2  and  C_4
REMARK    4  A    between atoms: C_5  and  C_7
REMARK                            x       y       z     vdW  Elec       q    Type
REMARK                         _______ _______ _______ _____ _____    ______ ____
ROOT
ATOM      1  C   UNL     1      34.278 -19.536 -21.721  0.00  0.00    +0.016 C 
ENDROOT
BRANCH   1   2
ATOM      2  C   UNL     1      35.327 -18.567 -21.181  0.00  0.00    +0.073 C 
BRANCH   2   4
ATOM      3  O   UNL     1      35.108 -16.316 -20.298  0.00  0.00    -0.288 OA
ATOM      4  C   UNL     1      34.843 -17.136 -21.170  0.00  0.00    +0.207 C 
ENDBRANCH   2   4
ENDBRANCH   1   2
BRANCH   1   5
ATOM      5  C   UNL     1      33.226 -19.898 -20.676  0.00  0.00    +0.073 C 
BRANCH   5   7
ATOM      6  O   UNL     1      32.730 -21.818 -19.270  0.00  0.00    -0.288 OA
ATOM      7  C   UNL     1      33.549 -21.145 -19.888  0.00  0.00    +0.207 C 
ENDBRANCH   5   7
ENDBRANCH   1   5
TORSDOF 4
ENDMDL
MODEL 5
REMARK VINA RESULT:      -4.2      3.678      4.905
REMARK  Name = 3485
REMARK  4 active torsions:
REMARK  status: ('A' for Active; 'I' for Inactive)
REMARK    1  A    between atoms: C_1  and  C_2
REMARK    2  A    between atoms: C_1  and  C_5
REMARK    3  A    between atoms: C_2  and  C_4
REMARK    4  A    between atoms: C_5  and  C_7
REMARK                            x       y       z     vdW  Elec       q    Type
REMARK                         _______ _______ _______ _____ _____    ______ ____
ROOT
ATOM      1  C   UNL     1      35.073 -19.371 -23.733  0.00  0.00    +0.016 C 
ENDROOT
BRANCH   1   2
ATOM      2  C   UNL     1      34.332 -18.637 -24.847  0.00  0.00    +0.073 C 
BRANCH   2   4
ATOM      3  O   UNL     1      34.521 -16.466 -25.919  0.00  0.00    -0.288 OA
ATOM      4  C   UNL     1      34.726 -17.182 -24.945  0.00  0.00    +0.207 C 
ENDBRANCH   2   4
ENDBRANCH   1   2
BRANCH   1   5
ATOM      5  C   UNL     1      34.529 -19.031 -22.348  0.00  0.00    +0.073 C 
BRANCH   5   7
ATOM      6  O   UNL     1      35.366 -17.495 -20.659  0.00  0.00    -0.288 OA
ATOM      7  C   UNL     1      35.559 -18.444 -21.411  0.00  0.00    +0.207 C 
ENDBRANCH   5   7
ENDBRANCH   1   5
TORSDOF 4
ENDMDL
MODEL 6
REMARK VINA RESULT:      -4.2      7.768      9.012
REMARK  Name = 3485
REMARK  4 active torsions:
REMARK  status: ('A' for Active; 'I' for Inactive)
REMARK    1  A    between atoms: C_1  and  C_2
REMARK    2  A    between atoms: C_1  and  C_5
REMARK    3  A    between atoms: C_2  and  C_4
REMARK    4  A    between atoms: C_5  and  C_7
REMARK                            x       y       z     vdW  Elec       q    Type
REMARK                         _______ _______ _______ _____ _____    ______ ____
ROOT
ATOM      1  C   UNL     1      37.835 -24.762 -13.757  0.00  0.00    +0.016 C 
ENDROOT
BRANCH   1   2
ATOM      2  C   UNL     1      37.047 -25.112 -15.017  0.00  0.00    +0.073 C 
BRANCH   2   4
ATOM      3  O   UNL     1      36.748 -27.247 -16.133  0.00  0.00    -0.288 OA
ATOM      4  C   UNL     1      36.715 -26.582 -15.103  0.00  0.00    +0.207 C 
ENDBRANCH   2   4
ENDBRANCH   1   2
BRANCH   1   5
ATOM      5  C   UNL     1      39.089 -25.618 -13.597  0.00  0.00    +0.073 C 
BRANCH   5   7
ATOM      6  O   UNL     1      40.911 -26.255 -15.075  0.00  0.00    -0.288 OA
ATOM      7  C   UNL     1      40.119 -25.405 -14.682  0.00  0.00    +0.207 C 
ENDBRANCH   5   7
ENDBRANCH   1   5
TORSDOF 4
ENDMDL
MODEL 7
REMARK VINA RESULT:      -4.1      2.882      5.083
REMARK  Name = 3485
REMARK  4 active torsions:
REMARK  status: ('A' for Active; 'I' for Inactive)
REMARK    1  A    between atoms: C_1  and  C_2
REMARK    2  A    between atoms: C_1  and  C_5
REMARK    3  A    between atoms: C_2  and  C_4
REMARK    4  A    between atoms: C_5  and  C_7
REMARK                            x       y       z     vdW  Elec       q    Type
REMARK                         _______ _______ _______ _____ _____    ______ ____
ROOT
ATOM      1  C   UNL     1      34.471 -18.664 -21.985  0.00  0.00    +0.016 C 
ENDROOT
BRANCH   1   2
ATOM      2  C   UNL     1      34.326 -19.869 -21.058  0.00  0.00    +0.073 C 
BRANCH   2   4
ATOM      3  O   UNL     1      32.607 -20.734 -19.579  0.00  0.00    -0.288 OA
ATOM      4  C   UNL     1      32.919 -20.032 -20.534  0.00  0.00    +0.207 C 
ENDBRANCH   2   4
ENDBRANCH   1   2
BRANCH   1   5
ATOM      5  C   UNL     1      34.764 -19.069 -23.427  0.00  0.00    +0.073 C 
BRANCH   5   7
ATOM      6  O   UNL     1      34.490 -17.860 -25.518  0.00  0.00    -0.288 OA
ATOM      7  C   UNL     1      34.923 -17.901 -24.371  0.00  0.00    +0.207 C 
ENDBRANCH   5   7
ENDBRANCH   1   5
TORSDOF 4
ENDMDL
MODEL 8
REMARK VINA RESULT:      -4.1      9.022      9.487
REMARK  Name = 3485
REMARK  4 active torsions:
REMARK  status: ('A' for Active; 'I' for Inactive)
REMARK    1  A    between atoms: C_1  and  C_2
REMARK    2  A    between atoms: C_1  and  C_5
REMARK    3  A    between atoms: C_2  and  C_4
REMARK    4  A    between atoms: C_5  and  C_7
REMARK                            x       y       z     vdW  Elec       q    Type
REMARK                         _______ _______ _______ _____ _____    ______ ____
ROOT
ATOM      1  C   UNL     1      38.560 -25.348 -12.951  0.00  0.00    +0.016 C 
ENDROOT
BRANCH   1   2
ATOM      2  C   UNL     1      38.798 -25.331 -14.459  0.00  0.00    +0.073 C 
BRANCH   2   4
ATOM      3  O   UNL     1      40.645 -26.120 -15.823  0.00  0.00    -0.288 OA
ATOM      4  C   UNL     1      40.250 -25.537 -14.819  0.00  0.00    +0.207 C 
ENDBRANCH   2   4
ENDBRANCH   1   2
BRANCH   1   5
ATOM      5  C   UNL     1      37.219 -25.976 -12.580  0.00  0.00    +0.073 C 
BRANCH   5   7
ATOM      6  O   UNL     1      35.529 -25.195 -11.017  0.00  0.00    -0.288 OA
ATOM      7  C   UNL     1      36.220 -24.996 -12.011  0.00  0.00    +0.207 C 
ENDBRANCH   5   7
ENDBRANCH   1   5
TORSDOF 4
ENDMDL
MODEL 9
REMARK VINA RESULT:      -4.1      1.787      4.747
REMARK  Name = 3485
REMARK  4 active torsions:
REMARK  status: ('A' for Active; 'I' for Inactive)
REMARK    1  A    between atoms: C_1  and  C_2
REMARK    2  A    between atoms: C_1  and  C_5
REMARK    3  A    between atoms: C_2  and  C_4
REMARK    4  A    between atoms: C_5  and  C_7
REMARK                            x       y       z     vdW  Elec       q    Type
REMARK                         _______ _______ _______ _____ _____    ______ ____
ROOT
ATOM      1  C   UNL     1      34.043 -18.959 -21.230  0.00  0.00    +0.016 C 
ENDROOT
BRANCH   1   2
ATOM      2  C   UNL     1      34.361 -20.265 -20.504  0.00  0.00    +0.073 C 
BRANCH   2   4
ATOM      3  O   UNL     1      32.975 -22.066 -19.651  0.00  0.00    -0.288 OA
ATOM      4  C   UNL     1      33.149 -20.866 -19.835  0.00  0.00    +0.207 C 
ENDBRANCH   2   4
ENDBRANCH   1   2
BRANCH   1   5
ATOM      5  C   UNL     1      35.224 -17.992 -21.234  0.00  0.00    +0.073 C 
BRANCH   5   7
ATOM      6  O   UNL     1      34.985 -15.899 -20.021  0.00  0.00    -0.288 OA
ATOM      7  C   UNL     1      34.830 -16.544 -21.052  0.00  0.00    +0.207 C 
ENDBRANCH   5   7
ENDBRANCH   1   5
TORSDOF 4
ENDMDL
