MODEL 1
REMARK VINA RESULT:      -7.6      0.000      0.000
REMARK  Name = 14368760
REMARK  9 active torsions:
REMARK  status: ('A' for Active; 'I' for Inactive)
REMARK    1  A    between atoms: C_1  and  O_11
REMARK    2  A    between atoms: C_4  and  C_8
REMARK    3  A    between atoms: C_8  and  O_9
REMARK    4  A    between atoms: O_11  and  C_12
REMARK    5  A    between atoms: C_12  and  C_13
REMARK    6  A    between atoms: C_13  and  C_14
REMARK    7  A    between atoms: C_14  and  C_15
REMARK    8  A    between atoms: C_15  and  C_16
REMARK    9  A    between atoms: C_16  and  C_17
REMARK                            x       y       z     vdW  Elec       q    Type
REMARK                         _______ _______ _______ _____ _____    ______ ____
ROOT
ATOM      1  C   UNL     1      34.618 -19.058 -20.926  0.00  0.00    +0.139 C 
ATOM      2  C   UNL     1      33.862 -20.111 -20.425  0.00  0.00    +0.043 C 
ATOM      3  C   UNL     1      36.007 -19.103 -20.893  0.00  0.00    +0.037 C 
ATOM      4  C   UNL     1      34.503 -21.224 -19.883  0.00  0.00    +0.078 C 
ATOM      5  C   UNL     1      36.649 -20.216 -20.351  0.00  0.00    +0.003 C 
ATOM      6  C   UNL     1      35.897 -21.277 -19.846  0.00  0.00    +0.007 C 
ENDROOT
BRANCH   4   8
ATOM      7  O   UNL     1      34.048 -23.520 -19.388  0.00  0.00    -0.245 OA
ATOM      8  C   UNL     1      33.720 -22.330 -19.355  0.00  0.00    +0.338 C 
BRANCH   8   9
ATOM      9  O   UNL     1      32.547 -21.919 -18.798  0.00  0.00    -0.477 OA
ATOM     10  H   UNL     1      31.757 -22.394 -18.966  0.00  0.00    +0.295 HD
ENDBRANCH   8   9
ENDBRANCH   4   8
BRANCH   1  11
ATOM     11  O   UNL     1      33.988 -17.963 -21.458  0.00  0.00    -0.475 OA
BRANCH  11  12
ATOM     12  C   UNL     1      34.612 -16.703 -21.255  0.00  0.00    +0.205 C 
BRANCH  12  13
ATOM     13  C   UNL     1      33.785 -15.627 -21.947  0.00  0.00    +0.047 C 
BRANCH  13  14
ATOM     14  C   UNL     1      34.516 -15.042 -23.153  0.00  0.00    +0.004 C 
BRANCH  14  15
ATOM     15  C   UNL     1      33.575 -14.885 -24.349  0.00  0.00    +0.000 C 
BRANCH  15  16
ATOM     16  C   UNL     1      33.727 -15.993 -25.394  0.00  0.00    +0.000 C 
BRANCH  16  17
ATOM     17  C   UNL     1      34.886 -16.947 -25.105  0.00  0.00    +0.000 C 
ATOM     18  C   UNL     1      34.398 -18.379 -24.936  0.00  0.00    +0.000 C 
ENDBRANCH  16  17
ENDBRANCH  15  16
ENDBRANCH  14  15
ENDBRANCH  13  14
ENDBRANCH  12  13
ENDBRANCH  11  12
ENDBRANCH   1  11
TORSDOF 9
ENDMDL
MODEL 2
REMARK VINA RESULT:      -7.5      2.300      6.820
REMARK  Name = 14368760
REMARK  9 active torsions:
REMARK  status: ('A' for Active; 'I' for Inactive)
REMARK    1  A    between atoms: C_1  and  O_11
REMARK    2  A    between atoms: C_4  and  C_8
REMARK    3  A    between atoms: C_8  and  O_9
REMARK    4  A    between atoms: O_11  and  C_12
REMARK    5  A    between atoms: C_12  and  C_13
REMARK    6  A    between atoms: C_13  and  C_14
REMARK    7  A    between atoms: C_14  and  C_15
REMARK    8  A    between atoms: C_15  and  C_16
REMARK    9  A    between atoms: C_16  and  C_17
REMARK                            x       y       z     vdW  Elec       q    Type
REMARK                         _______ _______ _______ _____ _____    ______ ____
ROOT
ATOM      1  C   UNL     1      34.994 -16.678 -21.528  0.00  0.00    +0.139 C 
ATOM      2  C   UNL     1      34.859 -16.934 -22.888  0.00  0.00    +0.043 C 
ATOM      3  C   UNL     1      34.603 -15.456 -20.994  0.00  0.00    +0.037 C 
ATOM      4  C   UNL     1      34.326 -15.954 -23.725  0.00  0.00    +0.078 C 
ATOM      5  C   UNL     1      34.070 -14.476 -21.831  0.00  0.00    +0.003 C 
ATOM      6  C   UNL     1      33.931 -14.725 -23.197  0.00  0.00    +0.007 C 
ENDROOT
BRANCH   4   8
ATOM      7  O   UNL     1      34.789 -17.083 -25.783  0.00  0.00    -0.245 OA
ATOM      8  C   UNL     1      34.182 -16.213 -25.149  0.00  0.00    +0.338 C 
BRANCH   8   9
ATOM      9  O   UNL     1      33.283 -15.381 -25.742  0.00  0.00    -0.477 OA
ATOM     10  H   UNL     1      33.208 -14.492 -25.453  0.00  0.00    +0.295 HD
ENDBRANCH   8   9
ENDBRANCH   4   8
BRANCH   1  11
ATOM     11  O   UNL     1      35.518 -17.641 -20.706  0.00  0.00    -0.475 OA
BRANCH  11  12
ATOM     12  C   UNL     1      35.963 -18.840 -21.325  0.00  0.00    +0.205 C 
BRANCH  12  13
ATOM     13  C   UNL     1      35.295 -20.025 -20.643  0.00  0.00    +0.047 C 
BRANCH  13  14
ATOM     14  C   UNL     1      33.782 -20.015 -20.847  0.00  0.00    +0.004 C 
BRANCH  14  15
ATOM     15  C   UNL     1      33.067 -20.790 -19.739  0.00  0.00    +0.000 C 
BRANCH  15  16
ATOM     16  C   UNL     1      33.821 -22.044 -19.289  0.00  0.00    +0.000 C 
BRANCH  16  17
ATOM     17  C   UNL     1      33.175 -22.748 -18.095  0.00  0.00    +0.000 C 
ATOM     18  C   UNL     1      34.199 -23.056 -17.012  0.00  0.00    +0.000 C 
ENDBRANCH  16  17
ENDBRANCH  15  16
ENDBRANCH  14  15
ENDBRANCH  13  14
ENDBRANCH  12  13
ENDBRANCH  11  12
ENDBRANCH   1  11
TORSDOF 9
ENDMDL
MODEL 3
REMARK VINA RESULT:      -7.5      4.342      7.637
REMARK  Name = 14368760
REMARK  9 active torsions:
REMARK  status: ('A' for Active; 'I' for Inactive)
REMARK    1  A    between atoms: C_1  and  O_11
REMARK    2  A    between atoms: C_4  and  C_8
REMARK    3  A    between atoms: C_8  and  O_9
REMARK    4  A    between atoms: O_11  and  C_12
REMARK    5  A    between atoms: C_12  and  C_13
REMARK    6  A    between atoms: C_13  and  C_14
REMARK    7  A    between atoms: C_14  and  C_15
REMARK    8  A    between atoms: C_15  and  C_16
REMARK    9  A    between atoms: C_16  and  C_17
REMARK                            x       y       z     vdW  Elec       q    Type
REMARK                         _______ _______ _______ _____ _____    ______ ____
ROOT
ATOM      1  C   UNL     1      31.557 -23.543 -15.385  0.00  0.00    +0.139 C 
ATOM      2  C   UNL     1      30.532 -23.034 -16.175  0.00  0.00    +0.043 C 
ATOM      3  C   UNL     1      31.346 -24.655 -14.579  0.00  0.00    +0.037 C 
ATOM      4  C   UNL     1      29.279 -23.645 -16.157  0.00  0.00    +0.078 C 
ATOM      5  C   UNL     1      30.092 -25.266 -14.560  0.00  0.00    +0.003 C 
ATOM      6  C   UNL     1      29.059 -24.761 -15.349  0.00  0.00    +0.007 C 
ENDROOT
BRANCH   4   8
ATOM      7  O   UNL     1      27.506 -23.779 -17.757  0.00  0.00    -0.245 OA
ATOM      8  C   UNL     1      28.201 -23.118 -16.978  0.00  0.00    +0.338 C 
BRANCH   8   9
ATOM      9  O   UNL     1      28.018 -21.781 -16.802  0.00  0.00    -0.477 OA
ATOM     10  H   UNL     1      27.497 -21.470 -16.087  0.00  0.00    +0.295 HD
ENDBRANCH   8   9
ENDBRANCH   4   8
BRANCH   1  11
ATOM     11  O   UNL     1      32.789 -22.943 -15.403  0.00  0.00    -0.475 OA
BRANCH  11  12
ATOM     12  C   UNL     1      33.774 -23.525 -16.247  0.00  0.00    +0.205 C 
BRANCH  12  13
ATOM     13  C   UNL     1      33.594 -22.985 -17.659  0.00  0.00    +0.047 C 
BRANCH  13  14
ATOM     14  C   UNL     1      34.888 -22.382 -18.201  0.00  0.00    +0.004 C 
BRANCH  14  15
ATOM     15  C   UNL     1      34.639 -21.608 -19.497  0.00  0.00    +0.000 C 
BRANCH  15  16
ATOM     16  C   UNL     1      33.171 -21.226 -19.706  0.00  0.00    +0.000 C 
BRANCH  16  17
ATOM     17  C   UNL     1      32.984 -19.974 -20.563  0.00  0.00    +0.000 C 
ATOM     18  C   UNL     1      34.322 -19.395 -20.999  0.00  0.00    +0.000 C 
ENDBRANCH  16  17
ENDBRANCH  15  16
ENDBRANCH  14  15
ENDBRANCH  13  14
ENDBRANCH  12  13
ENDBRANCH  11  12
ENDBRANCH   1  11
TORSDOF 9
ENDMDL
MODEL 4
REMARK VINA RESULT:      -7.5      1.395      2.130
REMARK  Name = 14368760
REMARK  9 active torsions:
REMARK  status: ('A' for Active; 'I' for Inactive)
REMARK    1  A    between atoms: C_1  and  O_11
REMARK    2  A    between atoms: C_4  and  C_8
REMARK    3  A    between atoms: C_8  and  O_9
REMARK    4  A    between atoms: O_11  and  C_12
REMARK    5  A    between atoms: C_12  and  C_13
REMARK    6  A    between atoms: C_13  and  C_14
REMARK    7  A    between atoms: C_14  and  C_15
REMARK    8  A    between atoms: C_15  and  C_16
REMARK    9  A    between atoms: C_16  and  C_17
REMARK                            x       y       z     vdW  Elec       q    Type
REMARK                         _______ _______ _______ _____ _____    ______ ____
ROOT
ATOM      1  C   UNL     1      34.771 -19.177 -21.101  0.00  0.00    +0.139 C 
ATOM      2  C   UNL     1      33.920 -20.139 -20.568  0.00  0.00    +0.043 C 
ATOM      3  C   UNL     1      36.145 -19.261 -20.910  0.00  0.00    +0.037 C 
ATOM      4  C   UNL     1      34.451 -21.198 -19.832  0.00  0.00    +0.078 C 
ATOM      5  C   UNL     1      36.676 -20.320 -20.174  0.00  0.00    +0.003 C 
ATOM      6  C   UNL     1      35.829 -21.288 -19.635  0.00  0.00    +0.007 C 
ENDROOT
BRANCH   4   8
ATOM      7  O   UNL     1      32.504 -21.981 -18.683  0.00  0.00    -0.245 OA
ATOM      8  C   UNL     1      33.568 -22.207 -19.269  0.00  0.00    +0.338 C 
BRANCH   8   9
ATOM      9  O   UNL     1      34.036 -23.471 -19.455  0.00  0.00    -0.477 OA
ATOM     10  H   UNL     1      33.710 -24.173 -18.927  0.00  0.00    +0.295 HD
ENDBRANCH   8   9
ENDBRANCH   4   8
BRANCH   1  11
ATOM     11  O   UNL     1      34.249 -18.136 -21.824  0.00  0.00    -0.475 OA
BRANCH  11  12
ATOM     12  C   UNL     1      35.000 -16.930 -21.844  0.00  0.00    +0.205 C 
BRANCH  12  13
ATOM     13  C   UNL     1      34.629 -16.098 -20.624  0.00  0.00    +0.047 C 
BRANCH  13  14
ATOM     14  C   UNL     1      34.312 -14.653 -21.002  0.00  0.00    +0.004 C 
BRANCH  14  15
ATOM     15  C   UNL     1      32.809 -14.449 -21.201  0.00  0.00    +0.000 C 
BRANCH  15  16
ATOM     16  C   UNL     1      32.455 -13.792 -22.537  0.00  0.00    +0.000 C 
BRANCH  16  17
ATOM     17  C   UNL     1      33.606 -13.801 -23.544  0.00  0.00    +0.000 C 
ATOM     18  C   UNL     1      33.128 -14.212 -24.929  0.00  0.00    +0.000 C 
ENDBRANCH  16  17
ENDBRANCH  15  16
ENDBRANCH  14  15
ENDBRANCH  13  14
ENDBRANCH  12  13
ENDBRANCH  11  12
ENDBRANCH   1  11
TORSDOF 9
ENDMDL
MODEL 5
REMARK VINA RESULT:      -7.5      1.432      2.790
REMARK  Name = 14368760
REMARK  9 active torsions:
REMARK  status: ('A' for Active; 'I' for Inactive)
REMARK    1  A    between atoms: C_1  and  O_11
REMARK    2  A    between atoms: C_4  and  C_8
REMARK    3  A    between atoms: C_8  and  O_9
REMARK    4  A    between atoms: O_11  and  C_12
REMARK    5  A    between atoms: C_12  and  C_13
REMARK    6  A    between atoms: C_13  and  C_14
REMARK    7  A    between atoms: C_14  and  C_15
REMARK    8  A    between atoms: C_15  and  C_16
REMARK    9  A    between atoms: C_16  and  C_17
REMARK                            x       y       z     vdW  Elec       q    Type
REMARK                         _______ _______ _______ _____ _____    ______ ____
ROOT
ATOM      1  C   UNL     1      34.988 -19.408 -21.131  0.00  0.00    +0.139 C 
ATOM      2  C   UNL     1      35.342 -20.521 -20.377  0.00  0.00    +0.043 C 
ATOM      3  C   UNL     1      33.660 -19.005 -21.221  0.00  0.00    +0.037 C 
ATOM      4  C   UNL     1      34.355 -21.242 -19.706  0.00  0.00    +0.078 C 
ATOM      5  C   UNL     1      32.673 -19.726 -20.549  0.00  0.00    +0.003 C 
ATOM      6  C   UNL     1      33.021 -20.844 -19.792  0.00  0.00    +0.007 C 
ENDROOT
BRANCH   4   8
ATOM      7  O   UNL     1      35.525 -22.419 -17.983  0.00  0.00    -0.245 OA
ATOM      8  C   UNL     1      34.716 -22.409 -18.917  0.00  0.00    +0.338 C 
BRANCH   8   9
ATOM      9  O   UNL     1      34.056 -23.531 -19.314  0.00  0.00    -0.477 OA
ATOM     10  H   UNL     1      33.119 -23.546 -19.317  0.00  0.00    +0.295 HD
ENDBRANCH   8   9
ENDBRANCH   4   8
BRANCH   1  11
ATOM     11  O   UNL     1      35.958 -18.699 -21.791  0.00  0.00    -0.475 OA
BRANCH  11  12
ATOM     12  C   UNL     1      35.649 -18.266 -23.109  0.00  0.00    +0.205 C 
BRANCH  12  13
ATOM     13  C   UNL     1      35.458 -16.755 -23.099  0.00  0.00    +0.047 C 
BRANCH  13  14
ATOM     14  C   UNL     1      34.505 -16.300 -24.202  0.00  0.00    +0.004 C 
BRANCH  14  15
ATOM     15  C   UNL     1      33.957 -14.899 -23.918  0.00  0.00    +0.000 C 
BRANCH  15  16
ATOM     16  C   UNL     1      33.941 -14.542 -22.430  0.00  0.00    +0.000 C 
BRANCH  16  17
ATOM     17  C   UNL     1      32.588 -14.785 -21.761  0.00  0.00    +0.000 C 
ATOM     18  C   UNL     1      32.743 -15.025 -20.266  0.00  0.00    +0.000 C 
ENDBRANCH  16  17
ENDBRANCH  15  16
ENDBRANCH  14  15
ENDBRANCH  13  14
ENDBRANCH  12  13
ENDBRANCH  11  12
ENDBRANCH   1  11
TORSDOF 9
ENDMDL
MODEL 6
REMARK VINA RESULT:      -7.5      1.205      2.156
REMARK  Name = 14368760
REMARK  9 active torsions:
REMARK  status: ('A' for Active; 'I' for Inactive)
REMARK    1  A    between atoms: C_1  and  O_11
REMARK    2  A    between atoms: C_4  and  C_8
REMARK    3  A    between atoms: C_8  and  O_9
REMARK    4  A    between atoms: O_11  and  C_12
REMARK    5  A    between atoms: C_12  and  C_13
REMARK    6  A    between atoms: C_13  and  C_14
REMARK    7  A    between atoms: C_14  and  C_15
REMARK    8  A    between atoms: C_15  and  C_16
REMARK    9  A    between atoms: C_16  and  C_17
REMARK                            x       y       z     vdW  Elec       q    Type
REMARK                         _______ _______ _______ _____ _____    ______ ____
ROOT
ATOM      1  C   UNL     1      34.946 -19.649 -20.888  0.00  0.00    +0.139 C 
ATOM      2  C   UNL     1      34.058 -20.580 -20.359  0.00  0.00    +0.043 C 
ATOM      3  C   UNL     1      36.304 -19.721 -20.601  0.00  0.00    +0.037 C 
ATOM      4  C   UNL     1      34.536 -21.596 -19.532  0.00  0.00    +0.078 C 
ATOM      5  C   UNL     1      36.782 -20.737 -19.773  0.00  0.00    +0.003 C 
ATOM      6  C   UNL     1      35.898 -21.675 -19.239  0.00  0.00    +0.007 C 
ENDROOT
BRANCH   4   8
ATOM      7  O   UNL     1      33.839 -23.783 -18.857  0.00  0.00    -0.245 OA
ATOM      8  C   UNL     1      33.615 -22.573 -18.974  0.00  0.00    +0.338 C 
BRANCH   8   9
ATOM      9  O   UNL     1      32.440 -22.014 -18.576  0.00  0.00    -0.477 OA
ATOM     10  H   UNL     1      32.414 -21.480 -17.806  0.00  0.00    +0.295 HD
ENDBRANCH   8   9
ENDBRANCH   4   8
BRANCH   1  11
ATOM     11  O   UNL     1      34.476 -18.650 -21.700  0.00  0.00    -0.475 OA
BRANCH  11  12
ATOM     12  C   UNL     1      35.324 -18.237 -22.763  0.00  0.00    +0.205 C 
BRANCH  12  13
ATOM     13  C   UNL     1      34.953 -19.013 -24.020  0.00  0.00    +0.047 C 
BRANCH  13  14
ATOM     14  C   UNL     1      34.134 -18.162 -24.988  0.00  0.00    +0.004 C 
BRANCH  14  15
ATOM     15  C   UNL     1      34.772 -16.786 -25.190  0.00  0.00    +0.000 C 
BRANCH  15  16
ATOM     16  C   UNL     1      33.780 -15.628 -25.050  0.00  0.00    +0.000 C 
BRANCH  16  17
ATOM     17  C   UNL     1      33.065 -15.278 -26.355  0.00  0.00    +0.000 C 
ATOM     18  C   UNL     1      33.100 -13.780 -26.623  0.00  0.00    +0.000 C 
ENDBRANCH  16  17
ENDBRANCH  15  16
ENDBRANCH  14  15
ENDBRANCH  13  14
ENDBRANCH  12  13
ENDBRANCH  11  12
ENDBRANCH   1  11
TORSDOF 9
ENDMDL
MODEL 7
REMARK VINA RESULT:      -7.5      3.381      7.081
REMARK  Name = 14368760
REMARK  9 active torsions:
REMARK  status: ('A' for Active; 'I' for Inactive)
REMARK    1  A    between atoms: C_1  and  O_11
REMARK    2  A    between atoms: C_4  and  C_8
REMARK    3  A    between atoms: C_8  and  O_9
REMARK    4  A    between atoms: O_11  and  C_12
REMARK    5  A    between atoms: C_12  and  C_13
REMARK    6  A    between atoms: C_13  and  C_14
REMARK    7  A    between atoms: C_14  and  C_15
REMARK    8  A    between atoms: C_15  and  C_16
REMARK    9  A    between atoms: C_16  and  C_17
REMARK                            x       y       z     vdW  Elec       q    Type
REMARK                         _______ _______ _______ _____ _____    ______ ____
ROOT
ATOM      1  C   UNL     1      33.257 -14.986 -22.912  0.00  0.00    +0.139 C 
ATOM      2  C   UNL     1      32.699 -13.720 -23.054  0.00  0.00    +0.043 C 
ATOM      3  C   UNL     1      33.391 -15.565 -21.656  0.00  0.00    +0.037 C 
ATOM      4  C   UNL     1      32.271 -13.025 -21.924  0.00  0.00    +0.078 C 
ATOM      5  C   UNL     1      32.962 -14.870 -20.526  0.00  0.00    +0.003 C 
ATOM      6  C   UNL     1      32.402 -13.600 -20.660  0.00  0.00    +0.007 C 
ENDROOT
BRANCH   4   8
ATOM      7  O   UNL     1      32.246 -10.721 -22.569  0.00  0.00    -0.245 OA
ATOM      8  C   UNL     1      31.688 -11.700 -22.063  0.00  0.00    +0.338 C 
BRANCH   8   9
ATOM      9  O   UNL     1      30.421 -11.633 -21.568  0.00  0.00    -0.477 OA
ATOM     10  H   UNL     1      30.049 -10.802 -21.344  0.00  0.00    +0.295 HD
ENDBRANCH   8   9
ENDBRANCH   4   8
BRANCH   1  11
ATOM     11  O   UNL     1      33.678 -15.669 -24.023  0.00  0.00    -0.475 OA
BRANCH  11  12
ATOM     12  C   UNL     1      34.885 -16.410 -23.900  0.00  0.00    +0.205 C 
BRANCH  12  13
ATOM     13  C   UNL     1      34.726 -17.736 -24.632  0.00  0.00    +0.047 C 
BRANCH  13  14
ATOM     14  C   UNL     1      34.913 -18.924 -23.691  0.00  0.00    +0.004 C 
BRANCH  14  15
ATOM     15  C   UNL     1      35.612 -18.503 -22.397  0.00  0.00    +0.000 C 
BRANCH  15  16
ATOM     16  C   UNL     1      35.105 -19.250 -21.160  0.00  0.00    +0.000 C 
BRANCH  16  17
ATOM     17  C   UNL     1      33.581 -19.359 -21.097  0.00  0.00    +0.000 C 
ATOM     18  C   UNL     1      33.144 -20.488 -20.174  0.00  0.00    +0.000 C 
ENDBRANCH  16  17
ENDBRANCH  15  16
ENDBRANCH  14  15
ENDBRANCH  13  14
ENDBRANCH  12  13
ENDBRANCH  11  12
ENDBRANCH   1  11
TORSDOF 9
ENDMDL
MODEL 8
REMARK VINA RESULT:      -7.5      0.901      2.180
REMARK  Name = 14368760
REMARK  9 active torsions:
REMARK  status: ('A' for Active; 'I' for Inactive)
REMARK    1  A    between atoms: C_1  and  O_11
REMARK    2  A    between atoms: C_4  and  C_8
REMARK    3  A    between atoms: C_8  and  O_9
REMARK    4  A    between atoms: O_11  and  C_12
REMARK    5  A    between atoms: C_12  and  C_13
REMARK    6  A    between atoms: C_13  and  C_14
REMARK    7  A    between atoms: C_14  and  C_15
REMARK    8  A    between atoms: C_15  and  C_16
REMARK    9  A    between atoms: C_16  and  C_17
REMARK                            x       y       z     vdW  Elec       q    Type
REMARK                         _______ _______ _______ _____ _____    ______ ____
ROOT
ATOM      1  C   UNL     1      34.919 -19.227 -21.086  0.00  0.00    +0.139 C 
ATOM      2  C   UNL     1      34.070 -20.216 -20.601  0.00  0.00    +0.043 C 
ATOM      3  C   UNL     1      36.281 -19.262 -20.811  0.00  0.00    +0.037 C 
ATOM      4  C   UNL     1      34.592 -21.254 -19.829  0.00  0.00    +0.078 C 
ATOM      5  C   UNL     1      36.802 -20.300 -20.039  0.00  0.00    +0.003 C 
ATOM      6  C   UNL     1      35.957 -21.296 -19.548  0.00  0.00    +0.007 C 
ENDROOT
BRANCH   4   8
ATOM      7  O   UNL     1      33.961 -23.502 -19.307  0.00  0.00    -0.245 OA
ATOM      8  C   UNL     1      33.712 -22.291 -19.316  0.00  0.00    +0.338 C 
BRANCH   8   9
ATOM      9  O   UNL     1      32.546 -21.790 -18.824  0.00  0.00    -0.477 OA
ATOM     10  H   UNL     1      31.736 -21.976 -19.258  0.00  0.00    +0.295 HD
ENDBRANCH   8   9
ENDBRANCH   4   8
BRANCH   1  11
ATOM     11  O   UNL     1      34.406 -18.207 -21.845  0.00  0.00    -0.475 OA
BRANCH  11  12
ATOM     12  C   UNL     1      35.317 -17.517 -22.689  0.00  0.00    +0.205 C 
BRANCH  12  13
ATOM     13  C   UNL     1      34.743 -17.468 -24.099  0.00  0.00    +0.047 C 
BRANCH  13  14
ATOM     14  C   UNL     1      34.308 -16.055 -24.482  0.00  0.00    +0.004 C 
BRANCH  14  15
ATOM     15  C   UNL     1      34.397 -15.104 -23.286  0.00  0.00    +0.000 C 
BRANCH  15  16
ATOM     16  C   UNL     1      33.046 -14.511 -22.877  0.00  0.00    +0.000 C 
BRANCH  16  17
ATOM     17  C   UNL     1      32.640 -14.854 -21.443  0.00  0.00    +0.000 C 
ATOM     18  C   UNL     1      33.857 -14.988 -20.539  0.00  0.00    +0.000 C 
ENDBRANCH  16  17
ENDBRANCH  15  16
ENDBRANCH  14  15
ENDBRANCH  13  14
ENDBRANCH  12  13
ENDBRANCH  11  12
ENDBRANCH   1  11
TORSDOF 9
ENDMDL
MODEL 9
REMARK VINA RESULT:      -7.3      3.257      5.781
REMARK  Name = 14368760
REMARK  9 active torsions:
REMARK  status: ('A' for Active; 'I' for Inactive)
REMARK    1  A    between atoms: C_1  and  O_11
REMARK    2  A    between atoms: C_4  and  C_8
REMARK    3  A    between atoms: C_8  and  O_9
REMARK    4  A    between atoms: O_11  and  C_12
REMARK    5  A    between atoms: C_12  and  C_13
REMARK    6  A    between atoms: C_13  and  C_14
REMARK    7  A    between atoms: C_14  and  C_15
REMARK    8  A    between atoms: C_15  and  C_16
REMARK    9  A    between atoms: C_16  and  C_17
REMARK                            x       y       z     vdW  Elec       q    Type
REMARK                         _______ _______ _______ _____ _____    ______ ____
ROOT
ATOM      1  C   UNL     1      33.647 -23.181 -16.707  0.00  0.00    +0.139 C 
ATOM      2  C   UNL     1      32.282 -23.031 -16.923  0.00  0.00    +0.043 C 
ATOM      3  C   UNL     1      34.129 -23.590 -15.469  0.00  0.00    +0.037 C 
ATOM      4  C   UNL     1      31.387 -23.293 -15.886  0.00  0.00    +0.078 C 
ATOM      5  C   UNL     1      33.233 -23.852 -14.432  0.00  0.00    +0.003 C 
ATOM      6  C   UNL     1      31.862 -23.703 -14.641  0.00  0.00    +0.007 C 
ENDROOT
BRANCH   4   8
ATOM      7  O   UNL     1      29.069 -23.700 -15.454  0.00  0.00    -0.245 OA
ATOM      8  C   UNL     1      29.957 -23.137 -16.103  0.00  0.00    +0.338 C 
BRANCH   8   9
ATOM      9  O   UNL     1      29.675 -22.279 -17.122  0.00  0.00    -0.477 OA
ATOM     10  H   UNL     1      28.825 -21.890 -17.184  0.00  0.00    +0.295 HD
ENDBRANCH   8   9
ENDBRANCH   4   8
BRANCH   1  11
ATOM     11  O   UNL     1      34.527 -22.924 -17.726  0.00  0.00    -0.475 OA
BRANCH  11  12
ATOM     12  C   UNL     1      33.982 -22.830 -19.034  0.00  0.00    +0.205 C 
BRANCH  12  13
ATOM     13  C   UNL     1      34.387 -21.494 -19.642  0.00  0.00    +0.047 C 
BRANCH  13  14
ATOM     14  C   UNL     1      33.172 -20.619 -19.941  0.00  0.00    +0.004 C 
BRANCH  14  15
ATOM     15  C   UNL     1      33.498 -19.560 -20.996  0.00  0.00    +0.000 C 
BRANCH  15  16
ATOM     16  C   UNL     1      34.993 -19.451 -21.309  0.00  0.00    +0.000 C 
BRANCH  16  17
ATOM     17  C   UNL     1      35.300 -18.554 -22.509  0.00  0.00    +0.000 C 
ATOM     18  C   UNL     1      34.888 -19.217 -23.816  0.00  0.00    +0.000 C 
ENDBRANCH  16  17
ENDBRANCH  15  16
ENDBRANCH  14  15
ENDBRANCH  13  14
ENDBRANCH  12  13
ENDBRANCH  11  12
ENDBRANCH   1  11
TORSDOF 9
ENDMDL
