MODEL 1
REMARK VINA RESULT:      -8.8      0.000      0.000
REMARK  Name = 76965484
REMARK  6 active torsions:
REMARK  status: ('A' for Active; 'I' for Inactive)
REMARK    1  A    between atoms: C_1  and  C_12
REMARK    2  A    between atoms: C_3  and  C_24
REMARK    3  A    between atoms: C_13  and  C_21
REMARK    4  A    between atoms: C_18  and  O_19
REMARK    5  A    between atoms: C_21  and  O_22
REMARK    6  A    between atoms: C_24  and  N_25
REMARK                            x       y       z     vdW  Elec       q    Type
REMARK                         _______ _______ _______ _____ _____    ______ ____
ROOT
ATOM      1  C   UNL     1      33.858 -17.479 -22.130  0.00  0.00    -0.002 C 
ATOM      2  C   UNL     1      33.741 -15.144 -23.037  0.00  0.00    +0.002 C 
ATOM      3  C   UNL     1      34.612 -16.406 -22.974  0.00  0.00    -0.022 C 
ATOM      4  C   UNL     1      33.440 -14.553 -21.642  0.00  0.00    +0.015 C 
ATOM      5  C   UNL     1      33.361 -16.936 -20.770  0.00  0.00    +0.000 C 
ATOM      6  C   UNL     1      32.617 -15.595 -20.868  0.00  0.00    +0.004 C 
ATOM      7  C   UNL     1      34.232 -13.943 -23.840  0.00  0.00    +0.005 C 
ATOM      8  C   UNL     1      32.744 -13.271 -22.062  0.00  0.00    -0.045 C 
ATOM      9  C   UNL     1      33.273 -12.823 -23.410  0.00  0.00    +0.022 C 
ATOM     10  C   UNL     1      34.690 -14.149 -20.824  0.00  0.00    +0.004 C 
ATOM     11  C   UNL     1      31.759 -12.644 -21.410  0.00  0.00    -0.009 C 
ENDROOT
BRANCH   1  12
ATOM     12  C   UNL     1      34.711 -18.743 -21.889  0.00  0.00    +0.002 C 
ATOM     13  C   UNL     1      34.106 -19.594 -20.724  0.00  0.00    +0.032 C 
ATOM     14  C   UNL     1      36.137 -18.275 -21.491  0.00  0.00    +0.003 C 
ATOM     15  C   UNL     1      34.774 -19.526 -23.216  0.00  0.00    +0.000 C 
ATOM     16  C   UNL     1      35.045 -20.732 -20.286  0.00  0.00    +0.032 C 
ATOM     17  C   UNL     1      37.053 -19.416 -21.057  0.00  0.00    +0.029 C 
ATOM     18  C   UNL     1      36.436 -20.225 -19.923  0.00  0.00    +0.111 C 
BRANCH  18  19
ATOM     19  O   UNL     1      37.266 -21.344 -19.629  0.00  0.00    -0.384 OA
ATOM     20  H   UNL     1      37.915 -21.461 -20.339  0.00  0.00    +0.210 HD
ENDBRANCH  18  19
BRANCH  13  21
ATOM     21  C   UNL     1      32.718 -20.175 -21.021  0.00  0.00    +0.137 C 
BRANCH  21  22
ATOM     22  O   UNL     1      32.593 -21.401 -20.327  0.00  0.00    -0.382 OA
ATOM     23  H   UNL     1      33.477 -21.746 -20.120  0.00  0.00    +0.210 HD
ENDBRANCH  21  22
ENDBRANCH  13  21
ENDBRANCH   1  12
BRANCH   3  24
ATOM     24  C   UNL     1      34.937 -16.914 -24.385  0.00  0.00    -0.086 C 
BRANCH  24  25
ATOM     25  N   UNL     1      33.793 -16.754 -25.264  0.00  0.00    +0.380 N 
ATOM     26  H   UNL     1      33.783 -17.506 -25.952  0.00  0.00    -0.089 HD
ATOM     27  H   UNL     1      33.855 -15.855 -25.743  0.00  0.00    -0.089 HD
ATOM     28  H   UNL     1      32.934 -16.785 -24.714  0.00  0.00    -0.089 HD
ENDBRANCH  24  25
ENDBRANCH   3  24
TORSDOF 6
ENDMDL
MODEL 2
REMARK VINA RESULT:      -8.4      8.433     10.501
REMARK  Name = 76965484
REMARK  6 active torsions:
REMARK  status: ('A' for Active; 'I' for Inactive)
REMARK    1  A    between atoms: C_1  and  C_12
REMARK    2  A    between atoms: C_3  and  C_24
REMARK    3  A    between atoms: C_13  and  C_21
REMARK    4  A    between atoms: C_18  and  O_19
REMARK    5  A    between atoms: C_21  and  O_22
REMARK    6  A    between atoms: C_24  and  N_25
REMARK                            x       y       z     vdW  Elec       q    Type
REMARK                         _______ _______ _______ _____ _____    ______ ____
ROOT
ATOM      1  C   UNL     1      34.175 -24.466 -14.923  0.00  0.00    -0.002 C 
ATOM      2  C   UNL     1      32.020 -23.663 -15.922  0.00  0.00    +0.002 C 
ATOM      3  C   UNL     1      33.489 -23.289 -15.683  0.00  0.00    -0.022 C 
ATOM      4  C   UNL     1      31.246 -23.921 -14.611  0.00  0.00    +0.015 C 
ATOM      5  C   UNL     1      33.384 -24.919 -13.674  0.00  0.00    +0.000 C 
ATOM      6  C   UNL     1      31.885 -25.142 -13.932  0.00  0.00    +0.004 C 
ATOM      7  C   UNL     1      31.123 -22.692 -16.686  0.00  0.00    +0.005 C 
ATOM      8  C   UNL     1      29.847 -24.077 -15.178  0.00  0.00    -0.045 C 
ATOM      9  C   UNL     1      29.717 -23.259 -16.447  0.00  0.00    +0.022 C 
ATOM     10  C   UNL     1      31.212 -22.725 -13.630  0.00  0.00    +0.004 C 
ATOM     11  C   UNL     1      28.875 -24.865 -14.704  0.00  0.00    -0.009 C 
ENDROOT
BRANCH   1  12
ATOM     12  C   UNL     1      35.625 -24.134 -14.510  0.00  0.00    +0.002 C 
ATOM     13  C   UNL     1      36.398 -25.442 -14.136  0.00  0.00    +0.032 C 
ATOM     14  C   UNL     1      35.556 -23.210 -13.265  0.00  0.00    +0.003 C 
ATOM     15  C   UNL     1      36.284 -23.377 -15.681  0.00  0.00    +0.000 C 
ATOM     16  C   UNL     1      37.765 -25.147 -13.492  0.00  0.00    +0.032 C 
ATOM     17  C   UNL     1      36.918 -22.930 -12.638  0.00  0.00    +0.029 C 
ATOM     18  C   UNL     1      37.645 -24.222 -12.285  0.00  0.00    +0.111 C 
BRANCH  18  19
ATOM     19  O   UNL     1      38.954 -23.920 -11.813  0.00  0.00    -0.384 OA
ATOM     20  H   UNL     1      38.920 -23.133 -11.247  0.00  0.00    +0.210 HD
ENDBRANCH  18  19
BRANCH  13  21
ATOM     21  C   UNL     1      36.595 -26.415 -15.305  0.00  0.00    +0.137 C 
BRANCH  21  22
ATOM     22  O   UNL     1      37.981 -26.527 -15.559  0.00  0.00    -0.382 OA
ATOM     23  H   UNL     1      38.131 -27.195 -16.248  0.00  0.00    +0.210 HD
ENDBRANCH  21  22
ENDBRANCH  13  21
ENDBRANCH   1  12
BRANCH   3  24
ATOM     24  C   UNL     1      34.196 -22.979 -17.009  0.00  0.00    -0.086 C 
BRANCH  24  25
ATOM     25  N   UNL     1      33.541 -23.661 -18.111  0.00  0.00    +0.380 N 
ATOM     26  H   UNL     1      34.085 -24.483 -18.373  0.00  0.00    -0.089 HD
ATOM     27  H   UNL     1      33.471 -23.031 -18.909  0.00  0.00    -0.089 HD
ATOM     28  H   UNL     1      32.606 -23.951 -17.824  0.00  0.00    -0.089 HD
ENDBRANCH  24  25
ENDBRANCH   3  24
TORSDOF 6
ENDMDL
MODEL 3
REMARK VINA RESULT:      -7.6      3.833      7.113
REMARK  Name = 76965484
REMARK  6 active torsions:
REMARK  status: ('A' for Active; 'I' for Inactive)
REMARK    1  A    between atoms: C_1  and  C_12
REMARK    2  A    between atoms: C_3  and  C_24
REMARK    3  A    between atoms: C_13  and  C_21
REMARK    4  A    between atoms: C_18  and  O_19
REMARK    5  A    between atoms: C_21  and  O_22
REMARK    6  A    between atoms: C_24  and  N_25
REMARK                            x       y       z     vdW  Elec       q    Type
REMARK                         _______ _______ _______ _____ _____    ______ ____
ROOT
ATOM      1  C   UNL     1      33.993 -14.127 -22.919  0.00  0.00    -0.002 C 
ATOM      2  C   UNL     1      34.677 -16.458 -23.538  0.00  0.00    +0.002 C 
ATOM      3  C   UNL     1      33.696 -15.326 -23.871  0.00  0.00    -0.022 C 
ATOM      4  C   UNL     1      34.556 -16.946 -22.078  0.00  0.00    +0.015 C 
ATOM      5  C   UNL     1      34.062 -14.542 -21.431  0.00  0.00    +0.000 C 
ATOM      6  C   UNL     1      34.944 -15.772 -21.166  0.00  0.00    +0.004 C 
ATOM      7  C   UNL     1      34.627 -17.746 -24.355  0.00  0.00    +0.005 C 
ATOM      8  C   UNL     1      35.495 -18.137 -22.138  0.00  0.00    -0.045 C 
ATOM      9  C   UNL     1      35.507 -18.707 -23.542  0.00  0.00    +0.022 C 
ATOM     10  C   UNL     1      33.158 -17.483 -21.686  0.00  0.00    +0.004 C 
ATOM     11  C   UNL     1      36.268 -18.598 -21.147  0.00  0.00    -0.009 C 
ENDROOT
BRANCH   1  12
ATOM     12  C   UNL     1      32.969 -12.982 -23.077  0.00  0.00    +0.002 C 
ATOM     13  C   UNL     1      33.687 -11.669 -23.535  0.00  0.00    +0.032 C 
ATOM     14  C   UNL     1      32.313 -12.747 -21.691  0.00  0.00    +0.003 C 
ATOM     15  C   UNL     1      31.899 -13.448 -24.086  0.00  0.00    +0.000 C 
ATOM     16  C   UNL     1      32.755 -10.446 -23.477  0.00  0.00    +0.032 C 
ATOM     17  C   UNL     1      31.394 -11.530 -21.650  0.00  0.00    +0.029 C 
ATOM     18  C   UNL     1      32.121 -10.268 -22.101  0.00  0.00    +0.111 C 
BRANCH  18  19
ATOM     19  O   UNL     1      31.202  -9.183 -22.160  0.00  0.00    -0.384 OA
ATOM     20  H   UNL     1      31.079  -8.914 -23.083  0.00  0.00    +0.210 HD
ENDBRANCH  18  19
BRANCH  13  21
ATOM     21  C   UNL     1      34.322 -11.749 -24.929  0.00  0.00    +0.137 C 
BRANCH  21  22
ATOM     22  O   UNL     1      35.245 -10.686 -25.056  0.00  0.00    -0.382 OA
ATOM     23  H   UNL     1      34.873  -9.885 -24.651  0.00  0.00    +0.210 HD
ENDBRANCH  21  22
ENDBRANCH  13  21
ENDBRANCH   1  12
BRANCH   3  24
ATOM     24  C   UNL     1      33.810 -14.923 -25.347  0.00  0.00    -0.086 C 
BRANCH  24  25
ATOM     25  N   UNL     1      32.879 -15.685 -26.160  0.00  0.00    +0.380 N 
ATOM     26  H   UNL     1      33.301 -15.883 -27.067  0.00  0.00    -0.089 HD
ATOM     27  H   UNL     1      32.023 -15.146 -26.293  0.00  0.00    -0.089 HD
ATOM     28  H   UNL     1      32.656 -16.563 -25.690  0.00  0.00    -0.089 HD
ENDBRANCH  24  25
ENDBRANCH   3  24
TORSDOF 6
ENDMDL
MODEL 4
REMARK VINA RESULT:      -7.0      3.399      6.872
REMARK  Name = 76965484
REMARK  6 active torsions:
REMARK  status: ('A' for Active; 'I' for Inactive)
REMARK    1  A    between atoms: C_1  and  C_12
REMARK    2  A    between atoms: C_3  and  C_24
REMARK    3  A    between atoms: C_13  and  C_21
REMARK    4  A    between atoms: C_18  and  O_19
REMARK    5  A    between atoms: C_21  and  O_22
REMARK    6  A    between atoms: C_24  and  N_25
REMARK                            x       y       z     vdW  Elec       q    Type
REMARK                         _______ _______ _______ _____ _____    ______ ____
ROOT
ATOM      1  C   UNL     1      34.731 -19.547 -20.560  0.00  0.00    -0.002 C 
ATOM      2  C   UNL     1      35.118 -21.296 -18.805  0.00  0.00    +0.002 C 
ATOM      3  C   UNL     1      35.745 -20.603 -20.023  0.00  0.00    -0.022 C 
ATOM      4  C   UNL     1      33.791 -22.013 -19.141  0.00  0.00    +0.015 C 
ATOM      5  C   UNL     1      33.313 -20.127 -20.773  0.00  0.00    +0.000 C 
ATOM      6  C   UNL     1      32.785 -20.936 -19.578  0.00  0.00    +0.004 C 
ATOM      7  C   UNL     1      35.922 -22.357 -18.060  0.00  0.00    +0.005 C 
ATOM      8  C   UNL     1      33.548 -22.714 -17.818  0.00  0.00    -0.045 C 
ATOM      9  C   UNL     1      34.874 -23.008 -17.146  0.00  0.00    +0.022 C 
ATOM     10  C   UNL     1      33.901 -23.109 -20.228  0.00  0.00    +0.004 C 
ATOM     11  C   UNL     1      32.362 -22.981 -17.259  0.00  0.00    -0.009 C 
ENDROOT
BRANCH   1  12
ATOM     12  C   UNL     1      35.209 -18.887 -21.871  0.00  0.00    +0.002 C 
ATOM     13  C   UNL     1      34.544 -17.482 -22.048  0.00  0.00    +0.032 C 
ATOM     14  C   UNL     1      34.774 -19.808 -23.043  0.00  0.00    +0.003 C 
ATOM     15  C   UNL     1      36.748 -18.805 -21.821  0.00  0.00    +0.000 C 
ATOM     16  C   UNL     1      34.798 -16.889 -23.445  0.00  0.00    +0.032 C 
ATOM     17  C   UNL     1      35.032 -19.204 -24.420  0.00  0.00    +0.029 C 
ATOM     18  C   UNL     1      34.371 -17.837 -24.561  0.00  0.00    +0.111 C 
BRANCH  18  19
ATOM     19  O   UNL     1      34.732 -17.259 -25.811  0.00  0.00    -0.384 OA
ATOM     20  H   UNL     1      35.409 -17.807 -26.238  0.00  0.00    +0.210 HD
ENDBRANCH  18  19
BRANCH  13  21
ATOM     21  C   UNL     1      34.949 -16.453 -20.985  0.00  0.00    +0.137 C 
BRANCH  21  22
ATOM     22  O   UNL     1      34.587 -15.169 -21.453  0.00  0.00    -0.382 OA
ATOM     23  H   UNL     1      35.285 -14.534 -21.225  0.00  0.00    +0.210 HD
ENDBRANCH  21  22
ENDBRANCH  13  21
ENDBRANCH   1  12
BRANCH   3  24
ATOM     24  C   UNL     1      37.090 -19.965 -19.653  0.00  0.00    -0.086 C 
BRANCH  24  25
ATOM     25  N   UNL     1      37.328 -20.060 -18.224  0.00  0.00    +0.380 N 
ATOM     26  H   UNL     1      37.357 -21.041 -17.948  0.00  0.00    -0.089 HD
ATOM     27  H   UNL     1      36.577 -19.588 -17.721  0.00  0.00    -0.089 HD
ATOM     28  H   UNL     1      38.218 -19.617 -17.996  0.00  0.00    -0.089 HD
ENDBRANCH  24  25
ENDBRANCH   3  24
TORSDOF 6
ENDMDL
MODEL 5
REMARK VINA RESULT:      -6.9      3.882      6.391
REMARK  Name = 76965484
REMARK  6 active torsions:
REMARK  status: ('A' for Active; 'I' for Inactive)
REMARK    1  A    between atoms: C_1  and  C_12
REMARK    2  A    between atoms: C_3  and  C_24
REMARK    3  A    between atoms: C_13  and  C_21
REMARK    4  A    between atoms: C_18  and  O_19
REMARK    5  A    between atoms: C_21  and  O_22
REMARK    6  A    between atoms: C_24  and  N_25
REMARK                            x       y       z     vdW  Elec       q    Type
REMARK                         _______ _______ _______ _____ _____    ______ ____
ROOT
ATOM      1  C   UNL     1      33.725 -12.115 -23.407  0.00  0.00    -0.002 C 
ATOM      2  C   UNL     1      33.006  -9.872 -22.547  0.00  0.00    +0.002 C 
ATOM      3  C   UNL     1      32.539 -11.315 -22.784  0.00  0.00    -0.022 C 
ATOM      4  C   UNL     1      33.451  -9.164 -23.846  0.00  0.00    +0.015 C 
ATOM      5  C   UNL     1      34.358 -11.404 -24.625  0.00  0.00    +0.000 C 
ATOM      6  C   UNL     1      34.676  -9.920 -24.385  0.00  0.00    +0.004 C 
ATOM      7  C   UNL     1      32.043  -8.877 -21.905  0.00  0.00    +0.005 C 
ATOM      8  C   UNL     1      33.666  -7.764 -23.302  0.00  0.00    -0.045 C 
ATOM      9  C   UNL     1      32.743  -7.528 -22.123  0.00  0.00    +0.022 C 
ATOM     10  C   UNL     1      32.361  -9.070 -24.940  0.00  0.00    +0.004 C 
ATOM     11  C   UNL     1      34.572  -6.873 -23.720  0.00  0.00    -0.009 C 
ENDROOT
BRANCH   1  12
ATOM     12  C   UNL     1      33.317 -13.548 -23.814  0.00  0.00    +0.002 C 
ATOM     13  C   UNL     1      34.368 -14.582 -23.292  0.00  0.00    +0.032 C 
ATOM     14  C   UNL     1      33.277 -13.599 -25.365  0.00  0.00    +0.003 C 
ATOM     15  C   UNL     1      31.905 -13.811 -23.250  0.00  0.00    +0.000 C 
ATOM     16  C   UNL     1      34.137 -15.989 -23.872  0.00  0.00    +0.032 C 
ATOM     17  C   UNL     1      33.050 -15.001 -25.922  0.00  0.00    +0.029 C 
ATOM     18  C   UNL     1      34.089 -15.984 -25.396  0.00  0.00    +0.111 C 
BRANCH  18  19
ATOM     19  O   UNL     1      33.773 -17.298 -25.845  0.00  0.00    -0.384 OA
ATOM     20  H   UNL     1      34.485 -17.906 -25.593  0.00  0.00    +0.210 HD
ENDBRANCH  18  19
BRANCH  13  21
ATOM     21  C   UNL     1      34.456 -14.678 -21.764  0.00  0.00    +0.137 C 
BRANCH  21  22
ATOM     22  O   UNL     1      34.870 -15.987 -21.426  0.00  0.00    -0.382 OA
ATOM     23  H   UNL     1      35.198 -15.996 -20.512  0.00  0.00    +0.210 HD
ENDBRANCH  21  22
ENDBRANCH  13  21
ENDBRANCH   1  12
BRANCH   3  24
ATOM     24  C   UNL     1      32.047 -11.950 -21.477  0.00  0.00    -0.086 C 
BRANCH  24  25
ATOM     25  N   UNL     1      30.646 -11.643 -21.254  0.00  0.00    +0.380 N 
ATOM     26  H   UNL     1      30.278 -12.244 -20.517  0.00  0.00    -0.089 HD
ATOM     27  H   UNL     1      30.121 -11.799 -22.114  0.00  0.00    -0.089 HD
ATOM     28  H   UNL     1      30.552 -10.666 -20.973  0.00  0.00    -0.089 HD
ENDBRANCH  24  25
ENDBRANCH   3  24
TORSDOF 6
ENDMDL
MODEL 6
REMARK VINA RESULT:      -6.7      6.342     10.156
REMARK  Name = 76965484
REMARK  6 active torsions:
REMARK  status: ('A' for Active; 'I' for Inactive)
REMARK    1  A    between atoms: C_1  and  C_12
REMARK    2  A    between atoms: C_3  and  C_24
REMARK    3  A    between atoms: C_13  and  C_21
REMARK    4  A    between atoms: C_18  and  O_19
REMARK    5  A    between atoms: C_21  and  O_22
REMARK    6  A    between atoms: C_24  and  N_25
REMARK                            x       y       z     vdW  Elec       q    Type
REMARK                         _______ _______ _______ _____ _____    ______ ____
ROOT
ATOM      1  C   UNL     1      33.056  -9.229 -22.369  0.00  0.00    -0.002 C 
ATOM      2  C   UNL     1      33.004 -11.675 -22.918  0.00  0.00    +0.002 C 
ATOM      3  C   UNL     1      32.852 -10.268 -23.514  0.00  0.00    -0.022 C 
ATOM      4  C   UNL     1      31.980 -11.966 -21.799  0.00  0.00    +0.015 C 
ATOM      5  C   UNL     1      32.192  -9.529 -21.122  0.00  0.00    +0.000 C 
ATOM      6  C   UNL     1      32.266 -10.989 -20.648  0.00  0.00    +0.004 C 
ATOM      7  C   UNL     1      32.887 -12.886 -23.839  0.00  0.00    +0.005 C 
ATOM      8  C   UNL     1      32.278 -13.436 -21.570  0.00  0.00    -0.045 C 
ATOM      9  C   UNL     1      32.784 -14.060 -22.855  0.00  0.00    +0.022 C 
ATOM     10  C   UNL     1      30.498 -11.860 -22.231  0.00  0.00    +0.004 C 
ATOM     11  C   UNL     1      32.192 -14.099 -20.411  0.00  0.00    -0.009 C 
ENDROOT
BRANCH   1  12
ATOM     12  C   UNL     1      32.787  -7.782 -22.834  0.00  0.00    +0.002 C 
ATOM     13  C   UNL     1      32.353  -6.892 -21.623  0.00  0.00    +0.032 C 
ATOM     14  C   UNL     1      31.632  -7.831 -23.870  0.00  0.00    +0.003 C 
ATOM     15  C   UNL     1      34.071  -7.262 -23.514  0.00  0.00    +0.000 C 
ATOM     16  C   UNL     1      31.845  -5.509 -22.069  0.00  0.00    +0.032 C 
ATOM     17  C   UNL     1      31.139  -6.453 -24.299  0.00  0.00    +0.029 C 
ATOM     18  C   UNL     1      30.724  -5.611 -23.098  0.00  0.00    +0.111 C 
BRANCH  18  19
ATOM     19  O   UNL     1      30.383  -4.298 -23.530  0.00  0.00    -0.384 OA
ATOM     20  H   UNL     1      30.755  -4.141 -24.412  0.00  0.00    +0.210 HD
ENDBRANCH  18  19
BRANCH  13  21
ATOM     21  C   UNL     1      33.438  -6.706 -20.554  0.00  0.00    +0.137 C 
BRANCH  21  22
ATOM     22  O   UNL     1      32.847  -6.905 -19.285  0.00  0.00    -0.382 OA
ATOM     23  H   UNL     1      32.411  -7.772 -19.264  0.00  0.00    +0.210 HD
ENDBRANCH  21  22
ENDBRANCH  13  21
ENDBRANCH   1  12
BRANCH   3  24
ATOM     24  C   UNL     1      33.846 -10.053 -24.663  0.00  0.00    -0.086 C 
BRANCH  24  25
ATOM     25  N   UNL     1      35.200 -10.348 -24.232  0.00  0.00    +0.380 N 
ATOM     26  H   UNL     1      35.360 -11.354 -24.275  0.00  0.00    -0.089 HD
ATOM     27  H   UNL     1      35.331 -10.024 -23.274  0.00  0.00    -0.089 HD
ATOM     28  H   UNL     1      35.864  -9.873 -24.844  0.00  0.00    -0.089 HD
ENDBRANCH  24  25
ENDBRANCH   3  24
TORSDOF 6
ENDMDL
MODEL 7
REMARK VINA RESULT:      -6.4      5.070      8.047
REMARK  Name = 76965484
REMARK  6 active torsions:
REMARK  status: ('A' for Active; 'I' for Inactive)
REMARK    1  A    between atoms: C_1  and  C_12
REMARK    2  A    between atoms: C_3  and  C_24
REMARK    3  A    between atoms: C_13  and  C_21
REMARK    4  A    between atoms: C_18  and  O_19
REMARK    5  A    between atoms: C_21  and  O_22
REMARK    6  A    between atoms: C_24  and  N_25
REMARK                            x       y       z     vdW  Elec       q    Type
REMARK                         _______ _______ _______ _____ _____    ______ ____
ROOT
ATOM      1  C   UNL     1      31.803 -10.137 -23.190  0.00  0.00    -0.002 C 
ATOM      2  C   UNL     1      33.408  -8.406 -24.035  0.00  0.00    +0.002 C 
ATOM      3  C   UNL     1      33.289  -9.664 -23.164  0.00  0.00    -0.022 C 
ATOM      4  C   UNL     1      32.514  -7.248 -23.541  0.00  0.00    +0.015 C 
ATOM      5  C   UNL     1      30.804  -9.000 -22.871  0.00  0.00    +0.000 C 
ATOM      6  C   UNL     1      31.053  -7.709 -23.666  0.00  0.00    +0.004 C 
ATOM      7  C   UNL     1      34.777  -7.755 -24.212  0.00  0.00    +0.005 C 
ATOM      8  C   UNL     1      32.992  -6.152 -24.475  0.00  0.00    -0.045 C 
ATOM      9  C   UNL     1      34.436  -6.404 -24.859  0.00  0.00    +0.022 C 
ATOM     10  C   UNL     1      32.800  -6.776 -22.095  0.00  0.00    +0.004 C 
ATOM     11  C   UNL     1      32.263  -5.143 -24.966  0.00  0.00    -0.009 C 
ENDROOT
BRANCH   1  12
ATOM     12  C   UNL     1      31.545 -11.320 -22.232  0.00  0.00    +0.002 C 
ATOM     13  C   UNL     1      32.258 -11.076 -20.861  0.00  0.00    +0.032 C 
ATOM     14  C   UNL     1      32.135 -12.594 -22.893  0.00  0.00    +0.003 C 
ATOM     15  C   UNL     1      30.018 -11.475 -22.079  0.00  0.00    +0.000 C 
ATOM     16  C   UNL     1      32.233 -12.324 -19.961  0.00  0.00    +0.032 C 
ATOM     17  C   UNL     1      32.104 -13.821 -21.988  0.00  0.00    +0.029 C 
ATOM     18  C   UNL     1      32.807 -13.552 -20.662  0.00  0.00    +0.111 C 
BRANCH  18  19
ATOM     19  O   UNL     1      32.654 -14.677 -19.804  0.00  0.00    -0.384 OA
ATOM     20  H   UNL     1      32.837 -14.414 -18.889  0.00  0.00    +0.210 HD
ENDBRANCH  18  19
BRANCH  13  21
ATOM     21  C   UNL     1      31.716  -9.878 -20.071  0.00  0.00    +0.137 C 
BRANCH  21  22
ATOM     22  O   UNL     1      32.705  -9.476 -19.144  0.00  0.00    -0.382 OA
ATOM     23  H   UNL     1      32.638 -10.022 -18.344  0.00  0.00    +0.210 HD
ENDBRANCH  21  22
ENDBRANCH  13  21
ENDBRANCH   1  12
BRANCH   3  24
ATOM     24  C   UNL     1      34.244 -10.760 -23.655  0.00  0.00    -0.086 C 
BRANCH  24  25
ATOM     25  N   UNL     1      34.084 -10.978 -25.082  0.00  0.00    +0.380 N 
ATOM     26  H   UNL     1      34.548 -10.229 -25.595  0.00  0.00    -0.089 HD
ATOM     27  H   UNL     1      33.092 -10.987 -25.316  0.00  0.00    -0.089 HD
ATOM     28  H   UNL     1      34.501 -11.873 -25.338  0.00  0.00    -0.089 HD
ENDBRANCH  24  25
ENDBRANCH   3  24
TORSDOF 6
ENDMDL
MODEL 8
REMARK VINA RESULT:      -6.1      7.253     10.329
REMARK  Name = 76965484
REMARK  6 active torsions:
REMARK  status: ('A' for Active; 'I' for Inactive)
REMARK    1  A    between atoms: C_1  and  C_12
REMARK    2  A    between atoms: C_3  and  C_24
REMARK    3  A    between atoms: C_13  and  C_21
REMARK    4  A    between atoms: C_18  and  O_19
REMARK    5  A    between atoms: C_21  and  O_22
REMARK    6  A    between atoms: C_24  and  N_25
REMARK                            x       y       z     vdW  Elec       q    Type
REMARK                         _______ _______ _______ _____ _____    ______ ____
ROOT
ATOM      1  C   UNL     1      35.505 -23.514 -14.923  0.00  0.00    -0.002 C 
ATOM      2  C   UNL     1      33.219 -23.189 -15.902  0.00  0.00    +0.002 C 
ATOM      3  C   UNL     1      34.064 -24.107 -15.008  0.00  0.00    -0.022 C 
ATOM      4  C   UNL     1      33.785 -23.060 -17.333  0.00  0.00    +0.015 C 
ATOM      5  C   UNL     1      36.105 -23.187 -16.310  0.00  0.00    +0.000 C 
ATOM      6  C   UNL     1      35.163 -22.388 -17.224  0.00  0.00    +0.004 C 
ATOM      7  C   UNL     1      31.747 -23.522 -16.124  0.00  0.00    +0.005 C 
ATOM      8  C   UNL     1      32.660 -22.267 -17.971  0.00  0.00    -0.045 C 
ATOM      9  C   UNL     1      31.351 -22.590 -17.278  0.00  0.00    +0.022 C 
ATOM     10  C   UNL     1      33.904 -24.393 -18.108  0.00  0.00    +0.004 C 
ATOM     11  C   UNL     1      32.774 -21.357 -18.946  0.00  0.00    -0.009 C 
ENDROOT
BRANCH   1  12
ATOM     12  C   UNL     1      36.476 -24.438 -14.157  0.00  0.00    +0.002 C 
ATOM     13  C   UNL     1      37.723 -23.631 -13.666  0.00  0.00    +0.032 C 
ATOM     14  C   UNL     1      36.941 -25.545 -15.140  0.00  0.00    +0.003 C 
ATOM     15  C   UNL     1      35.694 -25.076 -12.990  0.00  0.00    +0.000 C 
ATOM     16  C   UNL     1      38.828 -24.546 -13.110  0.00  0.00    +0.032 C 
ATOM     17  C   UNL     1      38.038 -26.442 -14.573  0.00  0.00    +0.029 C 
ATOM     18  C   UNL     1      39.237 -25.627 -14.105  0.00  0.00    +0.111 C 
BRANCH  18  19
ATOM     19  O   UNL     1      40.184 -26.487 -13.479  0.00  0.00    -0.384 OA
ATOM     20  H   UNL     1      39.765 -27.338 -13.280  0.00  0.00    +0.210 HD
ENDBRANCH  18  19
BRANCH  13  21
ATOM     21  C   UNL     1      37.405 -22.544 -12.631  0.00  0.00    +0.137 C 
BRANCH  21  22
ATOM     22  O   UNL     1      38.249 -22.736 -11.514  0.00  0.00    -0.382 OA
ATOM     23  H   UNL     1      37.767 -22.509 -10.702  0.00  0.00    +0.210 HD
ENDBRANCH  21  22
ENDBRANCH  13  21
ENDBRANCH   1  12
BRANCH   3  24
ATOM     24  C   UNL     1      33.426 -24.255 -13.621  0.00  0.00    -0.086 C 
BRANCH  24  25
ATOM     25  N   UNL     1      32.417 -25.299 -13.629  0.00  0.00    +0.380 N 
ATOM     26  H   UNL     1      32.822 -26.161 -13.993  0.00  0.00    -0.089 HD
ATOM     27  H   UNL     1      31.637 -25.014 -14.220  0.00  0.00    -0.089 HD
ATOM     28  H   UNL     1      32.082 -25.456 -12.678  0.00  0.00    -0.089 HD
ENDBRANCH  24  25
ENDBRANCH   3  24
TORSDOF 6
ENDMDL
MODEL 9
REMARK VINA RESULT:      -6.1      6.853      9.934
REMARK  Name = 76965484
REMARK  6 active torsions:
REMARK  status: ('A' for Active; 'I' for Inactive)
REMARK    1  A    between atoms: C_1  and  C_12
REMARK    2  A    between atoms: C_3  and  C_24
REMARK    3  A    between atoms: C_13  and  C_21
REMARK    4  A    between atoms: C_18  and  O_19
REMARK    5  A    between atoms: C_21  and  O_22
REMARK    6  A    between atoms: C_24  and  N_25
REMARK                            x       y       z     vdW  Elec       q    Type
REMARK                         _______ _______ _______ _____ _____    ______ ____
ROOT
ATOM      1  C   UNL     1      35.738 -23.066 -15.369  0.00  0.00    -0.002 C 
ATOM      2  C   UNL     1      33.403 -22.873 -16.264  0.00  0.00    +0.002 C 
ATOM      3  C   UNL     1      34.319 -23.715 -15.366  0.00  0.00    -0.022 C 
ATOM      4  C   UNL     1      33.905 -22.790 -17.723  0.00  0.00    +0.015 C 
ATOM      5  C   UNL     1      36.267 -22.782 -16.794  0.00  0.00    +0.000 C 
ATOM      6  C   UNL     1      35.259 -22.063 -17.703  0.00  0.00    +0.004 C 
ATOM      7  C   UNL     1      31.937 -23.271 -16.409  0.00  0.00    +0.005 C 
ATOM      8  C   UNL     1      32.724 -22.070 -18.348  0.00  0.00    -0.045 C 
ATOM      9  C   UNL     1      31.459 -22.409 -17.587  0.00  0.00    +0.022 C 
ATOM     10  C   UNL     1      34.045 -24.153 -18.441  0.00  0.00    +0.004 C 
ATOM     11  C   UNL     1      32.763 -21.204 -19.367  0.00  0.00    -0.009 C 
ENDROOT
BRANCH   1  12
ATOM     12  C   UNL     1      36.775 -23.915 -14.603  0.00  0.00    +0.002 C 
ATOM     13  C   UNL     1      36.279 -25.393 -14.473  0.00  0.00    +0.032 C 
ATOM     14  C   UNL     1      36.927 -23.301 -13.186  0.00  0.00    +0.003 C 
ATOM     15  C   UNL     1      38.116 -23.811 -15.359  0.00  0.00    +0.000 C 
ATOM     16  C   UNL     1      37.158 -26.220 -13.517  0.00  0.00    +0.032 C 
ATOM     17  C   UNL     1      37.799 -24.134 -12.251  0.00  0.00    +0.029 C 
ATOM     18  C   UNL     1      37.290 -25.567 -12.145  0.00  0.00    +0.111 C 
BRANCH  18  19
ATOM     19  O   UNL     1      38.194 -26.337 -11.360  0.00  0.00    -0.384 OA
ATOM     20  H   UNL     1      39.102 -26.043 -11.531  0.00  0.00    +0.210 HD
ENDBRANCH  18  19
BRANCH  13  21
ATOM     21  C   UNL     1      36.152 -26.138 -15.808  0.00  0.00    +0.137 C 
BRANCH  21  22
ATOM     22  O   UNL     1      37.242 -27.031 -15.921  0.00  0.00    -0.382 OA
ATOM     23  H   UNL     1      38.065 -26.525 -16.016  0.00  0.00    +0.210 HD
ENDBRANCH  21  22
ENDBRANCH  13  21
ENDBRANCH   1  12
BRANCH   3  24
ATOM     24  C   UNL     1      33.744 -23.822 -13.948  0.00  0.00    -0.086 C 
BRANCH  24  25
ATOM     25  N   UNL     1      32.994 -25.055 -13.790  0.00  0.00    +0.380 N 
ATOM     26  H   UNL     1      33.170 -25.665 -14.587  0.00  0.00    -0.089 HD
ATOM     27  H   UNL     1      31.998 -24.843 -13.736  0.00  0.00    -0.089 HD
ATOM     28  H   UNL     1      33.288 -25.524 -12.932  0.00  0.00    -0.089 HD
ENDBRANCH  24  25
ENDBRANCH   3  24
TORSDOF 6
ENDMDL
