MODEL 1
REMARK VINA RESULT:      -8.1      0.000      0.000
REMARK  Name = 50137
REMARK  2 active torsions:
REMARK  status: ('A' for Active; 'I' for Inactive)
REMARK    1  A    between atoms: C_14  and  O_19
REMARK    2  A    between atoms: O_19  and  C_21
REMARK                            x       y       z     vdW  Elec       q    Type
REMARK                         _______ _______ _______ _____ _____    ______ ____
ROOT
ATOM      1  O   UNL     1      33.647  -9.676 -24.130  0.00  0.00    -0.479 OA
ATOM      2  C   UNL     1      32.533  -9.333 -21.920  0.00  0.00    -0.012 C 
ATOM      3  C   UNL     1      32.071 -10.304 -19.232  0.00  0.00    +0.005 C 
ATOM      4  C   UNL     1      32.963  -8.743 -23.264  0.00  0.00    +0.148 C 
ATOM      5  C   UNL     1      32.439 -10.665 -21.734  0.00  0.00    -0.021 C 
ATOM      6  C   UNL     1      32.036 -11.283 -20.416  0.00  0.00    +0.026 C 
ATOM      7  C   UNL     1      32.182  -8.357 -20.813  0.00  0.00    +0.025 C 
ATOM      8  C   UNL     1      31.427  -8.980 -19.639  0.00  0.00    +0.005 C 
ATOM      9  C   UNL     1      32.723 -11.542 -22.883  0.00  0.00    +0.064 C 
ATOM     10  C   UNL     1      31.379 -10.902 -18.010  0.00  0.00    +0.000 C 
ATOM     11  C   UNL     1      33.319 -10.996 -24.024  0.00  0.00    +0.141 C 
ATOM     12  C   UNL     1      31.743  -8.222 -24.042  0.00  0.00    +0.048 C 
ATOM     13  C   UNL     1      33.974  -7.598 -23.084  0.00  0.00    +0.048 C 
ATOM     14  C   UNL     1      32.441 -12.917 -22.880  0.00  0.00    +0.151 C 
ATOM     15  C   UNL     1      33.652 -11.800 -25.120  0.00  0.00    +0.033 C 
ATOM     16  C   UNL     1      33.368 -13.162 -25.098  0.00  0.00    -0.016 C 
ATOM     17  C   UNL     1      32.759 -13.720 -23.980  0.00  0.00    +0.034 C 
ATOM     18  C   UNL     1      33.713 -14.016 -26.269  0.00  0.00    +0.031 C 
ENDROOT
BRANCH  14  19
ATOM     19  O   UNL     1      31.814 -13.567 -21.857  0.00  0.00    -0.424 OA
BRANCH  19  21
ATOM     20  O   UNL     1      32.027 -15.842 -21.348  0.00  0.00    -0.250 OA
ATOM     21  C   UNL     1      32.491 -14.712 -21.410  0.00  0.00    +0.322 C 
ATOM     22  C   UNL     1      33.892 -14.353 -21.009  0.00  0.00    +0.122 C 
ENDBRANCH  19  21
ENDBRANCH  14  19
TORSDOF 2
ENDMDL
MODEL 2
REMARK VINA RESULT:      -7.7     12.153     15.126
REMARK  Name = 50137
REMARK  2 active torsions:
REMARK  status: ('A' for Active; 'I' for Inactive)
REMARK    1  A    between atoms: C_14  and  O_19
REMARK    2  A    between atoms: O_19  and  C_21
REMARK                            x       y       z     vdW  Elec       q    Type
REMARK                         _______ _______ _______ _____ _____    ______ ____
ROOT
ATOM      1  O   UNL     1      32.284 -24.387 -13.890  0.00  0.00    -0.479 OA
ATOM      2  C   UNL     1      32.577 -23.268 -16.105  0.00  0.00    -0.012 C 
ATOM      3  C   UNL     1      34.249 -22.835 -18.429  0.00  0.00    +0.005 C 
ATOM      4  C   UNL     1      31.637 -23.681 -14.972  0.00  0.00    +0.148 C 
ATOM      5  C   UNL     1      33.912 -23.208 -15.924  0.00  0.00    -0.021 C 
ATOM      6  C   UNL     1      34.873 -22.822 -17.025  0.00  0.00    +0.026 C 
ATOM      7  C   UNL     1      31.945 -22.895 -17.432  0.00  0.00    +0.025 C 
ATOM      8  C   UNL     1      32.881 -22.157 -18.391  0.00  0.00    +0.005 C 
ATOM      9  C   UNL     1      34.439 -23.512 -14.583  0.00  0.00    +0.064 C 
ATOM     10  C   UNL     1      35.171 -22.161 -19.441  0.00  0.00    +0.000 C 
ATOM     11  C   UNL     1      33.592 -24.092 -13.634  0.00  0.00    +0.141 C 
ATOM     12  C   UNL     1      30.955 -22.448 -14.357  0.00  0.00    +0.048 C 
ATOM     13  C   UNL     1      30.559 -24.664 -15.459  0.00  0.00    +0.048 C 
ATOM     14  C   UNL     1      35.770 -23.265 -14.213  0.00  0.00    +0.151 C 
ATOM     15  C   UNL     1      34.062 -24.444 -12.364  0.00  0.00    +0.033 C 
ATOM     16  C   UNL     1      35.385 -24.194 -12.016  0.00  0.00    -0.016 C 
ATOM     17  C   UNL     1      36.239 -23.600 -12.940  0.00  0.00    +0.034 C 
ATOM     18  C   UNL     1      35.884 -24.558 -10.660  0.00  0.00    +0.031 C 
ENDROOT
BRANCH  14  19
ATOM     19  O   UNL     1      36.688 -22.656 -15.020  0.00  0.00    -0.424 OA
BRANCH  19  21
ATOM     20  O   UNL     1      38.811 -23.126 -15.888  0.00  0.00    -0.250 OA
ATOM     21  C   UNL     1      37.744 -23.492 -15.413  0.00  0.00    +0.322 C 
ATOM     22  C   UNL     1      37.378 -24.926 -15.169  0.00  0.00    +0.122 C 
ENDBRANCH  19  21
ENDBRANCH  14  19
TORSDOF 2
ENDMDL
MODEL 3
REMARK VINA RESULT:      -7.5     11.468     14.951
REMARK  Name = 50137
REMARK  2 active torsions:
REMARK  status: ('A' for Active; 'I' for Inactive)
REMARK    1  A    between atoms: C_14  and  O_19
REMARK    2  A    between atoms: O_19  and  C_21
REMARK                            x       y       z     vdW  Elec       q    Type
REMARK                         _______ _______ _______ _____ _____    ______ ____
ROOT
ATOM      1  O   UNL     1      34.308 -24.027 -12.751  0.00  0.00    -0.479 OA
ATOM      2  C   UNL     1      36.041 -23.380 -14.430  0.00  0.00    -0.012 C 
ATOM      3  C   UNL     1      36.718 -21.828 -16.779  0.00  0.00    +0.005 C 
ATOM      4  C   UNL     1      35.715 -24.017 -13.079  0.00  0.00    +0.148 C 
ATOM      5  C   UNL     1      35.097 -23.220 -15.379  0.00  0.00    -0.021 C 
ATOM      6  C   UNL     1      35.378 -22.577 -16.717  0.00  0.00    +0.026 C 
ATOM      7  C   UNL     1      37.480 -22.965 -14.674  0.00  0.00    +0.025 C 
ATOM      8  C   UNL     1      37.814 -22.677 -16.138  0.00  0.00    +0.005 C 
ATOM      9  C   UNL     1      33.741 -23.719 -15.090  0.00  0.00    +0.064 C 
ATOM     10  C   UNL     1      37.072 -21.464 -18.218  0.00  0.00    +0.000 C 
ATOM     11  C   UNL     1      33.418 -24.095 -13.783  0.00  0.00    +0.141 C 
ATOM     12  C   UNL     1      36.195 -25.477 -13.039  0.00  0.00    +0.048 C 
ATOM     13  C   UNL     1      36.358 -23.242 -11.916  0.00  0.00    +0.048 C 
ATOM     14  C   UNL     1      32.741 -23.817 -16.070  0.00  0.00    +0.151 C 
ATOM     15  C   UNL     1      32.129 -24.528 -13.454  0.00  0.00    +0.033 C 
ATOM     16  C   UNL     1      31.150 -24.616 -14.438  0.00  0.00    -0.016 C 
ATOM     17  C   UNL     1      31.457 -24.265 -15.748  0.00  0.00    +0.034 C 
ATOM     18  C   UNL     1      29.780 -25.088 -14.089  0.00  0.00    +0.031 C 
ENDROOT
BRANCH  14  19
ATOM     19  O   UNL     1      32.935 -23.536 -17.392  0.00  0.00    -0.424 OA
BRANCH  19  21
ATOM     20  O   UNL     1      31.122 -22.056 -17.438  0.00  0.00    -0.250 OA
ATOM     21  C   UNL     1      32.215 -22.422 -17.849  0.00  0.00    +0.322 C 
ATOM     22  C   UNL     1      32.983 -21.727 -18.934  0.00  0.00    +0.122 C 
ENDBRANCH  19  21
ENDBRANCH  14  19
TORSDOF 2
ENDMDL
MODEL 4
REMARK VINA RESULT:      -7.5      1.561      4.343
REMARK  Name = 50137
REMARK  2 active torsions:
REMARK  status: ('A' for Active; 'I' for Inactive)
REMARK    1  A    between atoms: C_14  and  O_19
REMARK    2  A    between atoms: O_19  and  C_21
REMARK                            x       y       z     vdW  Elec       q    Type
REMARK                         _______ _______ _______ _____ _____    ______ ____
ROOT
ATOM      1  O   UNL     1      31.557 -11.839 -20.801  0.00  0.00    -0.479 OA
ATOM      2  C   UNL     1      31.714  -9.389 -21.270  0.00  0.00    -0.012 C 
ATOM      3  C   UNL     1      31.520  -7.249 -23.210  0.00  0.00    +0.005 C 
ATOM      4  C   UNL     1      31.602 -10.510 -20.235  0.00  0.00    +0.148 C 
ATOM      5  C   UNL     1      32.133  -9.632 -22.528  0.00  0.00    -0.021 C 
ATOM      6  C   UNL     1      32.238  -8.555 -23.581  0.00  0.00    +0.026 C 
ATOM      7  C   UNL     1      31.368  -7.985 -20.814  0.00  0.00    +0.025 C 
ATOM      8  C   UNL     1      31.837  -6.880 -21.762  0.00  0.00    +0.005 C 
ATOM      9  C   UNL     1      32.524 -11.012 -22.868  0.00  0.00    +0.064 C 
ATOM     10  C   UNL     1      31.909  -6.122 -24.164  0.00  0.00    +0.000 C 
ATOM     11  C   UNL     1      32.209 -12.046 -21.982  0.00  0.00    +0.141 C 
ATOM     12  C   UNL     1      32.797 -10.475 -19.268  0.00  0.00    +0.048 C 
ATOM     13  C   UNL     1      30.297 -10.408 -19.428  0.00  0.00    +0.048 C 
ATOM     14  C   UNL     1      33.185 -11.344 -24.060  0.00  0.00    +0.151 C 
ATOM     15  C   UNL     1      32.516 -13.377 -22.286  0.00  0.00    +0.033 C 
ATOM     16  C   UNL     1      33.169 -13.688 -23.474  0.00  0.00    -0.016 C 
ATOM     17  C   UNL     1      33.507 -12.671 -24.360  0.00  0.00    +0.034 C 
ATOM     18  C   UNL     1      33.506 -15.104 -23.794  0.00  0.00    +0.031 C 
ENDROOT
BRANCH  14  19
ATOM     19  O   UNL     1      33.598 -10.431 -24.987  0.00  0.00    -0.424 OA
BRANCH  19  21
ATOM     20  O   UNL     1      35.511  -9.606 -23.920  0.00  0.00    -0.250 OA
ATOM     21  C   UNL     1      34.958 -10.099 -24.893  0.00  0.00    +0.322 C 
ATOM     22  C   UNL     1      35.656 -10.438 -26.177  0.00  0.00    +0.122 C 
ENDBRANCH  19  21
ENDBRANCH  14  19
TORSDOF 2
ENDMDL
MODEL 5
REMARK VINA RESULT:      -7.5      1.554      6.388
REMARK  Name = 50137
REMARK  2 active torsions:
REMARK  status: ('A' for Active; 'I' for Inactive)
REMARK    1  A    between atoms: C_14  and  O_19
REMARK    2  A    between atoms: O_19  and  C_21
REMARK                            x       y       z     vdW  Elec       q    Type
REMARK                         _______ _______ _______ _____ _____    ______ ____
ROOT
ATOM      1  O   UNL     1      33.279 -14.417 -20.363  0.00  0.00    -0.479 OA
ATOM      2  C   UNL     1      33.313 -14.780 -22.835  0.00  0.00    -0.012 C 
ATOM      3  C   UNL     1      33.707 -13.650 -25.472  0.00  0.00    +0.005 C 
ATOM      4  C   UNL     1      33.319 -15.389 -21.433  0.00  0.00    +0.148 C 
ATOM      5  C   UNL     1      32.905 -13.513 -23.051  0.00  0.00    -0.021 C 
ATOM      6  C   UNL     1      32.903 -12.872 -24.419  0.00  0.00    +0.026 C 
ATOM      7  C   UNL     1      33.751 -15.671 -23.982  0.00  0.00    +0.025 C 
ATOM      8  C   UNL     1      33.386 -15.140 -25.369  0.00  0.00    +0.005 C 
ATOM      9  C   UNL     1      32.423 -12.740 -21.894  0.00  0.00    +0.064 C 
ATOM     10  C   UNL     1      33.424 -13.120 -26.875  0.00  0.00    +0.000 C 
ATOM     11  C   UNL     1      32.640 -13.236 -20.605  0.00  0.00    +0.141 C 
ATOM     12  C   UNL     1      32.108 -16.317 -21.240  0.00  0.00    +0.048 C 
ATOM     13  C   UNL     1      34.610 -16.180 -21.163  0.00  0.00    +0.048 C 
ATOM     14  C   UNL     1      31.766 -11.506 -22.022  0.00  0.00    +0.151 C 
ATOM     15  C   UNL     1      32.243 -12.512 -19.475  0.00  0.00    +0.033 C 
ATOM     16  C   UNL     1      31.596 -11.290 -19.622  0.00  0.00    -0.016 C 
ATOM     17  C   UNL     1      31.354 -10.788 -20.896  0.00  0.00    +0.034 C 
ATOM     18  C   UNL     1      31.163 -10.523 -18.419  0.00  0.00    +0.031 C 
ENDROOT
BRANCH  14  19
ATOM     19  O   UNL     1      31.442 -10.932 -23.218  0.00  0.00    -0.424 OA
BRANCH  19  21
ATOM     20  O   UNL     1      31.101  -8.617 -23.289  0.00  0.00    -0.250 OA
ATOM     21  C   UNL     1      31.840  -9.592 -23.333  0.00  0.00    +0.322 C 
ATOM     22  C   UNL     1      33.326  -9.515 -23.524  0.00  0.00    +0.122 C 
ENDBRANCH  19  21
ENDBRANCH  14  19
TORSDOF 2
ENDMDL
MODEL 6
REMARK VINA RESULT:      -7.4     10.753     14.207
REMARK  Name = 50137
REMARK  2 active torsions:
REMARK  status: ('A' for Active; 'I' for Inactive)
REMARK    1  A    between atoms: C_14  and  O_19
REMARK    2  A    between atoms: O_19  and  C_21
REMARK                            x       y       z     vdW  Elec       q    Type
REMARK                         _______ _______ _______ _____ _____    ______ ____
ROOT
ATOM      1  O   UNL     1      34.414 -23.458 -14.422  0.00  0.00    -0.479 OA
ATOM      2  C   UNL     1      34.634 -22.872 -16.841  0.00  0.00    -0.012 C 
ATOM      3  C   UNL     1      33.605 -21.392 -19.107  0.00  0.00    +0.005 C 
ATOM      4  C   UNL     1      35.271 -23.470 -15.586  0.00  0.00    +0.148 C 
ATOM      5  C   UNL     1      33.298 -22.730 -16.953  0.00  0.00    -0.021 C 
ATOM      6  C   UNL     1      32.635 -22.127 -18.170  0.00  0.00    +0.026 C 
ATOM      7  C   UNL     1      35.564 -22.478 -17.973  0.00  0.00    +0.025 C 
ATOM      8  C   UNL     1      34.863 -22.233 -19.310  0.00  0.00    +0.005 C 
ATOM      9  C   UNL     1      32.460 -23.208 -15.840  0.00  0.00    +0.064 C 
ATOM     10  C   UNL     1      32.935 -21.070 -20.441  0.00  0.00    +0.000 C 
ATOM     11  C   UNL     1      33.068 -23.545 -14.627  0.00  0.00    +0.141 C 
ATOM     12  C   UNL     1      35.677 -24.932 -15.828  0.00  0.00    +0.048 C 
ATOM     13  C   UNL     1      36.506 -22.669 -15.141  0.00  0.00    +0.048 C 
ATOM     14  C   UNL     1      31.064 -23.325 -15.932  0.00  0.00    +0.151 C 
ATOM     15  C   UNL     1      32.307 -23.957 -13.527  0.00  0.00    +0.033 C 
ATOM     16  C   UNL     1      30.924 -24.064 -13.636  0.00  0.00    -0.016 C 
ATOM     17  C   UNL     1      30.303 -23.751 -14.841  0.00  0.00    +0.034 C 
ATOM     18  C   UNL     1      30.114 -24.513 -12.469  0.00  0.00    +0.031 C 
ENDROOT
BRANCH  14  19
ATOM     19  O   UNL     1      30.349 -23.081 -17.070  0.00  0.00    -0.424 OA
BRANCH  19  21
ATOM     20  O   UNL     1      28.430 -21.835 -16.580  0.00  0.00    -0.250 OA
ATOM     21  C   UNL     1      28.977 -22.895 -16.851  0.00  0.00    +0.322 C 
ATOM     22  C   UNL     1      28.255 -24.203 -16.995  0.00  0.00    +0.122 C 
ENDBRANCH  19  21
ENDBRANCH  14  19
TORSDOF 2
ENDMDL
MODEL 7
REMARK VINA RESULT:      -7.3      1.770      4.851
REMARK  Name = 50137
REMARK  2 active torsions:
REMARK  status: ('A' for Active; 'I' for Inactive)
REMARK    1  A    between atoms: C_14  and  O_19
REMARK    2  A    between atoms: O_19  and  C_21
REMARK                            x       y       z     vdW  Elec       q    Type
REMARK                         _______ _______ _______ _____ _____    ______ ____
ROOT
ATOM      1  O   UNL     1      33.073 -10.098 -24.981  0.00  0.00    -0.479 OA
ATOM      2  C   UNL     1      33.518 -12.278 -23.844  0.00  0.00    -0.012 C 
ATOM      3  C   UNL     1      32.542 -14.382 -22.111  0.00  0.00    +0.005 C 
ATOM      4  C   UNL     1      33.923 -11.264 -24.915  0.00  0.00    +0.148 C 
ATOM      5  C   UNL     1      32.717 -11.933 -22.816  0.00  0.00    -0.021 C 
ATOM      6  C   UNL     1      32.281 -12.911 -21.750  0.00  0.00    +0.026 C 
ATOM      7  C   UNL     1      34.084 -13.680 -23.964  0.00  0.00    +0.025 C 
ATOM      8  C   UNL     1      33.944 -14.527 -22.698  0.00  0.00    +0.005 C 
ATOM      9  C   UNL     1      32.272 -10.531 -22.731  0.00  0.00    +0.064 C 
ATOM     10  C   UNL     1      32.358 -15.282 -20.892  0.00  0.00    +0.000 C 
ATOM     11  C   UNL     1      32.473  -9.686 -23.827  0.00  0.00    +0.141 C 
ATOM     12  C   UNL     1      35.355 -10.761 -24.671  0.00  0.00    +0.048 C 
ATOM     13  C   UNL     1      33.833 -11.866 -26.328  0.00  0.00    +0.048 C 
ATOM     14  C   UNL     1      31.632 -10.002 -21.600  0.00  0.00    +0.151 C 
ATOM     15  C   UNL     1      32.023  -8.361 -23.810  0.00  0.00    +0.033 C 
ATOM     16  C   UNL     1      31.388  -7.855 -22.680  0.00  0.00    -0.016 C 
ATOM     17  C   UNL     1      31.196  -8.674 -21.573  0.00  0.00    +0.034 C 
ATOM     18  C   UNL     1      30.919  -6.440 -22.657  0.00  0.00    +0.031 C 
ENDROOT
BRANCH  14  19
ATOM     19  O   UNL     1      31.421 -10.698 -20.444  0.00  0.00    -0.424 OA
BRANCH  19  21
ATOM     20  O   UNL     1      32.635  -9.069 -19.281  0.00  0.00    -0.250 OA
ATOM     21  C   UNL     1      31.922 -10.064 -19.298  0.00  0.00    +0.322 C 
ATOM     22  C   UNL     1      31.457 -10.789 -18.069  0.00  0.00    +0.122 C 
ENDBRANCH  19  21
ENDBRANCH  14  19
TORSDOF 2
ENDMDL
MODEL 8
REMARK VINA RESULT:      -7.2      1.190      4.457
REMARK  Name = 50137
REMARK  2 active torsions:
REMARK  status: ('A' for Active; 'I' for Inactive)
REMARK    1  A    between atoms: C_14  and  O_19
REMARK    2  A    between atoms: O_19  and  C_21
REMARK                            x       y       z     vdW  Elec       q    Type
REMARK                         _______ _______ _______ _____ _____    ______ ____
ROOT
ATOM      1  O   UNL     1      32.803 -14.724 -22.966  0.00  0.00    -0.479 OA
ATOM      2  C   UNL     1      32.485 -13.069 -21.121  0.00  0.00    -0.012 C 
ATOM      3  C   UNL     1      31.356 -10.545 -20.261  0.00  0.00    +0.005 C 
ATOM      4  C   UNL     1      32.885 -14.483 -21.544  0.00  0.00    +0.148 C 
ATOM      5  C   UNL     1      32.456 -12.052 -22.006  0.00  0.00    -0.021 C 
ATOM      6  C   UNL     1      32.048 -10.647 -21.629  0.00  0.00    +0.026 C 
ATOM      7  C   UNL     1      32.156 -12.847 -19.657  0.00  0.00    +0.025 C 
ATOM      8  C   UNL     1      32.120 -11.379 -19.234  0.00  0.00    +0.005 C 
ATOM      9  C   UNL     1      32.864 -12.335 -23.393  0.00  0.00    +0.064 C 
ATOM     10  C   UNL     1      31.241  -9.090 -19.816  0.00  0.00    +0.000 C 
ATOM     11  C   UNL     1      33.013 -13.664 -23.801  0.00  0.00    +0.141 C 
ATOM     12  C   UNL     1      34.332 -14.786 -21.121  0.00  0.00    +0.048 C 
ATOM     13  C   UNL     1      31.950 -15.542 -20.937  0.00  0.00    +0.048 C 
ATOM     14  C   UNL     1      33.093 -11.326 -24.341  0.00  0.00    +0.151 C 
ATOM     15  C   UNL     1      33.350 -13.982 -25.121  0.00  0.00    +0.033 C 
ATOM     16  C   UNL     1      33.570 -12.968 -26.048  0.00  0.00    -0.016 C 
ATOM     17  C   UNL     1      33.446 -11.640 -25.657  0.00  0.00    +0.034 C 
ATOM     18  C   UNL     1      33.941 -13.306 -27.451  0.00  0.00    +0.031 C 
ENDROOT
BRANCH  14  19
ATOM     19  O   UNL     1      33.035  -9.990 -24.066  0.00  0.00    -0.424 OA
BRANCH  19  21
ATOM     20  O   UNL     1      35.375  -9.925 -24.113  0.00  0.00    -0.250 OA
ATOM     21  C   UNL     1      34.292  -9.372 -23.981  0.00  0.00    +0.322 C 
ATOM     22  C   UNL     1      34.122  -7.908 -23.699  0.00  0.00    +0.122 C 
ENDBRANCH  19  21
ENDBRANCH  14  19
TORSDOF 2
ENDMDL
MODEL 9
REMARK VINA RESULT:      -7.1     10.508     13.720
REMARK  Name = 50137
REMARK  2 active torsions:
REMARK  status: ('A' for Active; 'I' for Inactive)
REMARK    1  A    between atoms: C_14  and  O_19
REMARK    2  A    between atoms: O_19  and  C_21
REMARK                            x       y       z     vdW  Elec       q    Type
REMARK                         _______ _______ _______ _____ _____    ______ ____
ROOT
ATOM      1  O   UNL     1      30.931 -22.364 -17.018  0.00  0.00    -0.479 OA
ATOM      2  C   UNL     1      31.869 -23.693 -15.122  0.00  0.00    -0.012 C 
ATOM      3  C   UNL     1      34.018 -24.064 -13.216  0.00  0.00    +0.005 C 
ATOM      4  C   UNL     1      30.662 -23.347 -15.994  0.00  0.00    +0.148 C 
ATOM      5  C   UNL     1      33.128 -23.422 -15.523  0.00  0.00    -0.021 C 
ATOM      6  C   UNL     1      34.343 -23.733 -14.681  0.00  0.00    +0.026 C 
ATOM      7  C   UNL     1      31.597 -24.387 -13.801  0.00  0.00    +0.025 C 
ATOM      8  C   UNL     1      32.830 -25.022 -13.156  0.00  0.00    +0.005 C 
ATOM      9  C   UNL     1      33.310 -22.817 -16.854  0.00  0.00    +0.064 C 
ATOM     10  C   UNL     1      35.236 -24.649 -12.506  0.00  0.00    +0.000 C 
ATOM     11  C   UNL     1      32.195 -22.315 -17.531  0.00  0.00    +0.141 C 
ATOM     12  C   UNL     1      30.129 -24.601 -16.705  0.00  0.00    +0.048 C 
ATOM     13  C   UNL     1      29.528 -22.715 -15.167  0.00  0.00    +0.048 C 
ATOM     14  C   UNL     1      34.564 -22.700 -17.472  0.00  0.00    +0.151 C 
ATOM     15  C   UNL     1      32.327 -21.687 -18.775  0.00  0.00    +0.033 C 
ATOM     16  C   UNL     1      33.579 -21.578 -19.371  0.00  0.00    -0.016 C 
ATOM     17  C   UNL     1      34.698 -22.088 -18.722  0.00  0.00    +0.034 C 
ATOM     18  C   UNL     1      33.719 -20.919 -20.701  0.00  0.00    +0.031 C 
ENDROOT
BRANCH  14  19
ATOM     19  O   UNL     1      35.725 -23.193 -16.949  0.00  0.00    -0.424 OA
BRANCH  19  21
ATOM     20  O   UNL     1      36.779 -21.132 -17.296  0.00  0.00    -0.250 OA
ATOM     21  C   UNL     1      36.715 -22.222 -16.742  0.00  0.00    +0.322 C 
ATOM     22  C   UNL     1      37.708 -22.712 -15.730  0.00  0.00    +0.122 C 
ENDBRANCH  19  21
ENDBRANCH  14  19
TORSDOF 2
ENDMDL
