MODEL 1
REMARK VINA RESULT:      -8.5      0.000      0.000
REMARK  Name = 24812720
REMARK  5 active torsions:
REMARK  status: ('A' for Active; 'I' for Inactive)
REMARK    1  A    between atoms: N_1  and  S_17
REMARK    2  A    between atoms: N_2  and  C_8
REMARK    3  A    between atoms: C_13  and  N_16
REMARK    4  A    between atoms: S_17  and  C_20
REMARK    5  A    between atoms: C_21  and  C_26
REMARK                            x       y       z     vdW  Elec       q    Type
REMARK                         _______ _______ _______ _____ _____    ______ ____
ROOT
ATOM      1  N   UNL     1      31.840  -7.015 -22.819  0.00  0.00    -0.153 NA
ATOM      2  N   UNL     1      31.979  -9.840 -22.233  0.00  0.00    -0.305 N 
ATOM      3  C   UNL     1      32.824  -7.542 -21.824  0.00  0.00    +0.099 C 
ATOM      4  C   UNL     1      32.373  -8.874 -21.206  0.00  0.00    +0.108 C 
ATOM      5  C   UNL     1      30.735  -7.939 -23.171  0.00  0.00    +0.117 C 
ATOM      6  C   UNL     1      31.289  -9.337 -23.422  0.00  0.00    +0.110 C 
ATOM      7  C   UNL     1      34.184  -7.658 -22.514  0.00  0.00    +0.021 C 
ENDROOT
BRANCH   2   8
ATOM      8  C   UNL     1      32.151 -11.211 -22.050  0.00  0.00    +0.048 C 
ATOM      9  C   UNL     1      31.856 -11.791 -20.817  0.00  0.00    +0.016 C 
ATOM     10  C   UNL     1      32.616 -12.002 -23.100  0.00  0.00    +0.016 C 
ATOM     11  C   UNL     1      32.029 -13.163 -20.633  0.00  0.00    +0.025 C 
ATOM     12  C   UNL     1      32.789 -13.374 -22.916  0.00  0.00    +0.025 C 
ATOM     13  C   UNL     1      32.495 -13.954 -21.682  0.00  0.00    +0.143 C 
BRANCH  13  16
ATOM     14  O   UNL     1      31.846 -15.979 -20.788  0.00  0.00    -0.126 OA
ATOM     15  O   UNL     1      33.646 -15.920 -22.043  0.00  0.00    -0.126 OA
ATOM     16  N   UNL     1      32.670 -15.350 -21.495  0.00  0.00    +0.058 N 
ENDBRANCH  13  16
ENDBRANCH   2   8
BRANCH   1  17
ATOM     17  S   UNL     1      31.440  -5.358 -22.713  0.00  0.00    +0.063 S 
ATOM     18  O   UNL     1      32.354  -4.705 -21.798  0.00  0.00    -0.153 OA
ATOM     19  O   UNL     1      30.007  -5.225 -22.550  0.00  0.00    -0.153 OA
BRANCH  17  20
ATOM     20  C   UNL     1      31.851  -4.831 -24.348  0.00  0.00    +0.122 C 
ATOM     21  C   UNL     1      32.499  -4.001 -26.932  0.00  0.00    -0.023 C 
ATOM     22  C   UNL     1      31.250  -3.693 -24.886  0.00  0.00    +0.020 C 
ATOM     23  C   UNL     1      32.775  -5.555 -25.102  0.00  0.00    +0.020 C 
ATOM     24  C   UNL     1      31.574  -3.277 -26.177  0.00  0.00    -0.003 C 
ATOM     25  C   UNL     1      33.099  -5.139 -26.393  0.00  0.00    -0.003 C 
BRANCH  21  26
ATOM     26  C   UNL     1      32.845  -3.557 -28.312  0.00  0.00    +0.019 C 
ATOM     27  C   UNL     1      32.714  -4.651 -29.423  0.00  0.00    +0.004 C 
ATOM     28  C   UNL     1      31.925  -2.384 -28.775  0.00  0.00    +0.004 C 
ATOM     29  C   UNL     1      34.320  -3.057 -28.392  0.00  0.00    +0.004 C 
ENDBRANCH  21  26
ENDBRANCH  17  20
ENDBRANCH   1  17
TORSDOF 5
ENDMDL
MODEL 2
REMARK VINA RESULT:      -8.4      1.487      2.418
REMARK  Name = 24812720
REMARK  5 active torsions:
REMARK  status: ('A' for Active; 'I' for Inactive)
REMARK    1  A    between atoms: N_1  and  S_17
REMARK    2  A    between atoms: N_2  and  C_8
REMARK    3  A    between atoms: C_13  and  N_16
REMARK    4  A    between atoms: S_17  and  C_20
REMARK    5  A    between atoms: C_21  and  C_26
REMARK                            x       y       z     vdW  Elec       q    Type
REMARK                         _______ _______ _______ _____ _____    ______ ____
ROOT
ATOM      1  N   UNL     1      32.035  -8.201 -22.657  0.00  0.00    -0.153 NA
ATOM      2  N   UNL     1      32.530 -11.047 -22.696  0.00  0.00    -0.305 N 
ATOM      3  C   UNL     1      31.630  -9.064 -21.504  0.00  0.00    +0.099 C 
ATOM      4  C   UNL     1      31.403 -10.525 -21.920  0.00  0.00    +0.108 C 
ATOM      5  C   UNL     1      32.332  -8.923 -23.918  0.00  0.00    +0.117 C 
ATOM      6  C   UNL     1      33.205 -10.138 -23.625  0.00  0.00    +0.110 C 
ATOM      7  C   UNL     1      32.694  -8.934 -20.415  0.00  0.00    +0.021 C 
ENDROOT
BRANCH   2   8
ATOM      8  C   UNL     1      32.892 -12.392 -22.645  0.00  0.00    +0.048 C 
ATOM      9  C   UNL     1      33.811 -12.901 -23.560  0.00  0.00    +0.016 C 
ATOM     10  C   UNL     1      32.333 -13.227 -21.678  0.00  0.00    +0.016 C 
ATOM     11  C   UNL     1      34.172 -14.248 -23.509  0.00  0.00    +0.025 C 
ATOM     12  C   UNL     1      32.694 -14.574 -21.627  0.00  0.00    +0.025 C 
ATOM     13  C   UNL     1      33.614 -15.084 -22.543  0.00  0.00    +0.143 C 
BRANCH  13  16
ATOM     14  O   UNL     1      34.429 -17.005 -23.526  0.00  0.00    -0.126 OA
ATOM     15  O   UNL     1      33.850 -17.079 -21.410  0.00  0.00    -0.126 OA
ATOM     16  N   UNL     1      33.981 -16.454 -22.491  0.00  0.00    +0.058 N 
ENDBRANCH  13  16
ENDBRANCH   2   8
BRANCH   1  17
ATOM     17  S   UNL     1      31.249  -6.693 -22.812  0.00  0.00    +0.063 S 
ATOM     18  O   UNL     1      31.528  -5.887 -21.641  0.00  0.00    -0.153 OA
ATOM     19  O   UNL     1      29.886  -6.911 -23.254  0.00  0.00    -0.153 OA
BRANCH  17  20
ATOM     20  C   UNL     1      32.153  -6.005 -24.164  0.00  0.00    +0.122 C 
ATOM     21  C   UNL     1      33.580  -4.917 -26.300  0.00  0.00    -0.023 C 
ATOM     22  C   UNL     1      33.444  -6.454 -24.440  0.00  0.00    +0.020 C 
ATOM     23  C   UNL     1      31.574  -5.013 -24.956  0.00  0.00    +0.020 C 
ATOM     24  C   UNL     1      34.158  -5.910 -25.508  0.00  0.00    -0.003 C 
ATOM     25  C   UNL     1      32.289  -4.469 -26.024  0.00  0.00    -0.003 C 
BRANCH  21  26
ATOM     26  C   UNL     1      34.343  -4.336 -27.441  0.00  0.00    +0.019 C 
ATOM     27  C   UNL     1      34.580  -2.791 -27.375  0.00  0.00    +0.004 C 
ATOM     28  C   UNL     1      35.766  -4.969 -27.549  0.00  0.00    +0.004 C 
ATOM     29  C   UNL     1      33.613  -4.588 -28.797  0.00  0.00    +0.004 C 
ENDBRANCH  21  26
ENDBRANCH  17  20
ENDBRANCH   1  17
TORSDOF 5
ENDMDL
MODEL 3
REMARK VINA RESULT:      -7.9      1.247      2.199
REMARK  Name = 24812720
REMARK  5 active torsions:
REMARK  status: ('A' for Active; 'I' for Inactive)
REMARK    1  A    between atoms: N_1  and  S_17
REMARK    2  A    between atoms: N_2  and  C_8
REMARK    3  A    between atoms: C_13  and  N_16
REMARK    4  A    between atoms: S_17  and  C_20
REMARK    5  A    between atoms: C_21  and  C_26
REMARK                            x       y       z     vdW  Elec       q    Type
REMARK                         _______ _______ _______ _____ _____    ______ ____
ROOT
ATOM      1  N   UNL     1      31.361  -7.504 -22.299  0.00  0.00    -0.153 NA
ATOM      2  N   UNL     1      32.343 -10.189 -22.715  0.00  0.00    -0.305 N 
ATOM      3  C   UNL     1      31.537  -8.048 -23.681  0.00  0.00    +0.099 C 
ATOM      4  C   UNL     1      32.586  -9.169 -23.738  0.00  0.00    +0.108 C 
ATOM      5  C   UNL     1      32.060  -8.253 -21.226  0.00  0.00    +0.117 C 
ATOM      6  C   UNL     1      31.839  -9.750 -21.413  0.00  0.00    +0.110 C 
ATOM      7  C   UNL     1      30.171  -8.512 -24.188  0.00  0.00    +0.021 C 
ENDROOT
BRANCH   2   8
ATOM      8  C   UNL     1      32.679 -11.525 -22.923  0.00  0.00    +0.048 C 
ATOM      9  C   UNL     1      33.566 -11.870 -23.942  0.00  0.00    +0.016 C 
ATOM     10  C   UNL     1      32.128 -12.517 -22.112  0.00  0.00    +0.016 C 
ATOM     11  C   UNL     1      33.902 -13.208 -24.151  0.00  0.00    +0.025 C 
ATOM     12  C   UNL     1      32.464 -13.855 -22.320  0.00  0.00    +0.025 C 
ATOM     13  C   UNL     1      33.351 -14.200 -23.340  0.00  0.00    +0.143 C 
BRANCH  13  16
ATOM     14  O   UNL     1      33.748 -16.000 -24.727  0.00  0.00    -0.126 OA
ATOM     15  O   UNL     1      33.931 -16.291 -22.559  0.00  0.00    -0.126 OA
ATOM     16  N   UNL     1      33.692 -15.561 -23.552  0.00  0.00    +0.058 N 
ENDBRANCH  13  16
ENDBRANCH   2   8
BRANCH   1  17
ATOM     17  S   UNL     1      31.316  -5.805 -22.134  0.00  0.00    +0.063 S 
ATOM     18  O   UNL     1      32.291  -5.396 -21.144  0.00  0.00    -0.153 OA
ATOM     19  O   UNL     1      29.936  -5.374 -22.038  0.00  0.00    -0.153 OA
BRANCH  17  20
ATOM     20  C   UNL     1      31.925  -5.320 -23.719  0.00  0.00    +0.122 C 
ATOM     21  C   UNL     1      32.888  -4.551 -26.222  0.00  0.00    -0.023 C 
ATOM     22  C   UNL     1      33.089  -5.897 -24.225  0.00  0.00    +0.020 C 
ATOM     23  C   UNL     1      31.241  -4.358 -24.464  0.00  0.00    +0.020 C 
ATOM     24  C   UNL     1      33.570  -5.513 -25.477  0.00  0.00    -0.003 C 
ATOM     25  C   UNL     1      31.723  -3.975 -25.716  0.00  0.00    -0.003 C 
BRANCH  21  26
ATOM     26  C   UNL     1      33.402  -4.141 -27.560  0.00  0.00    +0.019 C 
ATOM     27  C   UNL     1      32.655  -4.762 -28.787  0.00  0.00    +0.004 C 
ATOM     28  C   UNL     1      33.304  -2.595 -27.753  0.00  0.00    +0.004 C 
ATOM     29  C   UNL     1      34.899  -4.543 -27.737  0.00  0.00    +0.004 C 
ENDBRANCH  21  26
ENDBRANCH  17  20
ENDBRANCH   1  17
TORSDOF 5
ENDMDL
MODEL 4
REMARK VINA RESULT:      -7.9      5.740      8.436
REMARK  Name = 24812720
REMARK  5 active torsions:
REMARK  status: ('A' for Active; 'I' for Inactive)
REMARK    1  A    between atoms: N_1  and  S_17
REMARK    2  A    between atoms: N_2  and  C_8
REMARK    3  A    between atoms: C_13  and  N_16
REMARK    4  A    between atoms: S_17  and  C_20
REMARK    5  A    between atoms: C_21  and  C_26
REMARK                            x       y       z     vdW  Elec       q    Type
REMARK                         _______ _______ _______ _____ _____    ______ ____
ROOT
ATOM      1  N   UNL     1      34.181 -15.425 -24.614  0.00  0.00    -0.153 NA
ATOM      2  N   UNL     1      34.593 -17.597 -22.755  0.00  0.00    -0.305 N 
ATOM      3  C   UNL     1      33.662 -15.342 -23.214  0.00  0.00    +0.099 C 
ATOM      4  C   UNL     1      33.425 -16.728 -22.597  0.00  0.00    +0.108 C 
ATOM      5  C   UNL     1      34.555 -16.784 -25.075  0.00  0.00    +0.117 C 
ATOM      6  C   UNL     1      35.365 -17.492 -23.995  0.00  0.00    +0.110 C 
ATOM      7  C   UNL     1      34.641 -14.504 -22.391  0.00  0.00    +0.021 C 
ENDROOT
BRANCH   2   8
ATOM      8  C   UNL     1      34.909 -18.574 -21.813  0.00  0.00    +0.048 C 
ATOM      9  C   UNL     1      36.227 -18.730 -21.386  0.00  0.00    +0.016 C 
ATOM     10  C   UNL     1      33.907 -19.396 -21.298  0.00  0.00    +0.016 C 
ATOM     11  C   UNL     1      36.543 -19.709 -20.445  0.00  0.00    +0.025 C 
ATOM     12  C   UNL     1      34.223 -20.376 -20.356  0.00  0.00    +0.025 C 
ATOM     13  C   UNL     1      35.542 -20.531 -19.930  0.00  0.00    +0.143 C 
BRANCH  13  16
ATOM     14  O   UNL     1      36.856 -21.355 -18.223  0.00  0.00    -0.126 OA
ATOM     15  O   UNL     1      35.147 -22.555 -18.897  0.00  0.00    -0.126 OA
ATOM     16  N   UNL     1      35.864 -21.528 -18.971  0.00  0.00    +0.058 N 
ENDBRANCH  13  16
ENDBRANCH   2   8
BRANCH   1  17
ATOM     17  S   UNL     1      33.455 -14.402 -25.774  0.00  0.00    +0.063 S 
ATOM     18  O   UNL     1      32.161 -14.942 -26.141  0.00  0.00    -0.153 OA
ATOM     19  O   UNL     1      34.432 -14.065 -26.787  0.00  0.00    -0.153 OA
BRANCH  17  20
ATOM     20  C   UNL     1      33.175 -12.962 -24.790  0.00  0.00    +0.122 C 
ATOM     21  C   UNL     1      32.733 -10.687 -23.238  0.00  0.00    -0.023 C 
ATOM     22  C   UNL     1      32.228 -12.990 -23.766  0.00  0.00    +0.020 C 
ATOM     23  C   UNL     1      33.902 -11.797 -25.038  0.00  0.00    +0.020 C 
ATOM     24  C   UNL     1      32.008 -11.852 -22.990  0.00  0.00    -0.003 C 
ATOM     25  C   UNL     1      33.680 -10.660 -24.261  0.00  0.00    -0.003 C 
BRANCH  21  26
ATOM     26  C   UNL     1      32.497  -9.471 -22.408  0.00  0.00    +0.019 C 
ATOM     27  C   UNL     1      33.685  -8.454 -22.351  0.00  0.00    +0.004 C 
ATOM     28  C   UNL     1      31.277  -8.654 -22.937  0.00  0.00    +0.004 C 
ATOM     29  C   UNL     1      32.201  -9.849 -20.923  0.00  0.00    +0.004 C 
ENDBRANCH  21  26
ENDBRANCH  17  20
ENDBRANCH   1  17
TORSDOF 5
ENDMDL
MODEL 5
REMARK VINA RESULT:      -7.7     11.221     15.578
REMARK  Name = 24812720
REMARK  5 active torsions:
REMARK  status: ('A' for Active; 'I' for Inactive)
REMARK    1  A    between atoms: N_1  and  S_17
REMARK    2  A    between atoms: N_2  and  C_8
REMARK    3  A    between atoms: C_13  and  N_16
REMARK    4  A    between atoms: S_17  and  C_20
REMARK    5  A    between atoms: C_21  and  C_26
REMARK                            x       y       z     vdW  Elec       q    Type
REMARK                         _______ _______ _______ _____ _____    ______ ____
ROOT
ATOM      1  N   UNL     1      34.808 -22.272 -18.466  0.00  0.00    -0.153 NA
ATOM      2  N   UNL     1      35.291 -23.079 -15.735  0.00  0.00    -0.305 N 
ATOM      3  C   UNL     1      33.892 -23.235 -17.780  0.00  0.00    +0.099 C 
ATOM      4  C   UNL     1      34.589 -23.992 -16.640  0.00  0.00    +0.108 C 
ATOM      5  C   UNL     1      36.127 -22.077 -17.819  0.00  0.00    +0.117 C 
ATOM      6  C   UNL     1      35.945 -21.904 -16.315  0.00  0.00    +0.110 C 
ATOM      7  C   UNL     1      32.666 -22.463 -17.293  0.00  0.00    +0.021 C 
ENDROOT
BRANCH   2   8
ATOM      8  C   UNL     1      35.434 -23.363 -14.378  0.00  0.00    +0.048 C 
ATOM      9  C   UNL     1      36.610 -23.015 -13.715  0.00  0.00    +0.016 C 
ATOM     10  C   UNL     1      34.402 -23.994 -13.685  0.00  0.00    +0.016 C 
ATOM     11  C   UNL     1      36.754 -23.300 -12.357  0.00  0.00    +0.025 C 
ATOM     12  C   UNL     1      34.546 -24.279 -12.327  0.00  0.00    +0.025 C 
ATOM     13  C   UNL     1      35.722 -23.932 -11.663  0.00  0.00    +0.143 C 
BRANCH  13  16
ATOM     14  O   UNL     1      35.164 -25.125  -9.770  0.00  0.00    -0.126 OA
ATOM     15  O   UNL     1      36.701 -23.566  -9.607  0.00  0.00    -0.126 OA
ATOM     16  N   UNL     1      35.869 -24.221 -10.281  0.00  0.00    +0.058 N 
ENDBRANCH  13  16
ENDBRANCH   2   8
BRANCH   1  17
ATOM     17  S   UNL     1      34.791 -22.269 -20.174  0.00  0.00    +0.063 S 
ATOM     18  O   UNL     1      33.631 -23.000 -20.642  0.00  0.00    -0.153 OA
ATOM     19  O   UNL     1      36.117 -22.591 -20.662  0.00  0.00    -0.153 OA
BRANCH  17  20
ATOM     20  C   UNL     1      34.504 -20.553 -20.481  0.00  0.00    +0.122 C 
ATOM     21  C   UNL     1      34.051 -17.844 -20.969  0.00  0.00    -0.023 C 
ATOM     22  C   UNL     1      33.203 -20.050 -20.463  0.00  0.00    +0.020 C 
ATOM     23  C   UNL     1      35.578 -19.702 -20.743  0.00  0.00    +0.020 C 
ATOM     24  C   UNL     1      32.976 -18.695 -20.706  0.00  0.00    -0.003 C 
ATOM     25  C   UNL     1      35.351 -18.348 -20.986  0.00  0.00    -0.003 C 
BRANCH  21  26
ATOM     26  C   UNL     1      33.808 -16.396 -21.228  0.00  0.00    +0.019 C 
ATOM     27  C   UNL     1      34.687 -15.407 -20.393  0.00  0.00    +0.004 C 
ATOM     28  C   UNL     1      34.083 -16.036 -22.722  0.00  0.00    +0.004 C 
ATOM     29  C   UNL     1      32.330 -16.006 -20.915  0.00  0.00    +0.004 C 
ENDBRANCH  21  26
ENDBRANCH  17  20
ENDBRANCH   1  17
TORSDOF 5
ENDMDL
MODEL 6
REMARK VINA RESULT:      -7.7      5.830     13.089
REMARK  Name = 24812720
REMARK  5 active torsions:
REMARK  status: ('A' for Active; 'I' for Inactive)
REMARK    1  A    between atoms: N_1  and  S_17
REMARK    2  A    between atoms: N_2  and  C_8
REMARK    3  A    between atoms: C_13  and  N_16
REMARK    4  A    between atoms: S_17  and  C_20
REMARK    5  A    between atoms: C_21  and  C_26
REMARK                            x       y       z     vdW  Elec       q    Type
REMARK                         _______ _______ _______ _____ _____    ______ ____
ROOT
ATOM      1  N   UNL     1      34.695 -17.207 -22.787  0.00  0.00    -0.153 NA
ATOM      2  N   UNL     1      33.740 -14.484 -22.663  0.00  0.00    -0.305 N 
ATOM      3  C   UNL     1      34.941 -16.366 -21.575  0.00  0.00    +0.099 C 
ATOM      4  C   UNL     1      34.929 -14.864 -21.897  0.00  0.00    +0.108 C 
ATOM      5  C   UNL     1      34.297 -16.466 -24.008  0.00  0.00    +0.117 C 
ATOM      6  C   UNL     1      33.234 -15.430 -23.659  0.00  0.00    +0.110 C 
ATOM      7  C   UNL     1      33.900 -16.736 -20.518  0.00  0.00    +0.021 C 
ENDROOT
BRANCH   2   8
ATOM      8  C   UNL     1      33.163 -13.222 -22.537  0.00  0.00    +0.048 C 
ATOM      9  C   UNL     1      33.518 -12.203 -23.420  0.00  0.00    +0.016 C 
ATOM     10  C   UNL     1      32.231 -12.979 -21.528  0.00  0.00    +0.016 C 
ATOM     11  C   UNL     1      32.941 -10.939 -23.293  0.00  0.00    +0.025 C 
ATOM     12  C   UNL     1      31.654 -11.715 -21.402  0.00  0.00    +0.025 C 
ATOM     13  C   UNL     1      32.009 -10.696 -22.285  0.00  0.00    +0.143 C 
BRANCH  13  16
ATOM     14  O   UNL     1      31.584  -8.769 -21.089  0.00  0.00    -0.126 OA
ATOM     15  O   UNL     1      30.755  -8.946 -23.114  0.00  0.00    -0.126 OA
ATOM     16  N   UNL     1      31.422  -9.409 -22.156  0.00  0.00    +0.058 N 
ENDBRANCH  13  16
ENDBRANCH   2   8
BRANCH   1  17
ATOM     17  S   UNL     1      35.719 -18.555 -23.016  0.00  0.00    +0.063 S 
ATOM     18  O   UNL     1      37.079 -18.183 -22.680  0.00  0.00    -0.153 OA
ATOM     19  O   UNL     1      35.413 -19.172 -24.290  0.00  0.00    -0.153 OA
BRANCH  17  20
ATOM     20  C   UNL     1      35.124 -19.622 -21.741  0.00  0.00    +0.122 C 
ATOM     21  C   UNL     1      34.183 -21.309 -19.728  0.00  0.00    -0.023 C 
ATOM     22  C   UNL     1      36.027 -20.294 -20.916  0.00  0.00    +0.020 C 
ATOM     23  C   UNL     1      33.752 -19.793 -21.559  0.00  0.00    +0.020 C 
ATOM     24  C   UNL     1      35.556 -21.137 -19.910  0.00  0.00    -0.003 C 
ATOM     25  C   UNL     1      33.282 -20.636 -20.552  0.00  0.00    -0.003 C 
BRANCH  21  26
ATOM     26  C   UNL     1      33.681 -22.210 -18.652  0.00  0.00    +0.019 C 
ATOM     27  C   UNL     1      32.246 -21.886 -18.119  0.00  0.00    +0.004 C 
ATOM     28  C   UNL     1      33.617 -23.691 -19.140  0.00  0.00    +0.004 C 
ATOM     29  C   UNL     1      34.610 -22.167 -17.399  0.00  0.00    +0.004 C 
ENDBRANCH  21  26
ENDBRANCH  17  20
ENDBRANCH   1  17
TORSDOF 5
ENDMDL
MODEL 7
REMARK VINA RESULT:      -7.6      6.701     10.103
REMARK  Name = 24812720
REMARK  5 active torsions:
REMARK  status: ('A' for Active; 'I' for Inactive)
REMARK    1  A    between atoms: N_1  and  S_17
REMARK    2  A    between atoms: N_2  and  C_8
REMARK    3  A    between atoms: C_13  and  N_16
REMARK    4  A    between atoms: S_17  and  C_20
REMARK    5  A    between atoms: C_21  and  C_26
REMARK                            x       y       z     vdW  Elec       q    Type
REMARK                         _______ _______ _______ _____ _____    ______ ____
ROOT
ATOM      1  N   UNL     1      34.153 -17.096 -23.493  0.00  0.00    -0.153 NA
ATOM      2  N   UNL     1      34.533 -19.081 -21.429  0.00  0.00    -0.305 N 
ATOM      3  C   UNL     1      34.854 -18.383 -23.791  0.00  0.00    +0.099 C 
ATOM      4  C   UNL     1      35.488 -19.005 -22.537  0.00  0.00    +0.108 C 
ATOM      5  C   UNL     1      34.024 -16.758 -22.055  0.00  0.00    +0.117 C 
ATOM      6  C   UNL     1      33.573 -17.987 -21.274  0.00  0.00    +0.110 C 
ATOM      7  C   UNL     1      33.855 -19.327 -24.459  0.00  0.00    +0.021 C 
ENDROOT
BRANCH   2   8
ATOM      8  C   UNL     1      34.595 -20.100 -20.481  0.00  0.00    +0.048 C 
ATOM      9  C   UNL     1      33.421 -20.692 -20.017  0.00  0.00    +0.016 C 
ATOM     10  C   UNL     1      35.831 -20.526 -19.996  0.00  0.00    +0.016 C 
ATOM     11  C   UNL     1      33.483 -21.711 -19.066  0.00  0.00    +0.025 C 
ATOM     12  C   UNL     1      35.893 -21.546 -19.045  0.00  0.00    +0.025 C 
ATOM     13  C   UNL     1      34.719 -22.137 -18.581  0.00  0.00    +0.143 C 
BRANCH  13  16
ATOM     14  O   UNL     1      35.709 -23.164 -16.768  0.00  0.00    -0.126 OA
ATOM     15  O   UNL     1      33.907 -24.075 -17.629  0.00  0.00    -0.126 OA
ATOM     16  N   UNL     1      34.782 -23.175 -17.613  0.00  0.00    +0.058 N 
ENDBRANCH  13  16
ENDBRANCH   2   8
BRANCH   1  17
ATOM     17  S   UNL     1      34.442 -15.791 -24.557  0.00  0.00    +0.063 S 
ATOM     18  O   UNL     1      33.705 -16.006 -25.786  0.00  0.00    -0.153 OA
ATOM     19  O   UNL     1      35.861 -15.507 -24.585  0.00  0.00    -0.153 OA
BRANCH  17  20
ATOM     20  C   UNL     1      33.644 -14.485 -23.676  0.00  0.00    +0.122 C 
ATOM     21  C   UNL     1      32.386 -12.423 -22.280  0.00  0.00    -0.023 C 
ATOM     22  C   UNL     1      33.825 -13.161 -24.076  0.00  0.00    +0.020 C 
ATOM     23  C   UNL     1      32.834 -14.778 -22.578  0.00  0.00    +0.020 C 
ATOM     24  C   UNL     1      33.196 -12.130 -23.379  0.00  0.00    -0.003 C 
ATOM     25  C   UNL     1      32.205 -13.747 -21.881  0.00  0.00    -0.003 C 
BRANCH  21  26
ATOM     26  C   UNL     1      31.713 -11.320 -21.536  0.00  0.00    +0.019 C 
ATOM     27  C   UNL     1      32.326  -9.896 -21.745  0.00  0.00    +0.004 C 
ATOM     28  C   UNL     1      30.214 -11.191 -21.950  0.00  0.00    +0.004 C 
ATOM     29  C   UNL     1      31.756 -11.569 -19.996  0.00  0.00    +0.004 C 
ENDBRANCH  21  26
ENDBRANCH  17  20
ENDBRANCH   1  17
TORSDOF 5
ENDMDL
MODEL 8
REMARK VINA RESULT:      -7.5      5.065     11.799
REMARK  Name = 24812720
REMARK  5 active torsions:
REMARK  status: ('A' for Active; 'I' for Inactive)
REMARK    1  A    between atoms: N_1  and  S_17
REMARK    2  A    between atoms: N_2  and  C_8
REMARK    3  A    between atoms: C_13  and  N_16
REMARK    4  A    between atoms: S_17  and  C_20
REMARK    5  A    between atoms: C_21  and  C_26
REMARK                            x       y       z     vdW  Elec       q    Type
REMARK                         _______ _______ _______ _____ _____    ______ ____
ROOT
ATOM      1  N   UNL     1      33.609 -15.706 -24.374  0.00  0.00    -0.153 NA
ATOM      2  N   UNL     1      33.119 -13.003 -23.479  0.00  0.00    -0.305 N 
ATOM      3  C   UNL     1      34.344 -15.145 -23.198  0.00  0.00    +0.099 C 
ATOM      4  C   UNL     1      34.430 -13.612 -23.242  0.00  0.00    +0.108 C 
ATOM      5  C   UNL     1      32.941 -14.708 -25.243  0.00  0.00    +0.117 C 
ATOM      6  C   UNL     1      32.196 -13.691 -24.384  0.00  0.00    +0.110 C 
ATOM      7  C   UNL     1      33.662 -15.647 -21.925  0.00  0.00    +0.021 C 
ENDROOT
BRANCH   2   8
ATOM      8  C   UNL     1      32.788 -11.755 -22.955  0.00  0.00    +0.048 C 
ATOM      9  C   UNL     1      33.354 -10.601 -23.495  0.00  0.00    +0.016 C 
ATOM     10  C   UNL     1      31.891 -11.662 -21.891  0.00  0.00    +0.016 C 
ATOM     11  C   UNL     1      33.023  -9.352 -22.969  0.00  0.00    +0.025 C 
ATOM     12  C   UNL     1      31.561 -10.412 -21.366  0.00  0.00    +0.025 C 
ATOM     13  C   UNL     1      32.127  -9.258 -21.905  0.00  0.00    +0.143 C 
BRANCH  13  16
ATOM     14  O   UNL     1      31.296  -7.118 -22.130  0.00  0.00    -0.126 OA
ATOM     15  O   UNL     1      31.995  -7.765 -20.152  0.00  0.00    -0.126 OA
ATOM     16  N   UNL     1      31.790  -7.986 -21.371  0.00  0.00    +0.058 N 
ENDBRANCH  13  16
ENDBRANCH   2   8
BRANCH   1  17
ATOM     17  S   UNL     1      34.314 -17.048 -25.161  0.00  0.00    +0.063 S 
ATOM     18  O   UNL     1      35.548 -16.633 -25.797  0.00  0.00    -0.153 OA
ATOM     19  O   UNL     1      33.293 -17.748 -25.912  0.00  0.00    -0.153 OA
BRANCH  17  20
ATOM     20  C   UNL     1      34.738 -18.043 -23.765  0.00  0.00    +0.122 C 
ATOM     21  C   UNL     1      35.406 -19.618 -21.562  0.00  0.00    -0.023 C 
ATOM     22  C   UNL     1      36.019 -17.970 -23.219  0.00  0.00    +0.020 C 
ATOM     23  C   UNL     1      33.790 -18.904 -23.210  0.00  0.00    +0.020 C 
ATOM     24  C   UNL     1      36.353 -18.757 -22.117  0.00  0.00    -0.003 C 
ATOM     25  C   UNL     1      34.125 -19.691 -22.108  0.00  0.00    -0.003 C 
BRANCH  21  26
ATOM     26  C   UNL     1      35.764 -20.459 -20.384  0.00  0.00    +0.019 C 
ATOM     27  C   UNL     1      36.457 -21.822 -20.716  0.00  0.00    +0.004 C 
ATOM     28  C   UNL     1      36.752 -19.711 -19.435  0.00  0.00    +0.004 C 
ATOM     29  C   UNL     1      34.499 -20.829 -19.548  0.00  0.00    +0.004 C 
ENDBRANCH  21  26
ENDBRANCH  17  20
ENDBRANCH   1  17
TORSDOF 5
ENDMDL
MODEL 9
REMARK VINA RESULT:      -7.5     11.861     17.057
REMARK  Name = 24812720
REMARK  5 active torsions:
REMARK  status: ('A' for Active; 'I' for Inactive)
REMARK    1  A    between atoms: N_1  and  S_17
REMARK    2  A    between atoms: N_2  and  C_8
REMARK    3  A    between atoms: C_13  and  N_16
REMARK    4  A    between atoms: S_17  and  C_20
REMARK    5  A    between atoms: C_21  and  C_26
REMARK                            x       y       z     vdW  Elec       q    Type
REMARK                         _______ _______ _______ _____ _____    ______ ____
ROOT
ATOM      1  N   UNL     1      35.305 -22.797 -17.452  0.00  0.00    -0.153 NA
ATOM      2  N   UNL     1      35.162 -20.854 -19.586  0.00  0.00    -0.305 N 
ATOM      3  C   UNL     1      34.091 -22.704 -18.322  0.00  0.00    +0.099 C 
ATOM      4  C   UNL     1      33.926 -21.310 -18.946  0.00  0.00    +0.108 C 
ATOM      5  C   UNL     1      36.215 -21.627 -17.502  0.00  0.00    +0.117 C 
ATOM      6  C   UNL     1      36.434 -21.205 -18.951  0.00  0.00    +0.110 C 
ATOM      7  C   UNL     1      34.179 -23.803 -19.382  0.00  0.00    +0.021 C 
ENDROOT
BRANCH   2   8
ATOM      8  C   UNL     1      35.142 -20.021 -20.702  0.00  0.00    +0.048 C 
ATOM      9  C   UNL     1      36.294 -19.330 -21.076  0.00  0.00    +0.016 C 
ATOM     10  C   UNL     1      33.970 -19.878 -21.445  0.00  0.00    +0.016 C 
ATOM     11  C   UNL     1      36.273 -18.494 -22.193  0.00  0.00    +0.025 C 
ATOM     12  C   UNL     1      33.950 -19.043 -22.562  0.00  0.00    +0.025 C 
ATOM     13  C   UNL     1      35.102 -18.351 -22.935  0.00  0.00    +0.143 C 
BRANCH  13  16
ATOM     14  O   UNL     1      35.317 -16.278 -23.923  0.00  0.00    -0.126 OA
ATOM     15  O   UNL     1      34.828 -17.997 -25.198  0.00  0.00    -0.126 OA
ATOM     16  N   UNL     1      35.081 -17.501 -24.072  0.00  0.00    +0.058 N 
ENDBRANCH  13  16
ENDBRANCH   2   8
BRANCH   1  17
ATOM     17  S   UNL     1      35.112 -23.545 -15.929  0.00  0.00    +0.063 S 
ATOM     18  O   UNL     1      35.578 -22.645 -14.893  0.00  0.00    -0.153 OA
ATOM     19  O   UNL     1      35.602 -24.906 -16.004  0.00  0.00    -0.153 OA
BRANCH  17  20
ATOM     20  C   UNL     1      33.350 -23.608 -15.832  0.00  0.00    +0.122 C 
ATOM     21  C   UNL     1      30.566 -23.708 -15.676  0.00  0.00    -0.023 C 
ATOM     22  C   UNL     1      32.575 -22.817 -16.680  0.00  0.00    +0.020 C 
ATOM     23  C   UNL     1      32.732 -24.450 -14.906  0.00  0.00    +0.020 C 
ATOM     24  C   UNL     1      31.183 -22.867 -16.602  0.00  0.00    -0.003 C 
ATOM     25  C   UNL     1      31.341 -24.500 -14.829  0.00  0.00    -0.003 C 
BRANCH  21  26
ATOM     26  C   UNL     1      29.078 -23.761 -15.593  0.00  0.00    +0.019 C 
ATOM     27  C   UNL     1      28.343 -24.114 -16.929  0.00  0.00    +0.004 C 
ATOM     28  C   UNL     1      28.608 -24.837 -14.564  0.00  0.00    +0.004 C 
ATOM     29  C   UNL     1      28.487 -22.389 -15.143  0.00  0.00    +0.004 C 
ENDBRANCH  21  26
ENDBRANCH  17  20
ENDBRANCH   1  17
TORSDOF 5
ENDMDL
