MODEL 1
REMARK VINA RESULT:      -3.3      0.000      0.000
REMARK  Name = 1176
REMARK  0 active torsions:
REMARK  status: ('A' for Active; 'I' for Inactive)
REMARK                            x       y       z     vdW  Elec       q    Type
REMARK                         _______ _______ _______ _____ _____    ______ ____
ROOT
ATOM      1  O   UNL     1      36.684 -27.280 -16.151  0.00  0.00    -0.253 OA
ATOM      2  N   UNL     1      37.730 -25.424 -15.284  0.00  0.00    -0.314 N 
ATOM      3  N   UNL     1      36.805 -26.982 -13.872  0.00  0.00    -0.314 N 
ATOM      4  C   UNL     1      37.044 -26.616 -15.181  0.00  0.00    +0.294 C 
ATOM      5  H   UNL     1      37.957 -25.061 -16.170  0.00  0.00    +0.146 HD
ATOM      6  H   UNL     1      37.994 -24.935 -14.470  0.00  0.00    +0.146 HD
ATOM      7  H   UNL     1      36.322 -27.817 -13.675  0.00  0.00    +0.146 HD
ATOM      8  H   UNL     1      37.119 -26.410 -13.136  0.00  0.00    +0.146 HD
ENDROOT
TORSDOF 0
ENDMDL
MODEL 2
REMARK VINA RESULT:      -3.3      0.008      1.624
REMARK  Name = 1176
REMARK  0 active torsions:
REMARK  status: ('A' for Active; 'I' for Inactive)
REMARK                            x       y       z     vdW  Elec       q    Type
REMARK                         _______ _______ _______ _____ _____    ______ ____
ROOT
ATOM      1  O   UNL     1      36.689 -27.288 -16.155  0.00  0.00    -0.253 OA
ATOM      2  N   UNL     1      36.803 -26.989 -13.877  0.00  0.00    -0.314 N 
ATOM      3  N   UNL     1      37.727 -25.428 -15.285  0.00  0.00    -0.314 N 
ATOM      4  C   UNL     1      37.044 -26.623 -15.184  0.00  0.00    +0.294 C 
ATOM      5  H   UNL     1      36.322 -27.825 -13.680  0.00  0.00    +0.146 HD
ATOM      6  H   UNL     1      37.111 -26.414 -13.139  0.00  0.00    +0.146 HD
ATOM      7  H   UNL     1      37.955 -25.065 -16.172  0.00  0.00    +0.146 HD
ATOM      8  H   UNL     1      37.985 -24.938 -14.472  0.00  0.00    +0.146 HD
ENDROOT
TORSDOF 0
ENDMDL
MODEL 3
REMARK VINA RESULT:      -3.2      3.379      3.711
REMARK  Name = 1176
REMARK  0 active torsions:
REMARK  status: ('A' for Active; 'I' for Inactive)
REMARK                            x       y       z     vdW  Elec       q    Type
REMARK                         _______ _______ _______ _____ _____    ______ ____
ROOT
ATOM      1  O   UNL     1      41.168 -26.591 -14.283  0.00  0.00    -0.253 OA
ATOM      2  N   UNL     1      39.135 -25.949 -13.419  0.00  0.00    -0.314 N 
ATOM      3  N   UNL     1      39.798 -25.182 -15.480  0.00  0.00    -0.314 N 
ATOM      4  C   UNL     1      40.119 -25.959 -14.386  0.00  0.00    +0.294 C 
ATOM      5  H   UNL     1      39.253 -26.468 -12.591  0.00  0.00    +0.146 HD
ATOM      6  H   UNL     1      38.314 -25.423 -13.557  0.00  0.00    +0.146 HD
ATOM      7  H   UNL     1      40.426 -25.113 -16.235  0.00  0.00    +0.146 HD
ATOM      8  H   UNL     1      38.941 -24.699 -15.506  0.00  0.00    +0.146 HD
ENDROOT
TORSDOF 0
ENDMDL
MODEL 4
REMARK VINA RESULT:      -3.1     13.412     13.478
REMARK  Name = 1176
REMARK  0 active torsions:
REMARK  status: ('A' for Active; 'I' for Inactive)
REMARK                            x       y       z     vdW  Elec       q    Type
REMARK                         _______ _______ _______ _____ _____    ______ ____
ROOT
ATOM      1  O   UNL     1      40.742 -15.081 -14.600  0.00  0.00    -0.253 OA
ATOM      2  N   UNL     1      40.589 -13.030 -13.570  0.00  0.00    -0.314 N 
ATOM      3  N   UNL     1      41.698 -13.228 -15.571  0.00  0.00    -0.314 N 
ATOM      4  C   UNL     1      40.989 -13.878 -14.582  0.00  0.00    +0.294 C 
ATOM      5  H   UNL     1      40.075 -13.382 -12.808  0.00  0.00    +0.146 HD
ATOM      6  H   UNL     1      40.816 -12.073 -13.610  0.00  0.00    +0.146 HD
ATOM      7  H   UNL     1      42.036 -13.732 -16.346  0.00  0.00    +0.146 HD
ATOM      8  H   UNL     1      41.864 -12.260 -15.503  0.00  0.00    +0.146 HD
ENDROOT
TORSDOF 0
ENDMDL
MODEL 5
REMARK VINA RESULT:      -3.1      5.024      5.088
REMARK  Name = 1176
REMARK  0 active torsions:
REMARK  status: ('A' for Active; 'I' for Inactive)
REMARK                            x       y       z     vdW  Elec       q    Type
REMARK                         _______ _______ _______ _____ _____    ______ ____
ROOT
ATOM      1  O   UNL     1      35.321 -25.055 -10.446  0.00  0.00    -0.253 OA
ATOM      2  N   UNL     1      36.998 -23.549 -10.908  0.00  0.00    -0.314 N 
ATOM      3  N   UNL     1      35.117 -23.612 -12.226  0.00  0.00    -0.314 N 
ATOM      4  C   UNL     1      35.775 -24.146 -11.137  0.00  0.00    +0.294 C 
ATOM      5  H   UNL     1      37.558 -23.848 -10.157  0.00  0.00    +0.146 HD
ATOM      6  H   UNL     1      37.309 -22.823 -11.496  0.00  0.00    +0.146 HD
ATOM      7  H   UNL     1      34.234 -23.960 -12.486  0.00  0.00    +0.146 HD
ATOM      8  H   UNL     1      35.531 -22.883 -12.742  0.00  0.00    +0.146 HD
ENDROOT
TORSDOF 0
ENDMDL
MODEL 6
REMARK VINA RESULT:      -3.0      2.795      3.008
REMARK  Name = 1176
REMARK  0 active torsions:
REMARK  status: ('A' for Active; 'I' for Inactive)
REMARK                            x       y       z     vdW  Elec       q    Type
REMARK                         _______ _______ _______ _____ _____    ______ ____
ROOT
ATOM      1  O   UNL     1      36.786 -26.013 -11.810  0.00  0.00    -0.253 OA
ATOM      2  N   UNL     1      36.763 -26.905 -13.930  0.00  0.00    -0.314 N 
ATOM      3  N   UNL     1      38.683 -25.947 -13.110  0.00  0.00    -0.314 N 
ATOM      4  C   UNL     1      37.364 -26.268 -12.864  0.00  0.00    +0.294 C 
ATOM      5  H   UNL     1      35.821 -27.182 -13.870  0.00  0.00    +0.146 HD
ATOM      6  H   UNL     1      37.278 -27.083 -14.751  0.00  0.00    +0.146 HD
ATOM      7  H   UNL     1      39.215 -25.488 -12.419  0.00  0.00    +0.146 HD
ATOM      8  H   UNL     1      39.092 -26.177 -13.974  0.00  0.00    +0.146 HD
ENDROOT
TORSDOF 0
ENDMDL
MODEL 7
REMARK VINA RESULT:      -2.9     11.591     11.875
REMARK  Name = 1176
REMARK  0 active torsions:
REMARK  status: ('A' for Active; 'I' for Inactive)
REMARK                            x       y       z     vdW  Elec       q    Type
REMARK                         _______ _______ _______ _____ _____    ______ ____
ROOT
ATOM      1  O   UNL     1      42.477 -16.620 -15.785  0.00  0.00    -0.253 OA
ATOM      2  N   UNL     1      40.533 -15.532 -15.211  0.00  0.00    -0.314 N 
ATOM      3  N   UNL     1      41.497 -15.153 -17.261  0.00  0.00    -0.314 N 
ATOM      4  C   UNL     1      41.576 -15.833 -16.063  0.00  0.00    +0.294 C 
ATOM      5  H   UNL     1      40.483 -15.958 -14.326  0.00  0.00    +0.146 HD
ATOM      6  H   UNL     1      39.838 -14.893 -15.490  0.00  0.00    +0.146 HD
ATOM      7  H   UNL     1      42.189 -15.287 -17.950  0.00  0.00    +0.146 HD
ATOM      8  H   UNL     1      40.750 -14.534 -17.428  0.00  0.00    +0.146 HD
ENDROOT
TORSDOF 0
ENDMDL
MODEL 8
REMARK VINA RESULT:      -2.9     22.243     22.462
REMARK  Name = 1176
REMARK  0 active torsions:
REMARK  status: ('A' for Active; 'I' for Inactive)
REMARK                            x       y       z     vdW  Elec       q    Type
REMARK                         _______ _______ _______ _____ _____    ______ ____
ROOT
ATOM      1  O   UNL     1      36.345  -4.695 -10.201  0.00  0.00    -0.253 OA
ATOM      2  N   UNL     1      38.541  -4.097 -10.531  0.00  0.00    -0.314 N 
ATOM      3  N   UNL     1      37.984  -5.503  -8.803  0.00  0.00    -0.314 N 
ATOM      4  C   UNL     1      37.527  -4.760  -9.872  0.00  0.00    +0.294 C 
ATOM      5  H   UNL     1      38.336  -3.534 -11.312  0.00  0.00    +0.146 HD
ATOM      6  H   UNL     1      39.472  -4.188 -10.222  0.00  0.00    +0.146 HD
ATOM      7  H   UNL     1      37.348  -6.020  -8.256  0.00  0.00    +0.146 HD
ATOM      8  H   UNL     1      38.944  -5.518  -8.588  0.00  0.00    +0.146 HD
ENDROOT
TORSDOF 0
ENDMDL
MODEL 9
REMARK VINA RESULT:      -2.9     13.436     13.619
REMARK  Name = 1176
REMARK  0 active torsions:
REMARK  status: ('A' for Active; 'I' for Inactive)
REMARK                            x       y       z     vdW  Elec       q    Type
REMARK                         _______ _______ _______ _____ _____    ______ ____
ROOT
ATOM      1  O   UNL     1      34.714 -16.768 -25.885  0.00  0.00    -0.253 OA
ATOM      2  N   UNL     1      34.579 -18.554 -24.441  0.00  0.00    -0.314 N 
ATOM      3  N   UNL     1      35.415 -16.545 -23.704  0.00  0.00    -0.314 N 
ATOM      4  C   UNL     1      34.889 -17.250 -24.767  0.00  0.00    +0.294 C 
ATOM      5  H   UNL     1      34.196 -19.154 -25.120  0.00  0.00    +0.146 HD
ATOM      6  H   UNL     1      34.740 -18.884 -23.527  0.00  0.00    +0.146 HD
ATOM      7  H   UNL     1      35.674 -15.602 -23.819  0.00  0.00    +0.146 HD
ATOM      8  H   UNL     1      35.530 -16.985 -22.831  0.00  0.00    +0.146 HD
ENDROOT
TORSDOF 0
ENDMDL
