MODEL 1
REMARK VINA RESULT:      -5.4      0.000      0.000
REMARK  Name = 42113
REMARK  3 active torsions:
REMARK  status: ('A' for Active; 'I' for Inactive)
REMARK    1  A    between atoms: C_2  and  C_6
REMARK    2  A    between atoms: C_2  and  O_7
REMARK    3  A    between atoms: O_7  and  C_10
REMARK                            x       y       z     vdW  Elec       q    Type
REMARK                         _______ _______ _______ _____ _____    ______ ____
ROOT
ATOM      1  F   UNL     1      34.702 -19.715 -22.893  0.00  0.00    -0.194 F 
ATOM      2  C   UNL     1      34.539 -19.127 -21.678  0.00  0.00    +0.378 C 
ENDROOT
BRANCH   2   6
ATOM      3  F   UNL     1      36.615 -19.051 -20.576  0.00  0.00    -0.165 F 
ATOM      4  F   UNL     1      35.474 -17.197 -20.702  0.00  0.00    -0.165 F 
ATOM      5  F   UNL     1      36.450 -18.001 -22.483  0.00  0.00    -0.165 F 
ATOM      6  C   UNL     1      35.780 -18.336 -21.360  0.00  0.00    +0.456 C 
ENDBRANCH   2   6
BRANCH   2   7
ATOM      7  O   UNL     1      34.378 -20.154 -20.707  0.00  0.00    -0.264 OA
BRANCH   7  10
ATOM      8  F   UNL     1      32.907 -20.907 -19.172  0.00  0.00    -0.166 F 
ATOM      9  F   UNL     1      32.356 -19.229 -20.445  0.00  0.00    -0.166 F 
ATOM     10  C   UNL     1      33.013 -20.414 -20.429  0.00  0.00    +0.452 C 
ENDBRANCH   7  10
ENDBRANCH   2   7
TORSDOF 3
ENDMDL
MODEL 2
REMARK VINA RESULT:      -5.2      1.855      3.383
REMARK  Name = 42113
REMARK  3 active torsions:
REMARK  status: ('A' for Active; 'I' for Inactive)
REMARK    1  A    between atoms: C_2  and  C_6
REMARK    2  A    between atoms: C_2  and  O_7
REMARK    3  A    between atoms: O_7  and  C_10
REMARK                            x       y       z     vdW  Elec       q    Type
REMARK                         _______ _______ _______ _____ _____    ______ ____
ROOT
ATOM      1  F   UNL     1      35.634 -17.521 -22.698  0.00  0.00    -0.194 F 
ATOM      2  C   UNL     1      35.713 -18.127 -21.483  0.00  0.00    +0.378 C 
ENDROOT
BRANCH   2   6
ATOM      3  F   UNL     1      34.256 -19.505 -22.711  0.00  0.00    -0.165 F 
ATOM      4  F   UNL     1      33.842 -19.244 -20.587  0.00  0.00    -0.165 F 
ATOM      5  F   UNL     1      35.536 -20.466 -21.227  0.00  0.00    -0.165 F 
ATOM      6  C   UNL     1      34.831 -19.348 -21.500  0.00  0.00    +0.456 C 
ENDBRANCH   2   6
BRANCH   2   7
ATOM      7  O   UNL     1      35.232 -17.216 -20.502  0.00  0.00    -0.264 OA
BRANCH   7  10
ATOM      8  F   UNL     1      33.211 -16.340 -20.990  0.00  0.00    -0.166 F 
ATOM      9  F   UNL     1      34.819 -15.021 -20.342  0.00  0.00    -0.166 F 
ATOM     10  C   UNL     1      34.546 -16.122 -21.084  0.00  0.00    +0.452 C 
ENDBRANCH   7  10
ENDBRANCH   2   7
TORSDOF 3
ENDMDL
MODEL 3
REMARK VINA RESULT:      -5.2      8.601      9.607
REMARK  Name = 42113
REMARK  3 active torsions:
REMARK  status: ('A' for Active; 'I' for Inactive)
REMARK    1  A    between atoms: C_2  and  C_6
REMARK    2  A    between atoms: C_2  and  O_7
REMARK    3  A    between atoms: O_7  and  C_10
REMARK                            x       y       z     vdW  Elec       q    Type
REMARK                         _______ _______ _______ _____ _____    ______ ____
ROOT
ATOM      1  F   UNL     1      40.888 -14.226 -18.473  0.00  0.00    -0.194 F 
ATOM      2  C   UNL     1      41.219 -14.542 -17.192  0.00  0.00    +0.378 C 
ENDROOT
BRANCH   2   6
ATOM      3  F   UNL     1      41.861 -12.289 -17.393  0.00  0.00    -0.165 F 
ATOM      4  F   UNL     1      43.233 -13.638 -16.367  0.00  0.00    -0.165 F 
ATOM      5  F   UNL     1      41.376 -13.021 -15.394  0.00  0.00    -0.165 F 
ATOM      6  C   UNL     1      41.928 -13.364 -16.578  0.00  0.00    +0.456 C 
ENDBRANCH   2   6
BRANCH   2   7
ATOM      7  O   UNL     1      42.104 -15.655 -17.225  0.00  0.00    -0.264 OA
BRANCH   7  10
ATOM      8  F   UNL     1      40.671 -16.215 -15.575  0.00  0.00    -0.166 F 
ATOM      9  F   UNL     1      41.328 -17.741 -16.983  0.00  0.00    -0.166 F 
ATOM     10  C   UNL     1      41.738 -16.652 -16.288  0.00  0.00    +0.452 C 
ENDBRANCH   7  10
ENDBRANCH   2   7
TORSDOF 3
ENDMDL
MODEL 4
REMARK VINA RESULT:      -5.2      1.680      2.497
REMARK  Name = 42113
REMARK  3 active torsions:
REMARK  status: ('A' for Active; 'I' for Inactive)
REMARK    1  A    between atoms: C_2  and  C_6
REMARK    2  A    between atoms: C_2  and  O_7
REMARK    3  A    between atoms: O_7  and  C_10
REMARK                            x       y       z     vdW  Elec       q    Type
REMARK                         _______ _______ _______ _____ _____    ______ ____
ROOT
ATOM      1  F   UNL     1      33.537 -19.814 -21.610  0.00  0.00    -0.194 F 
ATOM      2  C   UNL     1      34.463 -18.823 -21.521  0.00  0.00    +0.378 C 
ENDROOT
BRANCH   2   6
ATOM      3  F   UNL     1      36.442 -18.425 -22.727  0.00  0.00    -0.165 F 
ATOM      4  F   UNL     1      34.589 -17.618 -23.542  0.00  0.00    -0.165 F 
ATOM      5  F   UNL     1      34.972 -19.767 -23.623  0.00  0.00    -0.165 F 
ATOM      6  C   UNL     1      35.120 -18.659 -22.866  0.00  0.00    +0.456 C 
ENDBRANCH   2   6
BRANCH   2   7
ATOM      7  O   UNL     1      35.443 -19.217 -20.567  0.00  0.00    -0.264 OA
BRANCH   7  10
ATOM      8  F   UNL     1      36.824 -20.978 -20.288  0.00  0.00    -0.166 F 
ATOM      9  F   UNL     1      34.884 -20.975 -19.299  0.00  0.00    -0.166 F 
ATOM     10  C   UNL     1      35.525 -20.625 -20.441  0.00  0.00    +0.452 C 
ENDBRANCH   7  10
ENDBRANCH   2   7
TORSDOF 3
ENDMDL
MODEL 5
REMARK VINA RESULT:      -5.2      2.143      3.790
REMARK  Name = 42113
REMARK  3 active torsions:
REMARK  status: ('A' for Active; 'I' for Inactive)
REMARK    1  A    between atoms: C_2  and  C_6
REMARK    2  A    between atoms: C_2  and  O_7
REMARK    3  A    between atoms: O_7  and  C_10
REMARK                            x       y       z     vdW  Elec       q    Type
REMARK                         _______ _______ _______ _____ _____    ______ ____
ROOT
ATOM      1  F   UNL     1      33.954 -20.188 -19.879  0.00  0.00    -0.194 F 
ATOM      2  C   UNL     1      35.153 -20.350 -20.500  0.00  0.00    +0.378 C 
ENDROOT
BRANCH   2   6
ATOM      3  F   UNL     1      35.301 -22.613 -19.877  0.00  0.00    -0.165 F 
ATOM      4  F   UNL     1      36.040 -21.130 -18.460  0.00  0.00    -0.165 F 
ATOM      5  F   UNL     1      37.169 -21.557 -20.281  0.00  0.00    -0.165 F 
ATOM      6  C   UNL     1      35.926 -21.420 -19.774  0.00  0.00    +0.456 C 
ENDBRANCH   2   6
BRANCH   2   7
ATOM      7  O   UNL     1      35.864 -19.121 -20.416  0.00  0.00    -0.264 OA
BRANCH   7  10
ATOM      8  F   UNL     1      37.354 -18.572 -22.018  0.00  0.00    -0.166 F 
ATOM      9  F   UNL     1      35.375 -19.276 -22.596  0.00  0.00    -0.166 F 
ATOM     10  C   UNL     1      36.041 -18.522 -21.687  0.00  0.00    +0.452 C 
ENDBRANCH   7  10
ENDBRANCH   2   7
TORSDOF 3
ENDMDL
MODEL 6
REMARK VINA RESULT:      -5.1      2.042      3.497
REMARK  Name = 42113
REMARK  3 active torsions:
REMARK  status: ('A' for Active; 'I' for Inactive)
REMARK    1  A    between atoms: C_2  and  C_6
REMARK    2  A    between atoms: C_2  and  O_7
REMARK    3  A    between atoms: O_7  and  C_10
REMARK                            x       y       z     vdW  Elec       q    Type
REMARK                         _______ _______ _______ _____ _____    ______ ____
ROOT
ATOM      1  F   UNL     1      34.516 -19.330 -20.586  0.00  0.00    -0.194 F 
ATOM      2  C   UNL     1      34.486 -18.213 -21.361  0.00  0.00    +0.378 C 
ENDROOT
BRANCH   2   6
ATOM      3  F   UNL     1      34.616 -17.745 -23.661  0.00  0.00    -0.165 F 
ATOM      4  F   UNL     1      34.880 -19.818 -23.041  0.00  0.00    -0.165 F 
ATOM      5  F   UNL     1      36.455 -18.354 -22.655  0.00  0.00    -0.165 F 
ATOM      6  C   UNL     1      35.118 -18.536 -22.689  0.00  0.00    +0.456 C 
ENDBRANCH   2   6
BRANCH   2   7
ATOM      7  O   UNL     1      35.251 -17.204 -20.712  0.00  0.00    -0.264 OA
BRANCH   7  10
ATOM      8  F   UNL     1      34.956 -15.322 -21.920  0.00  0.00    -0.166 F 
ATOM      9  F   UNL     1      33.277 -16.153 -20.808  0.00  0.00    -0.166 F 
ATOM     10  C   UNL     1      34.615 -15.940 -20.763  0.00  0.00    +0.452 C 
ENDBRANCH   7  10
ENDBRANCH   2   7
TORSDOF 3
ENDMDL
MODEL 7
REMARK VINA RESULT:      -5.1      1.175      2.033
REMARK  Name = 42113
REMARK  3 active torsions:
REMARK  status: ('A' for Active; 'I' for Inactive)
REMARK    1  A    between atoms: C_2  and  C_6
REMARK    2  A    between atoms: C_2  and  O_7
REMARK    3  A    between atoms: O_7  and  C_10
REMARK                            x       y       z     vdW  Elec       q    Type
REMARK                         _______ _______ _______ _____ _____    ______ ____
ROOT
ATOM      1  F   UNL     1      34.987 -17.012 -20.625  0.00  0.00    -0.194 F 
ATOM      2  C   UNL     1      35.091 -18.270 -21.130  0.00  0.00    +0.378 C 
ENDROOT
BRANCH   2   6
ATOM      3  F   UNL     1      35.311 -19.122 -23.310  0.00  0.00    -0.165 F 
ATOM      4  F   UNL     1      37.120 -18.419 -22.318  0.00  0.00    -0.165 F 
ATOM      5  F   UNL     1      35.638 -16.982 -23.030  0.00  0.00    -0.165 F 
ATOM      6  C   UNL     1      35.797 -18.194 -22.458  0.00  0.00    +0.456 C 
ENDBRANCH   2   6
BRANCH   2   7
ATOM      7  O   UNL     1      33.777 -18.778 -21.327  0.00  0.00    -0.264 OA
BRANCH   7  10
ATOM      8  F   UNL     1      34.684 -20.330 -19.964  0.00  0.00    -0.166 F 
ATOM      9  F   UNL     1      32.532 -19.997 -19.921  0.00  0.00    -0.166 F 
ATOM     10  C   UNL     1      33.608 -20.057 -20.742  0.00  0.00    +0.452 C 
ENDBRANCH   7  10
ENDBRANCH   2   7
TORSDOF 3
ENDMDL
MODEL 8
REMARK VINA RESULT:      -5.1      1.939      3.610
REMARK  Name = 42113
REMARK  3 active torsions:
REMARK  status: ('A' for Active; 'I' for Inactive)
REMARK    1  A    between atoms: C_2  and  C_6
REMARK    2  A    between atoms: C_2  and  O_7
REMARK    3  A    between atoms: O_7  and  C_10
REMARK                            x       y       z     vdW  Elec       q    Type
REMARK                         _______ _______ _______ _____ _____    ______ ____
ROOT
ATOM      1  F   UNL     1      33.726 -19.277 -21.546  0.00  0.00    -0.194 F 
ATOM      2  C   UNL     1      34.836 -19.183 -22.325  0.00  0.00    +0.378 C 
ENDROOT
BRANCH   2   6
ATOM      3  F   UNL     1      35.639 -17.602 -20.780  0.00  0.00    -0.165 F 
ATOM      4  F   UNL     1      37.060 -18.409 -22.223  0.00  0.00    -0.165 F 
ATOM      5  F   UNL     1      36.349 -19.656 -20.576  0.00  0.00    -0.165 F 
ATOM      6  C   UNL     1      35.982 -18.712 -21.468  0.00  0.00    +0.456 C 
ENDBRANCH   2   6
BRANCH   2   7
ATOM      7  O   UNL     1      34.584 -18.219 -23.340  0.00  0.00    -0.264 OA
BRANCH   7  10
ATOM      8  F   UNL     1      34.843 -18.022 -25.572  0.00  0.00    -0.166 F 
ATOM      9  F   UNL     1      35.051 -19.980 -24.642  0.00  0.00    -0.166 F 
ATOM     10  C   UNL     1      34.346 -18.823 -24.599  0.00  0.00    +0.452 C 
ENDBRANCH   7  10
ENDBRANCH   2   7
TORSDOF 3
ENDMDL
MODEL 9
REMARK VINA RESULT:      -5.1      1.662      4.114
REMARK  Name = 42113
REMARK  3 active torsions:
REMARK  status: ('A' for Active; 'I' for Inactive)
REMARK    1  A    between atoms: C_2  and  C_6
REMARK    2  A    between atoms: C_2  and  O_7
REMARK    3  A    between atoms: O_7  and  C_10
REMARK                            x       y       z     vdW  Elec       q    Type
REMARK                         _______ _______ _______ _____ _____    ______ ____
ROOT
ATOM      1  F   UNL     1      32.663 -20.252 -19.620  0.00  0.00    -0.194 F 
ATOM      2  C   UNL     1      33.721 -20.999 -20.032  0.00  0.00    +0.378 C 
ENDROOT
BRANCH   2   6
ATOM      3  F   UNL     1      32.836 -22.245 -18.246  0.00  0.00    -0.165 F 
ATOM      4  F   UNL     1      34.997 -21.969 -18.305  0.00  0.00    -0.165 F 
ATOM      5  F   UNL     1      34.030 -23.319 -19.725  0.00  0.00    -0.165 F 
ATOM      6  C   UNL     1      33.899 -22.145 -19.071  0.00  0.00    +0.456 C 
ENDBRANCH   2   6
BRANCH   2   7
ATOM      7  O   UNL     1      34.882 -20.178 -20.002  0.00  0.00    -0.264 OA
BRANCH   7  10
ATOM      8  F   UNL     1      34.161 -19.836 -22.112  0.00  0.00    -0.166 F 
ATOM      9  F   UNL     1      34.494 -18.125 -20.806  0.00  0.00    -0.166 F 
ATOM     10  C   UNL     1      34.974 -19.346 -21.144  0.00  0.00    +0.452 C 
ENDBRANCH   7  10
ENDBRANCH   2   7
TORSDOF 3
ENDMDL
