MODEL 1
REMARK VINA RESULT:      -7.7      0.000      0.000
REMARK  Name = 23497
REMARK  7 active torsions:
REMARK  status: ('A' for Active; 'I' for Inactive)
REMARK    1  A    between atoms: C_1  and  C_2
REMARK    2  A    between atoms: C_1  and  C_12
REMARK    3  A    between atoms: C_5  and  O_8
REMARK    4  A    between atoms: C_7  and  O_10
REMARK    5  A    between atoms: C_12  and  N_13
REMARK    6  A    between atoms: C_12  and  C_18
REMARK    7  A    between atoms: C_18  and  O_19
REMARK                            x       y       z     vdW  Elec       q    Type
REMARK                         _______ _______ _______ _____ _____    ______ ____
ROOT
ATOM      1  C   UNL     1      35.794 -18.616 -21.836  0.00  0.00    +0.015 C 
ENDROOT
BRANCH   1   2
ATOM      2  C   UNL     1      34.986 -19.596 -21.017  0.00  0.00    -0.021 C 
ATOM      3  C   UNL     1      35.643 -20.546 -20.253  0.00  0.00    +0.035 C 
ATOM      4  C   UNL     1      33.602 -19.523 -21.046  0.00  0.00    -0.001 C 
ATOM      5  C   UNL     1      34.897 -21.450 -19.497  0.00  0.00    +0.167 C 
ATOM      6  C   UNL     1      32.856 -20.428 -20.291  0.00  0.00    +0.039 C 
ATOM      7  C   UNL     1      33.503 -21.391 -19.516  0.00  0.00    +0.167 C 
BRANCH   5   8
ATOM      8  O   UNL     1      35.540 -22.385 -18.744  0.00  0.00    -0.503 OA
ATOM      9  H   UNL     1      36.474 -22.371 -18.677  0.00  0.00    +0.292 HD
ENDBRANCH   5   8
BRANCH   7  10
ATOM     10  O   UNL     1      32.763 -22.268 -18.782  0.00  0.00    -0.503 OA
ATOM     11  H   UNL     1      32.980 -23.179 -18.783  0.00  0.00    +0.292 HD
ENDBRANCH   7  10
ENDBRANCH   1   2
BRANCH   1  12
ATOM     12  C   UNL     1      34.924 -17.622 -22.617  0.00  0.00    +0.040 C 
BRANCH  12  13
ATOM     13  N   UNL     1      35.436 -17.490 -23.983  0.00  0.00    +0.389 N 
ATOM     14  H   UNL     1      36.431 -17.714 -23.996  0.00  0.00    -0.088 HD
ATOM     15  H   UNL     1      35.300 -16.531 -24.305  0.00  0.00    -0.088 HD
ATOM     16  H   UNL     1      34.935 -18.130 -24.598  0.00  0.00    -0.088 HD
ENDBRANCH  12  13
BRANCH  12  18
ATOM     17  O   UNL     1      34.979 -16.012 -20.787  0.00  0.00    -0.252 OA
ATOM     18  C   UNL     1      34.978 -16.240 -21.990  0.00  0.00    +0.297 C 
BRANCH  18  19
ATOM     19  O   UNL     1      35.058 -15.298 -22.978  0.00  0.00    -0.446 OA
ATOM     20  C   UNL     1      34.196 -14.166 -22.823  0.00  0.00    +0.256 C 
ENDBRANCH  18  19
ENDBRANCH  12  18
ENDBRANCH   1  12
TORSDOF 7
ENDMDL
MODEL 2
REMARK VINA RESULT:      -7.5      1.489      2.384
REMARK  Name = 23497
REMARK  7 active torsions:
REMARK  status: ('A' for Active; 'I' for Inactive)
REMARK    1  A    between atoms: C_1  and  C_2
REMARK    2  A    between atoms: C_1  and  C_12
REMARK    3  A    between atoms: C_5  and  O_8
REMARK    4  A    between atoms: C_7  and  O_10
REMARK    5  A    between atoms: C_12  and  N_13
REMARK    6  A    between atoms: C_12  and  C_18
REMARK    7  A    between atoms: C_18  and  O_19
REMARK                            x       y       z     vdW  Elec       q    Type
REMARK                         _______ _______ _______ _____ _____    ______ ____
ROOT
ATOM      1  C   UNL     1      34.280 -18.884 -21.878  0.00  0.00    +0.015 C 
ENDROOT
BRANCH   1   2
ATOM      2  C   UNL     1      34.491 -19.955 -20.834  0.00  0.00    -0.021 C 
ATOM      3  C   UNL     1      33.390 -20.550 -20.241  0.00  0.00    +0.035 C 
ATOM      4  C   UNL     1      35.783 -20.322 -20.491  0.00  0.00    -0.001 C 
ATOM      5  C   UNL     1      33.586 -21.539 -19.276  0.00  0.00    +0.167 C 
ATOM      6  C   UNL     1      35.978 -21.309 -19.526  0.00  0.00    +0.039 C 
ATOM      7  C   UNL     1      34.879 -21.919 -18.919  0.00  0.00    +0.167 C 
BRANCH   5   8
ATOM      8  O   UNL     1      32.505 -22.127 -18.691  0.00  0.00    -0.503 OA
ATOM      9  H   UNL     1      32.285 -23.014 -18.899  0.00  0.00    +0.292 HD
ENDBRANCH   5   8
BRANCH   7  10
ATOM     10  O   UNL     1      35.083 -22.883 -17.979  0.00  0.00    -0.503 OA
ATOM     11  H   UNL     1      34.417 -23.070 -17.348  0.00  0.00    +0.292 HD
ENDBRANCH   7  10
ENDBRANCH   1   2
BRANCH   1  12
ATOM     12  C   UNL     1      35.308 -17.748 -21.792  0.00  0.00    +0.040 C 
BRANCH  12  13
ATOM     13  N   UNL     1      34.996 -16.892 -20.645  0.00  0.00    +0.389 N 
ATOM     14  H   UNL     1      35.451 -17.263 -19.811  0.00  0.00    -0.088 HD
ATOM     15  H   UNL     1      33.987 -16.871 -20.501  0.00  0.00    -0.088 HD
ATOM     16  H   UNL     1      35.334 -15.946 -20.824  0.00  0.00    -0.088 HD
ENDBRANCH  12  13
BRANCH  12  18
ATOM     17  O   UNL     1      35.318 -15.643 -23.023  0.00  0.00    -0.252 OA
ATOM     18  C   UNL     1      35.252 -16.866 -23.027  0.00  0.00    +0.297 C 
BRANCH  18  19
ATOM     19  O   UNL     1      35.150 -17.653 -24.140  0.00  0.00    -0.446 OA
ATOM     20  C   UNL     1      34.434 -17.079 -25.239  0.00  0.00    +0.256 C 
ENDBRANCH  18  19
ENDBRANCH  12  18
ENDBRANCH   1  12
TORSDOF 7
ENDMDL
MODEL 3
REMARK VINA RESULT:      -7.3      0.856      1.796
REMARK  Name = 23497
REMARK  7 active torsions:
REMARK  status: ('A' for Active; 'I' for Inactive)
REMARK    1  A    between atoms: C_1  and  C_2
REMARK    2  A    between atoms: C_1  and  C_12
REMARK    3  A    between atoms: C_5  and  O_8
REMARK    4  A    between atoms: C_7  and  O_10
REMARK    5  A    between atoms: C_12  and  N_13
REMARK    6  A    between atoms: C_12  and  C_18
REMARK    7  A    between atoms: C_18  and  O_19
REMARK                            x       y       z     vdW  Elec       q    Type
REMARK                         _______ _______ _______ _____ _____    ______ ____
ROOT
ATOM      1  C   UNL     1      36.339 -18.684 -21.504  0.00  0.00    +0.015 C 
ENDROOT
BRANCH   1   2
ATOM      2  C   UNL     1      35.832 -19.824 -20.651  0.00  0.00    -0.021 C 
ATOM      3  C   UNL     1      34.479 -20.122 -20.653  0.00  0.00    +0.035 C 
ATOM      4  C   UNL     1      36.731 -20.549 -19.885  0.00  0.00    -0.001 C 
ATOM      5  C   UNL     1      34.012 -21.175 -19.865  0.00  0.00    +0.167 C 
ATOM      6  C   UNL     1      36.264 -21.600 -19.097  0.00  0.00    +0.039 C 
ATOM      7  C   UNL     1      34.904 -21.913 -19.087  0.00  0.00    +0.167 C 
BRANCH   5   8
ATOM      8  O   UNL     1      32.683 -21.472 -19.865  0.00  0.00    -0.503 OA
ATOM      9  H   UNL     1      32.386 -22.294 -20.202  0.00  0.00    +0.292 HD
ENDBRANCH   5   8
BRANCH   7  10
ATOM     10  O   UNL     1      34.460 -22.944 -18.315  0.00  0.00    -0.503 OA
ATOM     11  H   UNL     1      34.912 -23.165 -17.524  0.00  0.00    +0.292 HD
ENDBRANCH   7  10
ENDBRANCH   1   2
BRANCH   1  12
ATOM     12  C   UNL     1      35.213 -17.894 -22.185  0.00  0.00    +0.040 C 
BRANCH  12  13
ATOM     13  N   UNL     1      35.532 -17.708 -23.602  0.00  0.00    +0.389 N 
ATOM     14  H   UNL     1      36.283 -17.025 -23.694  0.00  0.00    -0.088 HD
ATOM     15  H   UNL     1      34.705 -17.372 -24.095  0.00  0.00    -0.088 HD
ATOM     16  H   UNL     1      35.830 -18.597 -24.004  0.00  0.00    -0.088 HD
ENDBRANCH  12  13
BRANCH  12  18
ATOM     17  O   UNL     1      34.998 -16.269 -20.380  0.00  0.00    -0.252 OA
ATOM     18  C   UNL     1      35.075 -16.508 -21.579  0.00  0.00    +0.297 C 
BRANCH  18  19
ATOM     19  O   UNL     1      35.083 -15.575 -22.577  0.00  0.00    -0.446 OA
ATOM     20  C   UNL     1      34.265 -14.422 -22.352  0.00  0.00    +0.256 C 
ENDBRANCH  18  19
ENDBRANCH  12  18
ENDBRANCH   1  12
TORSDOF 7
ENDMDL
MODEL 4
REMARK VINA RESULT:      -7.1      1.656      2.095
REMARK  Name = 23497
REMARK  7 active torsions:
REMARK  status: ('A' for Active; 'I' for Inactive)
REMARK    1  A    between atoms: C_1  and  C_2
REMARK    2  A    between atoms: C_1  and  C_12
REMARK    3  A    between atoms: C_5  and  O_8
REMARK    4  A    between atoms: C_7  and  O_10
REMARK    5  A    between atoms: C_12  and  N_13
REMARK    6  A    between atoms: C_12  and  C_18
REMARK    7  A    between atoms: C_18  and  O_19
REMARK                            x       y       z     vdW  Elec       q    Type
REMARK                         _______ _______ _______ _____ _____    ______ ____
ROOT
ATOM      1  C   UNL     1      34.142 -18.968 -21.745  0.00  0.00    +0.015 C 
ENDROOT
BRANCH   1   2
ATOM      2  C   UNL     1      34.296 -20.045 -20.696  0.00  0.00    -0.021 C 
ATOM      3  C   UNL     1      35.564 -20.398 -20.267  0.00  0.00    +0.035 C 
ATOM      4  C   UNL     1      33.163 -20.658 -20.185  0.00  0.00    -0.001 C 
ATOM      5  C   UNL     1      35.706 -21.393 -19.299  0.00  0.00    +0.167 C 
ATOM      6  C   UNL     1      33.304 -21.653 -19.218  0.00  0.00    +0.039 C 
ATOM      7  C   UNL     1      34.575 -22.021 -18.775  0.00  0.00    +0.167 C 
BRANCH   5   8
ATOM      8  O   UNL     1      36.951 -21.741 -18.874  0.00  0.00    -0.503 OA
ATOM      9  H   UNL     1      37.498 -21.106 -18.455  0.00  0.00    +0.292 HD
ENDBRANCH   5   8
BRANCH   7  10
ATOM     10  O   UNL     1      34.700 -22.993 -17.829  0.00  0.00    -0.503 OA
ATOM     11  H   UNL     1      35.538 -23.175 -17.452  0.00  0.00    +0.292 HD
ENDBRANCH   7  10
ENDBRANCH   1   2
BRANCH   1  12
ATOM     12  C   UNL     1      35.288 -17.947 -21.733  0.00  0.00    +0.040 C 
BRANCH  12  13
ATOM     13  N   UNL     1      35.069 -16.976 -20.659  0.00  0.00    +0.389 N 
ATOM     14  H   UNL     1      35.778 -17.101 -19.937  0.00  0.00    -0.088 HD
ATOM     15  H   UNL     1      34.144 -17.120 -20.254  0.00  0.00    -0.088 HD
ATOM     16  H   UNL     1      35.131 -16.031 -21.037  0.00  0.00    -0.088 HD
ENDBRANCH  12  13
BRANCH  12  18
ATOM     17  O   UNL     1      35.419 -15.945 -23.117  0.00  0.00    -0.252 OA
ATOM     18  C   UNL     1      35.336 -17.164 -23.033  0.00  0.00    +0.297 C 
BRANCH  18  19
ATOM     19  O   UNL     1      35.303 -18.034 -24.087  0.00  0.00    -0.446 OA
ATOM     20  C   UNL     1      34.474 -17.642 -25.186  0.00  0.00    +0.256 C 
ENDBRANCH  18  19
ENDBRANCH  12  18
ENDBRANCH   1  12
TORSDOF 7
ENDMDL
MODEL 5
REMARK VINA RESULT:      -7.1      1.985      6.115
REMARK  Name = 23497
REMARK  7 active torsions:
REMARK  status: ('A' for Active; 'I' for Inactive)
REMARK    1  A    between atoms: C_1  and  C_2
REMARK    2  A    between atoms: C_1  and  C_12
REMARK    3  A    between atoms: C_5  and  O_8
REMARK    4  A    between atoms: C_7  and  O_10
REMARK    5  A    between atoms: C_12  and  N_13
REMARK    6  A    between atoms: C_12  and  C_18
REMARK    7  A    between atoms: C_18  and  O_19
REMARK                            x       y       z     vdW  Elec       q    Type
REMARK                         _______ _______ _______ _____ _____    ______ ____
ROOT
ATOM      1  C   UNL     1      35.023 -19.415 -20.922  0.00  0.00    +0.015 C 
ENDROOT
BRANCH   1   2
ATOM      2  C   UNL     1      34.935 -18.665 -22.231  0.00  0.00    -0.021 C 
ATOM      3  C   UNL     1      35.041 -17.284 -22.230  0.00  0.00    +0.035 C 
ATOM      4  C   UNL     1      34.752 -19.375 -23.407  0.00  0.00    -0.001 C 
ATOM      5  C   UNL     1      34.959 -16.593 -23.439  0.00  0.00    +0.167 C 
ATOM      6  C   UNL     1      34.670 -18.684 -24.615  0.00  0.00    +0.039 C 
ATOM      7  C   UNL     1      34.774 -17.292 -24.632  0.00  0.00    +0.167 C 
BRANCH   5   8
ATOM      8  O   UNL     1      35.064 -15.235 -23.442  0.00  0.00    -0.503 OA
ATOM      9  H   UNL     1      35.903 -14.829 -23.541  0.00  0.00    +0.292 HD
ENDBRANCH   5   8
BRANCH   7  10
ATOM     10  O   UNL     1      34.693 -16.628 -25.818  0.00  0.00    -0.503 OA
ATOM     11  H   UNL     1      35.434 -16.154 -26.140  0.00  0.00    +0.292 HD
ENDBRANCH   7  10
ENDBRANCH   1   2
BRANCH   1  12
ATOM     12  C   UNL     1      33.905 -20.451 -20.745  0.00  0.00    +0.040 C 
BRANCH  12  13
ATOM     13  N   UNL     1      32.654 -19.769 -20.407  0.00  0.00    +0.389 N 
ATOM     14  H   UNL     1      31.959 -20.458 -20.118  0.00  0.00    -0.088 HD
ATOM     15  H   UNL     1      32.311 -19.263 -21.223  0.00  0.00    -0.088 HD
ATOM     16  H   UNL     1      32.819 -19.112 -19.645  0.00  0.00    -0.088 HD
ENDBRANCH  12  13
BRANCH  12  18
ATOM     17  O   UNL     1      35.318 -21.548 -19.088  0.00  0.00    -0.252 OA
ATOM     18  C   UNL     1      34.215 -21.398 -19.599  0.00  0.00    +0.297 C 
BRANCH  18  19
ATOM     19  O   UNL     1      33.066 -22.028 -19.209  0.00  0.00    -0.446 OA
ATOM     20  C   UNL     1      33.173 -22.835 -18.032  0.00  0.00    +0.256 C 
ENDBRANCH  18  19
ENDBRANCH  12  18
ENDBRANCH   1  12
TORSDOF 7
ENDMDL
MODEL 6
REMARK VINA RESULT:      -6.8      2.134      6.067
REMARK  Name = 23497
REMARK  7 active torsions:
REMARK  status: ('A' for Active; 'I' for Inactive)
REMARK    1  A    between atoms: C_1  and  C_2
REMARK    2  A    between atoms: C_1  and  C_12
REMARK    3  A    between atoms: C_5  and  O_8
REMARK    4  A    between atoms: C_7  and  O_10
REMARK    5  A    between atoms: C_12  and  N_13
REMARK    6  A    between atoms: C_12  and  C_18
REMARK    7  A    between atoms: C_18  and  O_19
REMARK                            x       y       z     vdW  Elec       q    Type
REMARK                         _______ _______ _______ _____ _____    ______ ____
ROOT
ATOM      1  C   UNL     1      35.055 -20.073 -20.421  0.00  0.00    +0.015 C 
ENDROOT
BRANCH   1   2
ATOM      2  C   UNL     1      34.959 -18.996 -21.477  0.00  0.00    -0.021 C 
ATOM      3  C   UNL     1      34.765 -19.359 -22.799  0.00  0.00    +0.035 C 
ATOM      4  C   UNL     1      35.066 -17.667 -21.100  0.00  0.00    -0.001 C 
ATOM      5  C   UNL     1      34.677 -18.364 -23.774  0.00  0.00    +0.167 C 
ATOM      6  C   UNL     1      34.978 -16.673 -22.074  0.00  0.00    +0.039 C 
ATOM      7  C   UNL     1      34.784 -17.021 -23.411  0.00  0.00    +0.167 C 
BRANCH   5   8
ATOM      8  O   UNL     1      34.485 -18.716 -25.075  0.00  0.00    -0.503 OA
ATOM      9  H   UNL     1      33.630 -18.952 -25.376  0.00  0.00    +0.292 HD
ENDBRANCH   5   8
BRANCH   7  10
ATOM     10  O   UNL     1      34.698 -16.041 -24.353  0.00  0.00    -0.503 OA
ATOM     11  H   UNL     1      34.385 -16.243 -25.212  0.00  0.00    +0.292 HD
ENDBRANCH   7  10
ENDBRANCH   1   2
BRANCH   1  12
ATOM     12  C   UNL     1      33.825 -20.990 -20.382  0.00  0.00    +0.040 C 
BRANCH  12  13
ATOM     13  N   UNL     1      32.647 -20.215 -19.988  0.00  0.00    +0.389 N 
ATOM     14  H   UNL     1      32.033 -20.097 -20.793  0.00  0.00    -0.088 HD
ATOM     15  H   UNL     1      32.941 -19.299 -19.648  0.00  0.00    -0.088 HD
ATOM     16  H   UNL     1      32.147 -20.708 -19.248  0.00  0.00    -0.088 HD
ENDBRANCH  12  13
BRANCH  12  18
ATOM     17  O   UNL     1      35.055 -22.641 -19.076  0.00  0.00    -0.252 OA
ATOM     18  C   UNL     1      33.997 -22.089 -19.348  0.00  0.00    +0.297 C 
BRANCH  18  19
ATOM     19  O   UNL     1      32.793 -22.338 -18.749  0.00  0.00    -0.446 OA
ATOM     20  C   UNL     1      32.858 -23.019 -17.491  0.00  0.00    +0.256 C 
ENDBRANCH  18  19
ENDBRANCH  12  18
ENDBRANCH   1  12
TORSDOF 7
ENDMDL
MODEL 7
REMARK VINA RESULT:      -6.8      1.882      6.106
REMARK  Name = 23497
REMARK  7 active torsions:
REMARK  status: ('A' for Active; 'I' for Inactive)
REMARK    1  A    between atoms: C_1  and  C_2
REMARK    2  A    between atoms: C_1  and  C_12
REMARK    3  A    between atoms: C_5  and  O_8
REMARK    4  A    between atoms: C_7  and  O_10
REMARK    5  A    between atoms: C_12  and  N_13
REMARK    6  A    between atoms: C_12  and  C_18
REMARK    7  A    between atoms: C_18  and  O_19
REMARK                            x       y       z     vdW  Elec       q    Type
REMARK                         _______ _______ _______ _____ _____    ______ ____
ROOT
ATOM      1  C   UNL     1      33.707 -20.431 -20.848  0.00  0.00    +0.015 C 
ENDROOT
BRANCH   1   2
ATOM      2  C   UNL     1      34.247 -19.239 -21.603  0.00  0.00    -0.021 C 
ATOM      3  C   UNL     1      34.285 -18.002 -20.980  0.00  0.00    +0.035 C 
ATOM      4  C   UNL     1      34.694 -19.407 -22.903  0.00  0.00    -0.001 C 
ATOM      5  C   UNL     1      34.783 -16.901 -21.678  0.00  0.00    +0.167 C 
ATOM      6  C   UNL     1      35.191 -18.307 -23.601  0.00  0.00    +0.039 C 
ATOM      7  C   UNL     1      35.236 -17.054 -22.988  0.00  0.00    +0.167 C 
BRANCH   5   8
ATOM      8  O   UNL     1      34.823 -15.684 -21.069  0.00  0.00    -0.503 OA
ATOM      9  H   UNL     1      34.029 -15.274 -20.789  0.00  0.00    +0.292 HD
ENDBRANCH   5   8
BRANCH   7  10
ATOM     10  O   UNL     1      35.726 -15.987 -23.680  0.00  0.00    -0.503 OA
ATOM     11  H   UNL     1      36.532 -16.065 -24.151  0.00  0.00    +0.292 HD
ENDBRANCH   7  10
ENDBRANCH   1   2
BRANCH   1  12
ATOM     12  C   UNL     1      34.643 -20.912 -19.731  0.00  0.00    +0.040 C 
BRANCH  12  13
ATOM     13  N   UNL     1      35.875 -21.445 -20.319  0.00  0.00    +0.389 N 
ATOM     14  H   UNL     1      35.691 -21.746 -21.276  0.00  0.00    -0.088 HD
ATOM     15  H   UNL     1      36.198 -22.240 -19.768  0.00  0.00    -0.088 HD
ATOM     16  H   UNL     1      36.591 -20.720 -20.323  0.00  0.00    -0.088 HD
ENDBRANCH  12  13
BRANCH  12  18
ATOM     17  O   UNL     1      32.851 -22.417 -19.049  0.00  0.00    -0.252 OA
ATOM     18  C   UNL     1      34.011 -22.041 -18.936  0.00  0.00    +0.297 C 
BRANCH  18  19
ATOM     19  O   UNL     1      34.946 -22.587 -18.103  0.00  0.00    -0.446 OA
ATOM     20  C   UNL     1      34.451 -23.067 -16.848  0.00  0.00    +0.256 C 
ENDBRANCH  18  19
ENDBRANCH  12  18
ENDBRANCH   1  12
TORSDOF 7
ENDMDL
MODEL 8
REMARK VINA RESULT:      -6.7      2.119      6.224
REMARK  Name = 23497
REMARK  7 active torsions:
REMARK  status: ('A' for Active; 'I' for Inactive)
REMARK    1  A    between atoms: C_1  and  C_2
REMARK    2  A    between atoms: C_1  and  C_12
REMARK    3  A    between atoms: C_5  and  O_8
REMARK    4  A    between atoms: C_7  and  O_10
REMARK    5  A    between atoms: C_12  and  N_13
REMARK    6  A    between atoms: C_12  and  C_18
REMARK    7  A    between atoms: C_18  and  O_19
REMARK                            x       y       z     vdW  Elec       q    Type
REMARK                         _______ _______ _______ _____ _____    ______ ____
ROOT
ATOM      1  C   UNL     1      35.255 -18.889 -22.510  0.00  0.00    +0.015 C 
ENDROOT
BRANCH   1   2
ATOM      2  C   UNL     1      34.839 -17.534 -23.033  0.00  0.00    -0.021 C 
ATOM      3  C   UNL     1      34.557 -17.384 -24.381  0.00  0.00    +0.035 C 
ATOM      4  C   UNL     1      34.746 -16.468 -22.153  0.00  0.00    -0.001 C 
ATOM      5  C   UNL     1      34.174 -16.133 -24.863  0.00  0.00    +0.167 C 
ATOM      6  C   UNL     1      34.364 -15.217 -22.635  0.00  0.00    +0.039 C 
ATOM      7  C   UNL     1      34.077 -15.049 -23.990  0.00  0.00    +0.167 C 
BRANCH   5   8
ATOM      8  O   UNL     1      33.895 -15.982 -26.188  0.00  0.00    -0.503 OA
ATOM      9  H   UNL     1      34.242 -16.589 -26.812  0.00  0.00    +0.292 HD
ENDBRANCH   5   8
BRANCH   7  10
ATOM     10  O   UNL     1      33.702 -13.822 -24.449  0.00  0.00    -0.503 OA
ATOM     11  H   UNL     1      33.458 -13.713 -25.346  0.00  0.00    +0.292 HD
ENDBRANCH   7  10
ENDBRANCH   1   2
BRANCH   1  12
ATOM     12  C   UNL     1      35.080 -19.029 -20.992  0.00  0.00    +0.040 C 
BRANCH  12  13
ATOM     13  N   UNL     1      36.323 -19.527 -20.399  0.00  0.00    +0.389 N 
ATOM     14  H   UNL     1      36.296 -19.390 -19.389  0.00  0.00    -0.088 HD
ATOM     15  H   UNL     1      37.114 -19.017 -20.790  0.00  0.00    -0.088 HD
ATOM     16  H   UNL     1      36.424 -20.521 -20.604  0.00  0.00    -0.088 HD
ENDBRANCH  12  13
BRANCH  12  18
ATOM     17  O   UNL     1      32.822 -19.948 -20.992  0.00  0.00    -0.252 OA
ATOM     18  C   UNL     1      33.996 -20.039 -20.658  0.00  0.00    +0.297 C 
BRANCH  18  19
ATOM     19  O   UNL     1      34.545 -21.077 -19.957  0.00  0.00    -0.446 OA
ATOM     20  C   UNL     1      33.620 -21.879 -19.215  0.00  0.00    +0.256 C 
ENDBRANCH  18  19
ENDBRANCH  12  18
ENDBRANCH   1  12
TORSDOF 7
ENDMDL
MODEL 9
REMARK VINA RESULT:      -6.7      1.358      2.373
REMARK  Name = 23497
REMARK  7 active torsions:
REMARK  status: ('A' for Active; 'I' for Inactive)
REMARK    1  A    between atoms: C_1  and  C_2
REMARK    2  A    between atoms: C_1  and  C_12
REMARK    3  A    between atoms: C_5  and  O_8
REMARK    4  A    between atoms: C_7  and  O_10
REMARK    5  A    between atoms: C_12  and  N_13
REMARK    6  A    between atoms: C_12  and  C_18
REMARK    7  A    between atoms: C_18  and  O_19
REMARK                            x       y       z     vdW  Elec       q    Type
REMARK                         _______ _______ _______ _____ _____    ______ ____
ROOT
ATOM      1  C   UNL     1      35.292 -16.930 -21.847  0.00  0.00    +0.015 C 
ENDROOT
BRANCH   1   2
ATOM      2  C   UNL     1      35.182 -18.315 -21.254  0.00  0.00    -0.021 C 
ATOM      3  C   UNL     1      33.931 -18.883 -21.084  0.00  0.00    +0.035 C 
ATOM      4  C   UNL     1      36.337 -18.991 -20.893  0.00  0.00    -0.001 C 
ATOM      5  C   UNL     1      33.830 -20.162 -20.536  0.00  0.00    +0.167 C 
ATOM      6  C   UNL     1      36.236 -20.268 -20.344  0.00  0.00    +0.039 C 
ATOM      7  C   UNL     1      34.983 -20.855 -20.166  0.00  0.00    +0.167 C 
BRANCH   5   8
ATOM      8  O   UNL     1      32.600 -20.723 -20.368  0.00  0.00    -0.503 OA
ATOM      9  H   UNL     1      31.828 -20.215 -20.521  0.00  0.00    +0.292 HD
ENDBRANCH   5   8
BRANCH   7  10
ATOM     10  O   UNL     1      34.897 -22.104 -19.630  0.00  0.00    -0.503 OA
ATOM     11  H   UNL     1      35.490 -22.774 -19.909  0.00  0.00    +0.292 HD
ENDBRANCH   7  10
ENDBRANCH   1   2
BRANCH   1  12
ATOM     12  C   UNL     1      34.468 -16.756 -23.130  0.00  0.00    +0.040 C 
BRANCH  12  13
ATOM     13  N   UNL     1      35.346 -16.867 -24.297  0.00  0.00    +0.389 N 
ATOM     14  H   UNL     1      35.762 -15.958 -24.496  0.00  0.00    -0.088 HD
ATOM     15  H   UNL     1      34.803 -17.176 -25.103  0.00  0.00    -0.088 HD
ATOM     16  H   UNL     1      36.084 -17.544 -24.104  0.00  0.00    -0.088 HD
ENDBRANCH  12  13
BRANCH  12  18
ATOM     17  O   UNL     1      34.096 -14.515 -24.013  0.00  0.00    -0.252 OA
ATOM     18  C   UNL     1      33.831 -15.379 -23.187  0.00  0.00    +0.297 C 
BRANCH  18  19
ATOM     19  O   UNL     1      32.897 -15.270 -22.195  0.00  0.00    -0.446 OA
ATOM     20  C   UNL     1      32.410 -13.947 -21.946  0.00  0.00    +0.256 C 
ENDBRANCH  18  19
ENDBRANCH  12  18
ENDBRANCH   1  12
TORSDOF 7
ENDMDL
