MODEL 1
REMARK VINA RESULT:      -9.5      0.000      0.000
REMARK  Name = 185457
REMARK  11 active torsions:
REMARK  status: ('A' for Active; 'I' for Inactive)
REMARK    1  A    between atoms: C_1  and  C_4
REMARK    2  A    between atoms: C_1  and  N_17
REMARK    3  A    between atoms: N_3  and  C_6
REMARK    4  A    between atoms: C_6  and  C_9
REMARK    5  A    between atoms: N_8  and  C_11
REMARK    6  A    between atoms: C_11  and  C_13
REMARK    7  A    between atoms: C_13  and  O_14
REMARK    8  A    between atoms: C_18  and  C_20
REMARK    9  A    between atoms: C_20  and  S_21
REMARK   10  A    between atoms: S_21  and  C_23
REMARK   11  A    between atoms: C_23  and  C_24
REMARK                            x       y       z     vdW  Elec       q    Type
REMARK                         _______ _______ _______ _____ _____    ______ ____
ROOT
ATOM      1  C   UNL     1      35.422 -22.176 -19.152  0.00  0.00    +0.176 C 
ENDROOT
BRANCH   1   4
ATOM      2  O   UNL     1      37.029 -20.595 -18.283  0.00  0.00    -0.273 OA
ATOM      3  N   UNL     1      36.434 -22.434 -16.992  0.00  0.00    -0.295 N 
ATOM      4  C   UNL     1      36.373 -21.619 -18.114  0.00  0.00    +0.243 C 
ATOM      5  H   UNL     1      35.860 -23.233 -16.963  0.00  0.00    +0.150 HD
BRANCH   3   6
ATOM      6  C   UNL     1      37.299 -22.168 -15.866  0.00  0.00    +0.176 C 
BRANCH   6   9
ATOM      7  O   UNL     1      36.597 -23.541 -14.006  0.00  0.00    -0.273 OA
ATOM      8  N   UNL     1      38.366 -24.252 -15.334  0.00  0.00    -0.294 N 
ATOM      9  C   UNL     1      37.347 -23.385 -14.965  0.00  0.00    +0.243 C 
ATOM     10  H   UNL     1      38.908 -24.026 -16.125  0.00  0.00    +0.150 HD
BRANCH   8  11
ATOM     11  C   UNL     1      38.671 -25.468 -14.617  0.00  0.00    +0.200 C 
BRANCH  11  13
ATOM     12  O   UNL     1      40.832 -26.242 -13.891  0.00  0.00    -0.248 OA
ATOM     13  C   UNL     1      40.093 -25.927 -14.816  0.00  0.00    +0.334 C 
BRANCH  13  14
ATOM     14  O   UNL     1      40.476 -25.954 -16.114  0.00  0.00    -0.479 OA
ATOM     15  H   UNL     1      40.125 -26.602 -16.692  0.00  0.00    +0.295 HD
ENDBRANCH  13  14
ENDBRANCH  11  13
ENDBRANCH   8  11
ENDBRANCH   6   9
ENDBRANCH   3   6
ENDBRANCH   1   4
BRANCH   1  17
ATOM     16  O   UNL     1      32.595 -21.573 -19.304  0.00  0.00    -0.274 OA
ATOM     17  N   UNL     1      34.802 -21.097 -19.862  0.00  0.00    -0.296 N 
ATOM     18  C   UNL     1      33.427 -20.877 -19.883  0.00  0.00    +0.234 C 
ATOM     19  H   UNL     1      35.379 -20.476 -20.363  0.00  0.00    +0.150 HD
BRANCH  18  20
ATOM     20  C   UNL     1      33.023 -19.684 -20.717  0.00  0.00    +0.150 C 
BRANCH  20  21
ATOM     21  S   UNL     1      34.243 -19.450 -22.032  0.00  0.00    -0.063 S 
BRANCH  21  23
ATOM     22  O   UNL     1      36.136 -18.360 -20.569  0.00  0.00    -0.280 OA
ATOM     23  C   UNL     1      35.213 -18.148 -21.346  0.00  0.00    +0.222 C 
BRANCH  23  24
ATOM     24  C   UNL     1      34.851 -16.756 -21.716  0.00  0.00    +0.045 C 
ATOM     25  C   UNL     1      34.495 -15.842 -20.724  0.00  0.00    +0.004 C 
ATOM     26  C   UNL     1      34.867 -16.363 -23.055  0.00  0.00    +0.004 C 
ATOM     27  C   UNL     1      34.154 -14.535 -21.072  0.00  0.00    +0.000 C 
ATOM     28  C   UNL     1      34.527 -15.055 -23.401  0.00  0.00    +0.000 C 
ATOM     29  C   UNL     1      34.171 -14.141 -22.409  0.00  0.00    +0.000 C 
ENDBRANCH  23  24
ENDBRANCH  21  23
ENDBRANCH  20  21
ENDBRANCH  18  20
ENDBRANCH   1  17
TORSDOF 11
ENDMDL
MODEL 2
REMARK VINA RESULT:      -9.4      1.600      1.941
REMARK  Name = 185457
REMARK  11 active torsions:
REMARK  status: ('A' for Active; 'I' for Inactive)
REMARK    1  A    between atoms: C_1  and  C_4
REMARK    2  A    between atoms: C_1  and  N_17
REMARK    3  A    between atoms: N_3  and  C_6
REMARK    4  A    between atoms: C_6  and  C_9
REMARK    5  A    between atoms: N_8  and  C_11
REMARK    6  A    between atoms: C_11  and  C_13
REMARK    7  A    between atoms: C_13  and  O_14
REMARK    8  A    between atoms: C_18  and  C_20
REMARK    9  A    between atoms: C_20  and  S_21
REMARK   10  A    between atoms: S_21  and  C_23
REMARK   11  A    between atoms: C_23  and  C_24
REMARK                            x       y       z     vdW  Elec       q    Type
REMARK                         _______ _______ _______ _____ _____    ______ ____
ROOT
ATOM      1  C   UNL     1      35.229 -22.012 -18.989  0.00  0.00    +0.176 C 
ENDROOT
BRANCH   1   4
ATOM      2  O   UNL     1      37.044 -20.595 -18.256  0.00  0.00    -0.273 OA
ATOM      3  N   UNL     1      36.425 -22.413 -16.948  0.00  0.00    -0.295 N 
ATOM      4  C   UNL     1      36.323 -21.565 -18.041  0.00  0.00    +0.243 C 
ATOM      5  H   UNL     1      35.790 -23.162 -16.876  0.00  0.00    +0.150 HD
BRANCH   3   6
ATOM      6  C   UNL     1      37.417 -22.252 -15.910  0.00  0.00    +0.176 C 
BRANCH   6   9
ATOM      7  O   UNL     1      37.784 -23.341 -13.785  0.00  0.00    -0.273 OA
ATOM      8  N   UNL     1      36.603 -24.462 -15.443  0.00  0.00    -0.294 N 
ATOM      9  C   UNL     1      37.291 -23.381 -14.908  0.00  0.00    +0.243 C 
ATOM     10  H   UNL     1      36.249 -24.383 -16.358  0.00  0.00    +0.150 HD
BRANCH   8  11
ATOM     11  C   UNL     1      36.380 -25.694 -14.723  0.00  0.00    +0.200 C 
BRANCH  11  13
ATOM     12  O   UNL     1      38.244 -27.215 -14.631  0.00  0.00    -0.248 OA
ATOM     13  C   UNL     1      37.242 -26.827 -15.218  0.00  0.00    +0.334 C 
BRANCH  13  14
ATOM     14  O   UNL     1      36.804 -27.373 -16.377  0.00  0.00    -0.479 OA
ATOM     15  H   UNL     1      36.317 -28.173 -16.362  0.00  0.00    +0.295 HD
ENDBRANCH  13  14
ENDBRANCH  11  13
ENDBRANCH   8  11
ENDBRANCH   6   9
ENDBRANCH   3   6
ENDBRANCH   1   4
BRANCH   1  17
ATOM     16  O   UNL     1      32.707 -20.740 -19.618  0.00  0.00    -0.274 OA
ATOM     17  N   UNL     1      34.993 -20.989 -19.964  0.00  0.00    -0.296 N 
ATOM     18  C   UNL     1      33.741 -20.429 -20.205  0.00  0.00    +0.234 C 
ATOM     19  H   UNL     1      35.757 -20.665 -20.493  0.00  0.00    +0.150 HD
BRANCH  18  20
ATOM     20  C   UNL     1      33.753 -19.382 -21.294  0.00  0.00    +0.150 C 
BRANCH  20  21
ATOM     21  S   UNL     1      35.402 -18.642 -21.377  0.00  0.00    -0.063 S 
BRANCH  21  23
ATOM     22  O   UNL     1      35.008 -16.154 -20.624  0.00  0.00    -0.280 OA
ATOM     23  C   UNL     1      34.984 -16.940 -21.563  0.00  0.00    +0.222 C 
BRANCH  23  24
ATOM     24  C   UNL     1      34.558 -16.483 -22.911  0.00  0.00    +0.045 C 
ATOM     25  C   UNL     1      33.848 -15.289 -23.049  0.00  0.00    +0.004 C 
ATOM     26  C   UNL     1      34.867 -17.245 -24.037  0.00  0.00    +0.004 C 
ATOM     27  C   UNL     1      33.448 -14.860 -24.314  0.00  0.00    +0.000 C 
ATOM     28  C   UNL     1      34.466 -16.815 -25.302  0.00  0.00    +0.000 C 
ATOM     29  C   UNL     1      33.757 -15.621 -25.440  0.00  0.00    +0.000 C 
ENDBRANCH  23  24
ENDBRANCH  21  23
ENDBRANCH  20  21
ENDBRANCH  18  20
ENDBRANCH   1  17
TORSDOF 11
ENDMDL
MODEL 3
REMARK VINA RESULT:      -9.3      1.949      2.759
REMARK  Name = 185457
REMARK  11 active torsions:
REMARK  status: ('A' for Active; 'I' for Inactive)
REMARK    1  A    between atoms: C_1  and  C_4
REMARK    2  A    between atoms: C_1  and  N_17
REMARK    3  A    between atoms: N_3  and  C_6
REMARK    4  A    between atoms: C_6  and  C_9
REMARK    5  A    between atoms: N_8  and  C_11
REMARK    6  A    between atoms: C_11  and  C_13
REMARK    7  A    between atoms: C_13  and  O_14
REMARK    8  A    between atoms: C_18  and  C_20
REMARK    9  A    between atoms: C_20  and  S_21
REMARK   10  A    between atoms: S_21  and  C_23
REMARK   11  A    between atoms: C_23  and  C_24
REMARK                            x       y       z     vdW  Elec       q    Type
REMARK                         _______ _______ _______ _____ _____    ______ ____
ROOT
ATOM      1  C   UNL     1      33.871 -23.484 -16.252  0.00  0.00    +0.176 C 
ENDROOT
BRANCH   1   4
ATOM      2  O   UNL     1      35.564 -25.077 -15.594  0.00  0.00    -0.273 OA
ATOM      3  N   UNL     1      34.864 -23.470 -14.068  0.00  0.00    -0.295 N 
ATOM      4  C   UNL     1      34.873 -24.106 -15.301  0.00  0.00    +0.243 C 
ATOM      5  H   UNL     1      34.268 -22.697 -13.944  0.00  0.00    +0.150 HD
BRANCH   3   6
ATOM      6  C   UNL     1      35.686 -23.888 -12.955  0.00  0.00    +0.176 C 
BRANCH   6   9
ATOM      7  O   UNL     1      37.651 -22.719 -13.734  0.00  0.00    -0.273 OA
ATOM      8  N   UNL     1      37.811 -24.976 -13.203  0.00  0.00    -0.294 N 
ATOM      9  C   UNL     1      37.148 -23.763 -13.329  0.00  0.00    +0.243 C 
ATOM     10  H   UNL     1      37.306 -25.751 -12.866  0.00  0.00    +0.150 HD
BRANCH   8  11
ATOM     11  C   UNL     1      39.204 -25.156 -13.542  0.00  0.00    +0.200 C 
BRANCH  11  13
ATOM     12  O   UNL     1      40.504 -26.043 -15.364  0.00  0.00    -0.248 OA
ATOM     13  C   UNL     1      39.401 -25.847 -14.866  0.00  0.00    +0.334 C 
BRANCH  13  14
ATOM     14  O   UNL     1      38.244 -26.229 -15.456  0.00  0.00    -0.479 OA
ATOM     15  H   UNL     1      38.167 -27.087 -15.824  0.00  0.00    +0.295 HD
ENDBRANCH  13  14
ENDBRANCH  11  13
ENDBRANCH   8  11
ENDBRANCH   6   9
ENDBRANCH   3   6
ENDBRANCH   1   4
BRANCH   1  17
ATOM     16  O   UNL     1      32.736 -22.419 -18.692  0.00  0.00    -0.274 OA
ATOM     17  N   UNL     1      34.566 -22.822 -17.315  0.00  0.00    -0.296 N 
ATOM     18  C   UNL     1      33.940 -22.337 -18.460  0.00  0.00    +0.234 C 
ATOM     19  H   UNL     1      35.540 -22.703 -17.231  0.00  0.00    +0.150 HD
BRANCH  18  20
ATOM     20  C   UNL     1      34.896 -21.696 -19.439  0.00  0.00    +0.150 C 
BRANCH  20  21
ATOM     21  S   UNL     1      34.003 -20.450 -20.399  0.00  0.00    -0.063 S 
BRANCH  21  23
ATOM     22  O   UNL     1      36.404 -19.380 -20.356  0.00  0.00    -0.280 OA
ATOM     23  C   UNL     1      35.343 -19.454 -20.963  0.00  0.00    +0.222 C 
BRANCH  23  24
ATOM     24  C   UNL     1      35.133 -18.662 -22.203  0.00  0.00    +0.045 C 
ATOM     25  C   UNL     1      35.241 -17.271 -22.167  0.00  0.00    +0.004 C 
ATOM     26  C   UNL     1      34.830 -19.308 -23.401  0.00  0.00    +0.004 C 
ATOM     27  C   UNL     1      35.044 -16.528 -23.331  0.00  0.00    +0.000 C 
ATOM     28  C   UNL     1      34.633 -18.564 -24.564  0.00  0.00    +0.000 C 
ATOM     29  C   UNL     1      34.741 -17.173 -24.529  0.00  0.00    +0.000 C 
ENDBRANCH  23  24
ENDBRANCH  21  23
ENDBRANCH  20  21
ENDBRANCH  18  20
ENDBRANCH   1  17
TORSDOF 11
ENDMDL
MODEL 4
REMARK VINA RESULT:      -9.3      1.434      1.966
REMARK  Name = 185457
REMARK  11 active torsions:
REMARK  status: ('A' for Active; 'I' for Inactive)
REMARK    1  A    between atoms: C_1  and  C_4
REMARK    2  A    between atoms: C_1  and  N_17
REMARK    3  A    between atoms: N_3  and  C_6
REMARK    4  A    between atoms: C_6  and  C_9
REMARK    5  A    between atoms: N_8  and  C_11
REMARK    6  A    between atoms: C_11  and  C_13
REMARK    7  A    between atoms: C_13  and  O_14
REMARK    8  A    between atoms: C_18  and  C_20
REMARK    9  A    between atoms: C_20  and  S_21
REMARK   10  A    between atoms: S_21  and  C_23
REMARK   11  A    between atoms: C_23  and  C_24
REMARK                            x       y       z     vdW  Elec       q    Type
REMARK                         _______ _______ _______ _____ _____    ______ ____
ROOT
ATOM      1  C   UNL     1      36.353 -21.524 -19.106  0.00  0.00    +0.176 C 
ENDROOT
BRANCH   1   4
ATOM      2  O   UNL     1      34.575 -22.633 -17.904  0.00  0.00    -0.273 OA
ATOM      3  N   UNL     1      36.569 -22.166 -16.805  0.00  0.00    -0.295 N 
ATOM      4  C   UNL     1      35.718 -22.184 -17.900  0.00  0.00    +0.243 C 
ATOM      5  H   UNL     1      37.467 -21.780 -16.916  0.00  0.00    +0.150 HD
BRANCH   3   6
ATOM      6  C   UNL     1      36.201 -22.684 -15.507  0.00  0.00    +0.176 C 
BRANCH   6   9
ATOM      7  O   UNL     1      36.075 -25.093 -15.638  0.00  0.00    -0.273 OA
ATOM      8  N   UNL     1      38.009 -24.102 -14.814  0.00  0.00    -0.294 N 
ATOM      9  C   UNL     1      36.731 -24.094 -15.355  0.00  0.00    +0.243 C 
ATOM     10  H   UNL     1      38.442 -23.237 -14.626  0.00  0.00    +0.150 HD
BRANCH   8  11
ATOM     11  C   UNL     1      38.736 -25.314 -14.516  0.00  0.00    +0.200 C 
BRANCH  11  13
ATOM     12  O   UNL     1      41.075 -24.754 -14.395  0.00  0.00    -0.248 OA
ATOM     13  C   UNL     1      40.158 -25.283 -15.013  0.00  0.00    +0.334 C 
BRANCH  13  14
ATOM     14  O   UNL     1      40.327 -25.893 -16.210  0.00  0.00    -0.479 OA
ATOM     15  H   UNL     1      40.651 -25.407 -16.941  0.00  0.00    +0.295 HD
ENDBRANCH  13  14
ENDBRANCH  11  13
ENDBRANCH   8  11
ENDBRANCH   6   9
ENDBRANCH   3   6
ENDBRANCH   1   4
BRANCH   1  17
ATOM     16  O   UNL     1      36.818 -19.246 -20.831  0.00  0.00    -0.274 OA
ATOM     17  N   UNL     1      35.371 -20.747 -19.800  0.00  0.00    -0.296 N 
ATOM     18  C   UNL     1      35.681 -19.660 -20.615  0.00  0.00    +0.234 C 
ATOM     19  H   UNL     1      34.423 -20.993 -19.696  0.00  0.00    +0.150 HD
BRANCH  18  20
ATOM     20  C   UNL     1      34.465 -18.998 -21.218  0.00  0.00    +0.150 C 
BRANCH  20  21
ATOM     21  S   UNL     1      35.009 -17.676 -22.328  0.00  0.00    -0.063 S 
BRANCH  21  23
ATOM     22  O   UNL     1      35.071 -16.220 -20.139  0.00  0.00    -0.280 OA
ATOM     23  C   UNL     1      34.724 -16.264 -21.313  0.00  0.00    +0.222 C 
BRANCH  23  24
ATOM     24  C   UNL     1      34.004 -15.116 -21.922  0.00  0.00    +0.045 C 
ATOM     25  C   UNL     1      32.997 -14.467 -21.207  0.00  0.00    +0.004 C 
ATOM     26  C   UNL     1      34.335 -14.688 -23.208  0.00  0.00    +0.004 C 
ATOM     27  C   UNL     1      32.320 -13.390 -21.780  0.00  0.00    +0.000 C 
ATOM     28  C   UNL     1      33.658 -13.610 -23.780  0.00  0.00    +0.000 C 
ATOM     29  C   UNL     1      32.651 -12.961 -23.065  0.00  0.00    +0.000 C 
ENDBRANCH  23  24
ENDBRANCH  21  23
ENDBRANCH  20  21
ENDBRANCH  18  20
ENDBRANCH   1  17
TORSDOF 11
ENDMDL
MODEL 5
REMARK VINA RESULT:      -9.2      4.139      6.089
REMARK  Name = 185457
REMARK  11 active torsions:
REMARK  status: ('A' for Active; 'I' for Inactive)
REMARK    1  A    between atoms: C_1  and  C_4
REMARK    2  A    between atoms: C_1  and  N_17
REMARK    3  A    between atoms: N_3  and  C_6
REMARK    4  A    between atoms: C_6  and  C_9
REMARK    5  A    between atoms: N_8  and  C_11
REMARK    6  A    between atoms: C_11  and  C_13
REMARK    7  A    between atoms: C_13  and  O_14
REMARK    8  A    between atoms: C_18  and  C_20
REMARK    9  A    between atoms: C_20  and  S_21
REMARK   10  A    between atoms: S_21  and  C_23
REMARK   11  A    between atoms: C_23  and  C_24
REMARK                            x       y       z     vdW  Elec       q    Type
REMARK                         _______ _______ _______ _____ _____    ______ ____
ROOT
ATOM      1  C   UNL     1      33.261 -20.974 -19.956  0.00  0.00    +0.176 C 
ENDROOT
BRANCH   1   4
ATOM      2  O   UNL     1      34.779 -22.544 -18.923  0.00  0.00    -0.273 OA
ATOM      3  N   UNL     1      32.597 -22.391 -18.137  0.00  0.00    -0.295 N 
ATOM      4  C   UNL     1      33.661 -22.039 -18.956  0.00  0.00    +0.243 C 
ATOM      5  H   UNL     1      31.742 -21.918 -18.251  0.00  0.00    +0.150 HD
BRANCH   3   6
ATOM      6  C   UNL     1      32.683 -23.419 -17.124  0.00  0.00    +0.176 C 
BRANCH   6   9
ATOM      7  O   UNL     1      31.547 -23.667 -15.007  0.00  0.00    -0.273 OA
ATOM      8  N   UNL     1      30.392 -22.774 -16.816  0.00  0.00    -0.294 N 
ATOM      9  C   UNL     1      31.508 -23.298 -16.178  0.00  0.00    +0.243 C 
ATOM     10  H   UNL     1      30.476 -22.510 -17.761  0.00  0.00    +0.150 HD
BRANCH   8  11
ATOM     11  C   UNL     1      29.116 -22.596 -16.162  0.00  0.00    +0.200 C 
BRANCH  11  13
ATOM     12  O   UNL     1      27.645 -23.783 -17.653  0.00  0.00    -0.248 OA
ATOM     13  C   UNL     1      27.949 -22.729 -17.107  0.00  0.00    +0.334 C 
BRANCH  13  14
ATOM     14  O   UNL     1      27.272 -21.573 -17.297  0.00  0.00    -0.479 OA
ATOM     15  H   UNL     1      27.221 -20.942 -16.606  0.00  0.00    +0.295 HD
ENDBRANCH  13  14
ENDBRANCH  11  13
ENDBRANCH   8  11
ENDBRANCH   6   9
ENDBRANCH   3   6
ENDBRANCH   1   4
BRANCH   1  17
ATOM     16  O   UNL     1      33.928 -19.560 -22.391  0.00  0.00    -0.274 OA
ATOM     17  N   UNL     1      34.358 -20.078 -20.166  0.00  0.00    -0.296 N 
ATOM     18  C   UNL     1      34.608 -19.436 -21.375  0.00  0.00    +0.234 C 
ATOM     19  H   UNL     1      34.970 -19.906 -19.413  0.00  0.00    +0.150 HD
BRANCH  18  20
ATOM     20  C   UNL     1      35.836 -18.556 -21.344  0.00  0.00    +0.150 C 
BRANCH  20  21
ATOM     21  S   UNL     1      35.539 -17.098 -22.372  0.00  0.00    -0.063 S 
BRANCH  21  23
ATOM     22  O   UNL     1      34.957 -16.148 -19.991  0.00  0.00    -0.280 OA
ATOM     23  C   UNL     1      34.787 -16.021 -21.197  0.00  0.00    +0.222 C 
BRANCH  23  24
ATOM     24  C   UNL     1      33.896 -14.953 -21.718  0.00  0.00    +0.045 C 
ATOM     25  C   UNL     1      33.051 -14.265 -20.847  0.00  0.00    +0.004 C 
ATOM     26  C   UNL     1      33.905 -14.637 -23.077  0.00  0.00    +0.004 C 
ATOM     27  C   UNL     1      32.213 -13.262 -21.336  0.00  0.00    +0.000 C 
ATOM     28  C   UNL     1      33.067 -13.635 -23.565  0.00  0.00    +0.000 C 
ATOM     29  C   UNL     1      32.222 -12.947 -22.695  0.00  0.00    +0.000 C 
ENDBRANCH  23  24
ENDBRANCH  21  23
ENDBRANCH  20  21
ENDBRANCH  18  20
ENDBRANCH   1  17
TORSDOF 11
ENDMDL
MODEL 6
REMARK VINA RESULT:      -9.2      6.198     12.023
REMARK  Name = 185457
REMARK  11 active torsions:
REMARK  status: ('A' for Active; 'I' for Inactive)
REMARK    1  A    between atoms: C_1  and  C_4
REMARK    2  A    between atoms: C_1  and  N_17
REMARK    3  A    between atoms: N_3  and  C_6
REMARK    4  A    between atoms: C_6  and  C_9
REMARK    5  A    between atoms: N_8  and  C_11
REMARK    6  A    between atoms: C_11  and  C_13
REMARK    7  A    between atoms: C_13  and  O_14
REMARK    8  A    between atoms: C_18  and  C_20
REMARK    9  A    between atoms: C_20  and  S_21
REMARK   10  A    between atoms: S_21  and  C_23
REMARK   11  A    between atoms: C_23  and  C_24
REMARK                            x       y       z     vdW  Elec       q    Type
REMARK                         _______ _______ _______ _____ _____    ______ ____
ROOT
ATOM      1  C   UNL     1      32.432 -13.525 -23.127  0.00  0.00    +0.176 C 
ENDROOT
BRANCH   1   4
ATOM      2  O   UNL     1      32.520 -13.513 -20.712  0.00  0.00    -0.273 OA
ATOM      3  N   UNL     1      31.339 -11.841 -21.813  0.00  0.00    -0.295 N 
ATOM      4  C   UNL     1      32.133 -12.977 -21.746  0.00  0.00    +0.243 C 
ATOM      5  H   UNL     1      31.088 -11.497 -22.700  0.00  0.00    +0.150 HD
BRANCH   3   6
ATOM      6  C   UNL     1      30.861 -11.139 -20.643  0.00  0.00    +0.176 C 
BRANCH   6   9
ATOM      7  O   UNL     1      32.139  -9.680 -19.204  0.00  0.00    -0.273 OA
ATOM      8  N   UNL     1      32.109  -9.272 -21.491  0.00  0.00    -0.294 N 
ATOM      9  C   UNL     1      31.780  -9.974 -20.340  0.00  0.00    +0.243 C 
ATOM     10  H   UNL     1      31.764  -9.601 -22.353  0.00  0.00    +0.150 HD
BRANCH   8  11
ATOM     11  C   UNL     1      32.932  -8.085 -21.488  0.00  0.00    +0.200 C 
BRANCH  11  13
ATOM     12  O   UNL     1      31.494  -6.262 -20.852  0.00  0.00    -0.248 OA
ATOM     13  C   UNL     1      32.415  -7.015 -20.560  0.00  0.00    +0.334 C 
BRANCH  13  14
ATOM     14  O   UNL     1      33.069  -6.964 -19.376  0.00  0.00    -0.479 OA
ATOM     15  H   UNL     1      33.440  -6.156 -19.081  0.00  0.00    +0.295 HD
ENDBRANCH  13  14
ENDBRANCH  11  13
ENDBRANCH   8  11
ENDBRANCH   6   9
ENDBRANCH   3   6
ENDBRANCH   1   4
BRANCH   1  17
ATOM     16  O   UNL     1      33.561 -15.090 -25.283  0.00  0.00    -0.274 OA
ATOM     17  N   UNL     1      33.288 -14.668 -23.013  0.00  0.00    -0.296 N 
ATOM     18  C   UNL     1      33.790 -15.367 -24.108  0.00  0.00    +0.234 C 
ATOM     19  H   UNL     1      33.534 -14.977 -22.111  0.00  0.00    +0.150 HD
BRANCH  18  20
ATOM     20  C   UNL     1      34.654 -16.544 -23.722  0.00  0.00    +0.150 C 
BRANCH  20  21
ATOM     21  S   UNL     1      34.578 -16.763 -21.927  0.00  0.00    -0.063 S 
BRANCH  21  23
ATOM     22  O   UNL     1      36.636 -18.372 -22.224  0.00  0.00    -0.280 OA
ATOM     23  C   UNL     1      35.518 -18.242 -21.742  0.00  0.00    +0.222 C 
BRANCH  23  24
ATOM     24  C   UNL     1      34.890 -19.364 -20.998  0.00  0.00    +0.045 C 
ATOM     25  C   UNL     1      33.500 -19.462 -20.929  0.00  0.00    +0.004 C 
ATOM     26  C   UNL     1      35.689 -20.320 -20.369  0.00  0.00    +0.004 C 
ATOM     27  C   UNL     1      32.909 -20.515 -20.231  0.00  0.00    +0.000 C 
ATOM     28  C   UNL     1      35.097 -21.373 -19.671  0.00  0.00    +0.000 C 
ATOM     29  C   UNL     1      33.708 -21.470 -19.603  0.00  0.00    +0.000 C 
ENDBRANCH  23  24
ENDBRANCH  21  23
ENDBRANCH  20  21
ENDBRANCH  18  20
ENDBRANCH   1  17
TORSDOF 11
ENDMDL
MODEL 7
REMARK VINA RESULT:      -9.1      6.083     11.456
REMARK  Name = 185457
REMARK  11 active torsions:
REMARK  status: ('A' for Active; 'I' for Inactive)
REMARK    1  A    between atoms: C_1  and  C_4
REMARK    2  A    between atoms: C_1  and  N_17
REMARK    3  A    between atoms: N_3  and  C_6
REMARK    4  A    between atoms: C_6  and  C_9
REMARK    5  A    between atoms: N_8  and  C_11
REMARK    6  A    between atoms: C_11  and  C_13
REMARK    7  A    between atoms: C_13  and  O_14
REMARK    8  A    between atoms: C_18  and  C_20
REMARK    9  A    between atoms: C_20  and  S_21
REMARK   10  A    between atoms: S_21  and  C_23
REMARK   11  A    between atoms: C_23  and  C_24
REMARK                            x       y       z     vdW  Elec       q    Type
REMARK                         _______ _______ _______ _____ _____    ______ ____
ROOT
ATOM      1  C   UNL     1      33.876 -15.040 -24.214  0.00  0.00    +0.176 C 
ENDROOT
BRANCH   1   4
ATOM      2  O   UNL     1      34.102 -14.390 -21.898  0.00  0.00    -0.273 OA
ATOM      3  N   UNL     1      32.445 -13.405 -23.197  0.00  0.00    -0.295 N 
ATOM      4  C   UNL     1      33.522 -14.250 -22.971  0.00  0.00    +0.243 C 
ATOM      5  H   UNL     1      32.057 -13.373 -24.100  0.00  0.00    +0.150 HD
BRANCH   3   6
ATOM      6  C   UNL     1      31.864 -12.570 -22.170  0.00  0.00    +0.176 C 
BRANCH   6   9
ATOM      7  O   UNL     1      32.916 -10.761 -23.377  0.00  0.00    -0.273 OA
ATOM      8  N   UNL     1      31.724 -10.288 -21.439  0.00  0.00    -0.294 N 
ATOM      9  C   UNL     1      32.226 -11.122 -22.429  0.00  0.00    +0.243 C 
ATOM     10  H   UNL     1      31.179 -10.688 -20.723  0.00  0.00    +0.150 HD
BRANCH   8  11
ATOM     11  C   UNL     1      31.961  -8.863 -21.409  0.00  0.00    +0.200 C 
BRANCH  11  13
ATOM     12  O   UNL     1      32.580  -7.189 -19.793  0.00  0.00    -0.248 OA
ATOM     13  C   UNL     1      32.436  -8.375 -20.065  0.00  0.00    +0.334 C 
BRANCH  13  14
ATOM     14  O   UNL     1      32.693  -9.373 -19.187  0.00  0.00    -0.479 OA
ATOM     15  H   UNL     1      33.428  -9.937 -19.322  0.00  0.00    +0.295 HD
ENDBRANCH  13  14
ENDBRANCH  11  13
ENDBRANCH   8  11
ENDBRANCH   6   9
ENDBRANCH   3   6
ENDBRANCH   1   4
BRANCH   1  17
ATOM     16  O   UNL     1      34.026 -17.432 -25.836  0.00  0.00    -0.274 OA
ATOM     17  N   UNL     1      34.414 -16.313 -23.835  0.00  0.00    -0.296 N 
ATOM     18  C   UNL     1      34.447 -17.418 -24.681  0.00  0.00    +0.234 C 
ATOM     19  H   UNL     1      34.779 -16.412 -22.926  0.00  0.00    +0.150 HD
BRANCH  18  20
ATOM     20  C   UNL     1      35.048 -18.646 -24.039  0.00  0.00    +0.150 C 
BRANCH  20  21
ATOM     21  S   UNL     1      35.860 -18.162 -22.496  0.00  0.00    -0.063 S 
BRANCH  21  23
ATOM     22  O   UNL     1      33.694 -17.653 -21.096  0.00  0.00    -0.280 OA
ATOM     23  C   UNL     1      34.568 -18.475 -21.339  0.00  0.00    +0.222 C 
BRANCH  23  24
ATOM     24  C   UNL     1      34.588 -19.778 -20.625  0.00  0.00    +0.045 C 
ATOM     25  C   UNL     1      35.806 -20.400 -20.346  0.00  0.00    +0.004 C 
ATOM     26  C   UNL     1      33.392 -20.378 -20.232  0.00  0.00    +0.004 C 
ATOM     27  C   UNL     1      35.826 -21.623 -19.676  0.00  0.00    +0.000 C 
ATOM     28  C   UNL     1      33.413 -21.601 -19.562  0.00  0.00    +0.000 C 
ATOM     29  C   UNL     1      34.630 -22.223 -19.283  0.00  0.00    +0.000 C 
ENDBRANCH  23  24
ENDBRANCH  21  23
ENDBRANCH  20  21
ENDBRANCH  18  20
ENDBRANCH   1  17
TORSDOF 11
ENDMDL
MODEL 8
REMARK VINA RESULT:      -9.1      2.554      3.160
REMARK  Name = 185457
REMARK  11 active torsions:
REMARK  status: ('A' for Active; 'I' for Inactive)
REMARK    1  A    between atoms: C_1  and  C_4
REMARK    2  A    between atoms: C_1  and  N_17
REMARK    3  A    between atoms: N_3  and  C_6
REMARK    4  A    between atoms: C_6  and  C_9
REMARK    5  A    between atoms: N_8  and  C_11
REMARK    6  A    between atoms: C_11  and  C_13
REMARK    7  A    between atoms: C_13  and  O_14
REMARK    8  A    between atoms: C_18  and  C_20
REMARK    9  A    between atoms: C_20  and  S_21
REMARK   10  A    between atoms: S_21  and  C_23
REMARK   11  A    between atoms: C_23  and  C_24
REMARK                            x       y       z     vdW  Elec       q    Type
REMARK                         _______ _______ _______ _____ _____    ______ ____
ROOT
ATOM      1  C   UNL     1      33.751 -23.012 -19.001  0.00  0.00    +0.176 C 
ENDROOT
BRANCH   1   4
ATOM      2  O   UNL     1      31.983 -22.784 -17.370  0.00  0.00    -0.273 OA
ATOM      3  N   UNL     1      34.133 -23.291 -16.649  0.00  0.00    -0.295 N 
ATOM      4  C   UNL     1      33.163 -23.025 -17.605  0.00  0.00    +0.243 C 
ATOM      5  H   UNL     1      35.052 -23.471 -16.952  0.00  0.00    +0.150 HD
BRANCH   3   6
ATOM      6  C   UNL     1      33.861 -23.315 -15.230  0.00  0.00    +0.176 C 
BRANCH   6   9
ATOM      7  O   UNL     1      35.694 -24.857 -14.917  0.00  0.00    -0.273 OA
ATOM      8  N   UNL     1      35.267 -23.260 -13.285  0.00  0.00    -0.294 N 
ATOM      9  C   UNL     1      35.048 -23.902 -14.496  0.00  0.00    +0.243 C 
ATOM     10  H   UNL     1      34.686 -22.501 -13.047  0.00  0.00    +0.150 HD
BRANCH   8  11
ATOM     11  C   UNL     1      36.304 -23.649 -12.357  0.00  0.00    +0.200 C 
BRANCH  11  13
ATOM     12  O   UNL     1      35.254 -24.963 -10.634  0.00  0.00    -0.248 OA
ATOM     13  C   UNL     1      35.983 -24.923 -11.618  0.00  0.00    +0.334 C 
BRANCH  13  14
ATOM     14  O   UNL     1      36.580 -26.018 -12.144  0.00  0.00    -0.479 OA
ATOM     15  H   UNL     1      36.574 -26.154 -13.070  0.00  0.00    +0.295 HD
ENDBRANCH  13  14
ENDBRANCH  11  13
ENDBRANCH   8  11
ENDBRANCH   6   9
ENDBRANCH   3   6
ENDBRANCH   1   4
BRANCH   1  17
ATOM     16  O   UNL     1      35.260 -20.653 -19.730  0.00  0.00    -0.274 OA
ATOM     17  N   UNL     1      33.274 -21.863 -19.710  0.00  0.00    -0.296 N 
ATOM     18  C   UNL     1      34.071 -20.764 -20.023  0.00  0.00    +0.234 C 
ATOM     19  H   UNL     1      32.330 -21.848 -19.993  0.00  0.00    +0.150 HD
BRANCH  18  20
ATOM     20  C   UNL     1      33.328 -19.675 -20.759  0.00  0.00    +0.150 C 
BRANCH  20  21
ATOM     21  S   UNL     1      34.411 -18.985 -22.033  0.00  0.00    -0.063 S 
BRANCH  21  23
ATOM     22  O   UNL     1      35.597 -17.347 -20.353  0.00  0.00    -0.280 OA
ATOM     23  C   UNL     1      34.826 -17.436 -21.300  0.00  0.00    +0.222 C 
BRANCH  23  24
ATOM     24  C   UNL     1      34.174 -16.221 -21.852  0.00  0.00    +0.045 C 
ATOM     25  C   UNL     1      34.657 -15.645 -23.028  0.00  0.00    +0.004 C 
ATOM     26  C   UNL     1      33.080 -15.657 -21.197  0.00  0.00    +0.004 C 
ATOM     27  C   UNL     1      34.045 -14.503 -23.546  0.00  0.00    +0.000 C 
ATOM     28  C   UNL     1      32.469 -14.515 -21.716  0.00  0.00    +0.000 C 
ATOM     29  C   UNL     1      32.951 -13.939 -22.891  0.00  0.00    +0.000 C 
ENDBRANCH  23  24
ENDBRANCH  21  23
ENDBRANCH  20  21
ENDBRANCH  18  20
ENDBRANCH   1  17
TORSDOF 11
ENDMDL
MODEL 9
REMARK VINA RESULT:      -9.1      6.160     11.567
REMARK  Name = 185457
REMARK  11 active torsions:
REMARK  status: ('A' for Active; 'I' for Inactive)
REMARK    1  A    between atoms: C_1  and  C_4
REMARK    2  A    between atoms: C_1  and  N_17
REMARK    3  A    between atoms: N_3  and  C_6
REMARK    4  A    between atoms: C_6  and  C_9
REMARK    5  A    between atoms: N_8  and  C_11
REMARK    6  A    between atoms: C_11  and  C_13
REMARK    7  A    between atoms: C_13  and  O_14
REMARK    8  A    between atoms: C_18  and  C_20
REMARK    9  A    between atoms: C_20  and  S_21
REMARK   10  A    between atoms: S_21  and  C_23
REMARK   11  A    between atoms: C_23  and  C_24
REMARK                            x       y       z     vdW  Elec       q    Type
REMARK                         _______ _______ _______ _____ _____    ______ ____
ROOT
ATOM      1  C   UNL     1      33.545 -14.910 -24.293  0.00  0.00    +0.176 C 
ENDROOT
BRANCH   1   4
ATOM      2  O   UNL     1      34.307 -14.078 -22.157  0.00  0.00    -0.273 OA
ATOM      3  N   UNL     1      32.289 -13.312 -23.018  0.00  0.00    -0.295 N 
ATOM      4  C   UNL     1      33.458 -14.059 -23.043  0.00  0.00    +0.243 C 
ATOM      5  H   UNL     1      31.678 -13.374 -23.786  0.00  0.00    +0.150 HD
BRANCH   3   6
ATOM      6  C   UNL     1      31.924 -12.449 -21.918  0.00  0.00    +0.176 C 
BRANCH   6   9
ATOM      7  O   UNL     1      30.802 -10.336 -22.259  0.00  0.00    -0.273 OA
ATOM      8  N   UNL     1      32.956 -10.622 -23.084  0.00  0.00    -0.294 N 
ATOM      9  C   UNL     1      31.810 -11.021 -22.410  0.00  0.00    +0.243 C 
ATOM     10  H   UNL     1      33.707 -11.256 -23.144  0.00  0.00    +0.150 HD
BRANCH   8  11
ATOM     11  C   UNL     1      33.100  -9.324 -23.702  0.00  0.00    +0.200 C 
BRANCH  11  13
ATOM     12  O   UNL     1      34.902  -7.727 -23.686  0.00  0.00    -0.248 OA
ATOM     13  C   UNL     1      34.538  -8.889 -23.824  0.00  0.00    +0.334 C 
BRANCH  13  14
ATOM     14  O   UNL     1      35.388  -9.904 -24.105  0.00  0.00    -0.479 OA
ATOM     15  H   UNL     1      35.052 -10.731 -24.388  0.00  0.00    +0.295 HD
ENDBRANCH  13  14
ENDBRANCH  11  13
ENDBRANCH   8  11
ENDBRANCH   6   9
ENDBRANCH   3   6
ENDBRANCH   1   4
BRANCH   1  17
ATOM     16  O   UNL     1      34.911 -16.848 -25.952  0.00  0.00    -0.274 OA
ATOM     17  N   UNL     1      33.917 -16.246 -23.938  0.00  0.00    -0.296 N 
ATOM     18  C   UNL     1      34.576 -17.118 -24.801  0.00  0.00    +0.234 C 
ATOM     19  H   UNL     1      33.695 -16.567 -23.034  0.00  0.00    +0.150 HD
BRANCH  18  20
ATOM     20  C   UNL     1      34.840 -18.476 -24.194  0.00  0.00    +0.150 C 
BRANCH  20  21
ATOM     21  S   UNL     1      35.839 -18.265 -22.700  0.00  0.00    -0.063 S 
BRANCH  21  23
ATOM     22  O   UNL     1      33.809 -17.552 -21.189  0.00  0.00    -0.280 OA
ATOM     23  C   UNL     1      34.603 -18.445 -21.456  0.00  0.00    +0.222 C 
BRANCH  23  24
ATOM     24  C   UNL     1      34.572 -19.725 -20.702  0.00  0.00    +0.045 C 
ATOM     25  C   UNL     1      35.764 -20.376 -20.387  0.00  0.00    +0.004 C 
ATOM     26  C   UNL     1      33.351 -20.274 -20.308  0.00  0.00    +0.004 C 
ATOM     27  C   UNL     1      35.736 -21.577 -19.678  0.00  0.00    +0.000 C 
ATOM     28  C   UNL     1      33.323 -21.475 -19.599  0.00  0.00    +0.000 C 
ATOM     29  C   UNL     1      34.516 -22.126 -19.284  0.00  0.00    +0.000 C 
ENDBRANCH  23  24
ENDBRANCH  21  23
ENDBRANCH  20  21
ENDBRANCH  18  20
ENDBRANCH   1  17
TORSDOF 11
ENDMDL
