MODEL 1
REMARK VINA RESULT:      -8.0      0.000      0.000
REMARK  Name = 3744
REMARK  4 active torsions:
REMARK  status: ('A' for Active; 'I' for Inactive)
REMARK    1  A    between atoms: C_2  and  C_11
REMARK    2  A    between atoms: C_11  and  C_12
REMARK    3  A    between atoms: C_12  and  C_14
REMARK    4  A    between atoms: C_14  and  O_15
REMARK                            x       y       z     vdW  Elec       q    Type
REMARK                         _______ _______ _______ _____ _____    ______ ____
ROOT
ATOM      1  N   UNL     1      36.866 -19.943 -20.273  0.00  0.00    -0.312 N 
ATOM      2  C   UNL     1      35.238 -18.941 -21.402  0.00  0.00    -0.006 C 
ATOM      3  C   UNL     1      34.665 -19.993 -20.634  0.00  0.00    +0.011 C 
ATOM      4  C   UNL     1      35.707 -20.605 -19.935  0.00  0.00    +0.048 C 
ATOM      5  C   UNL     1      36.592 -18.935 -21.159  0.00  0.00    +0.058 C 
ATOM      6  C   UNL     1      33.355 -20.484 -20.465  0.00  0.00    +0.001 C 
ATOM      7  C   UNL     1      35.505 -21.689 -19.074  0.00  0.00    +0.015 C 
ATOM      8  C   UNL     1      33.138 -21.568 -19.607  0.00  0.00    +0.000 C 
ATOM      9  C   UNL     1      34.197 -22.160 -18.922  0.00  0.00    +0.001 C 
ATOM     10  H   UNL     1      37.761 -20.162 -19.928  0.00  0.00    +0.152 HD
ENDROOT
BRANCH   2  11
ATOM     11  C   UNL     1      34.519 -18.016 -22.301  0.00  0.00    +0.039 C 
BRANCH  11  12
ATOM     12  C   UNL     1      34.752 -18.282 -23.798  0.00  0.00    +0.114 C 
BRANCH  12  14
ATOM     13  O   UNL     1      34.752 -16.856 -25.748  0.00  0.00    -0.250 OA
ATOM     14  C   UNL     1      34.996 -17.000 -24.557  0.00  0.00    +0.314 C 
BRANCH  14  15
ATOM     15  O   UNL     1      35.543 -16.027 -23.787  0.00  0.00    -0.480 OA
ATOM     16  H   UNL     1      35.253 -15.140 -23.875  0.00  0.00    +0.295 HD
ENDBRANCH  14  15
ENDBRANCH  12  14
ENDBRANCH  11  12
ENDBRANCH   2  11
TORSDOF 4
ENDMDL
MODEL 2
REMARK VINA RESULT:      -7.8      1.374      2.077
REMARK  Name = 3744
REMARK  4 active torsions:
REMARK  status: ('A' for Active; 'I' for Inactive)
REMARK    1  A    between atoms: C_2  and  C_11
REMARK    2  A    between atoms: C_11  and  C_12
REMARK    3  A    between atoms: C_12  and  C_14
REMARK    4  A    between atoms: C_14  and  O_15
REMARK                            x       y       z     vdW  Elec       q    Type
REMARK                         _______ _______ _______ _____ _____    ______ ____
ROOT
ATOM      1  N   UNL     1      32.709 -20.526 -20.460  0.00  0.00    -0.312 N 
ATOM      2  C   UNL     1      34.405 -19.417 -21.367  0.00  0.00    -0.006 C 
ATOM      3  C   UNL     1      34.930 -20.326 -20.407  0.00  0.00    +0.011 C 
ATOM      4  C   UNL     1      33.846 -21.010 -19.853  0.00  0.00    +0.048 C 
ATOM      5  C   UNL     1      33.037 -19.564 -21.378  0.00  0.00    +0.058 C 
ATOM      6  C   UNL     1      36.229 -20.635 -19.955  0.00  0.00    +0.001 C 
ATOM      7  C   UNL     1      33.996 -21.989 -18.864  0.00  0.00    +0.015 C 
ATOM      8  C   UNL     1      36.394 -21.612 -18.967  0.00  0.00    +0.000 C 
ATOM      9  C   UNL     1      35.293 -22.278 -18.431  0.00  0.00    +0.001 C 
ATOM     10  H   UNL     1      31.793 -20.829 -20.264  0.00  0.00    +0.152 HD
ENDROOT
BRANCH   2  11
ATOM     11  C   UNL     1      35.179 -18.481 -22.207  0.00  0.00    +0.039 C 
BRANCH  11  12
ATOM     12  C   UNL     1      35.003 -18.699 -23.721  0.00  0.00    +0.114 C 
BRANCH  12  14
ATOM     13  O   UNL     1      34.493 -17.241 -25.578  0.00  0.00    -0.250 OA
ATOM     14  C   UNL     1      34.994 -17.389 -24.471  0.00  0.00    +0.314 C 
BRANCH  14  15
ATOM     15  O   UNL     1      35.627 -16.394 -23.802  0.00  0.00    -0.480 OA
ATOM     16  H   UNL     1      35.398 -15.499 -23.966  0.00  0.00    +0.295 HD
ENDBRANCH  14  15
ENDBRANCH  12  14
ENDBRANCH  11  12
ENDBRANCH   2  11
TORSDOF 4
ENDMDL
MODEL 3
REMARK VINA RESULT:      -7.6      3.511      5.698
REMARK  Name = 3744
REMARK  4 active torsions:
REMARK  status: ('A' for Active; 'I' for Inactive)
REMARK    1  A    between atoms: C_2  and  C_11
REMARK    2  A    between atoms: C_11  and  C_12
REMARK    3  A    between atoms: C_12  and  C_14
REMARK    4  A    between atoms: C_14  and  O_15
REMARK                            x       y       z     vdW  Elec       q    Type
REMARK                         _______ _______ _______ _____ _____    ______ ____
ROOT
ATOM      1  N   UNL     1      34.838 -17.802 -24.252  0.00  0.00    -0.312 N 
ATOM      2  C   UNL     1      34.837 -18.735 -22.237  0.00  0.00    -0.006 C 
ATOM      3  C   UNL     1      34.698 -17.329 -22.076  0.00  0.00    +0.011 C 
ATOM      4  C   UNL     1      34.701 -16.767 -23.355  0.00  0.00    +0.048 C 
ATOM      5  C   UNL     1      34.920 -18.996 -23.586  0.00  0.00    +0.058 C 
ATOM      6  C   UNL     1      34.568 -16.476 -20.962  0.00  0.00    +0.001 C 
ATOM      7  C   UNL     1      34.582 -15.390 -23.575  0.00  0.00    +0.015 C 
ATOM      8  C   UNL     1      34.448 -15.097 -21.167  0.00  0.00    +0.000 C 
ATOM      9  C   UNL     1      34.455 -14.564 -22.454  0.00  0.00    +0.001 C 
ATOM     10  H   UNL     1      34.871 -17.699 -25.230  0.00  0.00    +0.152 HD
ENDROOT
BRANCH   2  11
ATOM     11  C   UNL     1      34.885 -19.743 -21.160  0.00  0.00    +0.039 C 
BRANCH  11  12
ATOM     12  C   UNL     1      33.504 -20.151 -20.616  0.00  0.00    +0.114 C 
BRANCH  12  14
ATOM     13  O   UNL     1      32.645 -21.824 -19.099  0.00  0.00    -0.250 OA
ATOM     14  C   UNL     1      33.608 -21.311 -19.655  0.00  0.00    +0.314 C 
BRANCH  14  15
ATOM     15  O   UNL     1      34.887 -21.711 -19.448  0.00  0.00    -0.480 OA
ATOM     16  H   UNL     1      35.073 -22.379 -18.816  0.00  0.00    +0.295 HD
ENDBRANCH  14  15
ENDBRANCH  12  14
ENDBRANCH  11  12
ENDBRANCH   2  11
TORSDOF 4
ENDMDL
MODEL 4
REMARK VINA RESULT:      -7.5      1.893      2.287
REMARK  Name = 3744
REMARK  4 active torsions:
REMARK  status: ('A' for Active; 'I' for Inactive)
REMARK    1  A    between atoms: C_2  and  C_11
REMARK    2  A    between atoms: C_11  and  C_12
REMARK    3  A    between atoms: C_12  and  C_14
REMARK    4  A    between atoms: C_14  and  O_15
REMARK                            x       y       z     vdW  Elec       q    Type
REMARK                         _______ _______ _______ _____ _____    ______ ____
ROOT
ATOM      1  N   UNL     1      36.731 -19.726 -20.525  0.00  0.00    -0.312 N 
ATOM      2  C   UNL     1      35.239 -18.629 -21.750  0.00  0.00    -0.006 C 
ATOM      3  C   UNL     1      34.554 -19.624 -20.999  0.00  0.00    +0.011 C 
ATOM      4  C   UNL     1      35.512 -20.298 -20.239  0.00  0.00    +0.048 C 
ATOM      5  C   UNL     1      36.576 -18.715 -21.436  0.00  0.00    +0.058 C 
ATOM      6  C   UNL     1      33.205 -20.018 -20.892  0.00  0.00    +0.001 C 
ATOM      7  C   UNL     1      35.188 -21.350 -19.376  0.00  0.00    +0.015 C 
ATOM      8  C   UNL     1      32.866 -21.069 -20.033  0.00  0.00    +0.000 C 
ATOM      9  C   UNL     1      33.844 -21.723 -19.286  0.00  0.00    +0.001 C 
ATOM     10  H   UNL     1      37.590 -20.002 -20.131  0.00  0.00    +0.152 HD
ENDROOT
BRANCH   2  11
ATOM     11  C   UNL     1      34.635 -17.670 -22.696  0.00  0.00    +0.039 C 
BRANCH  11  12
ATOM     12  C   UNL     1      34.883 -16.193 -22.342  0.00  0.00    +0.114 C 
BRANCH  12  14
ATOM     13  O   UNL     1      34.935 -15.443 -20.046  0.00  0.00    -0.250 OA
ATOM     14  C   UNL     1      34.281 -15.837 -21.004  0.00  0.00    +0.314 C 
BRANCH  14  15
ATOM     15  O   UNL     1      32.939 -16.025 -20.962  0.00  0.00    -0.480 OA
ATOM     16  H   UNL     1      32.528 -16.609 -21.569  0.00  0.00    +0.295 HD
ENDBRANCH  14  15
ENDBRANCH  12  14
ENDBRANCH  11  12
ENDBRANCH   2  11
TORSDOF 4
ENDMDL
MODEL 5
REMARK VINA RESULT:      -7.5      3.361      5.656
REMARK  Name = 3744
REMARK  4 active torsions:
REMARK  status: ('A' for Active; 'I' for Inactive)
REMARK    1  A    between atoms: C_2  and  C_11
REMARK    2  A    between atoms: C_11  and  C_12
REMARK    3  A    between atoms: C_12  and  C_14
REMARK    4  A    between atoms: C_14  and  O_15
REMARK                            x       y       z     vdW  Elec       q    Type
REMARK                         _______ _______ _______ _____ _____    ______ ____
ROOT
ATOM      1  N   UNL     1      35.003 -16.380 -21.675  0.00  0.00    -0.312 N 
ATOM      2  C   UNL     1      34.993 -18.587 -21.434  0.00  0.00    -0.006 C 
ATOM      3  C   UNL     1      34.802 -18.289 -22.812  0.00  0.00    +0.011 C 
ATOM      4  C   UNL     1      34.812 -16.898 -22.936  0.00  0.00    +0.048 C 
ATOM      5  C   UNL     1      35.114 -17.394 -20.760  0.00  0.00    +0.058 C 
ATOM      6  C   UNL     1      34.622 -19.071 -23.971  0.00  0.00    +0.001 C 
ATOM      7  C   UNL     1      34.649 -16.248 -24.164  0.00  0.00    +0.015 C 
ATOM      8  C   UNL     1      34.457 -18.434 -25.205  0.00  0.00    +0.000 C 
ATOM      9  C   UNL     1      34.471 -17.044 -25.299  0.00  0.00    +0.001 C 
ATOM     10  H   UNL     1      35.052 -15.421 -21.461  0.00  0.00    +0.152 HD
ENDROOT
BRANCH   2  11
ATOM     11  C   UNL     1      35.054 -19.931 -20.826  0.00  0.00    +0.039 C 
BRANCH  11  12
ATOM     12  C   UNL     1      33.698 -20.457 -20.322  0.00  0.00    +0.114 C 
BRANCH  12  14
ATOM     13  O   UNL     1      34.891 -22.388 -19.492  0.00  0.00    -0.250 OA
ATOM     14  C   UNL     1      33.860 -21.728 -19.522  0.00  0.00    +0.314 C 
BRANCH  14  15
ATOM     15  O   UNL     1      32.732 -22.080 -18.858  0.00  0.00    -0.480 OA
ATOM     16  H   UNL     1      31.947 -22.271 -19.335  0.00  0.00    +0.295 HD
ENDBRANCH  14  15
ENDBRANCH  12  14
ENDBRANCH  11  12
ENDBRANCH   2  11
TORSDOF 4
ENDMDL
MODEL 6
REMARK VINA RESULT:      -7.4      4.795      6.631
REMARK  Name = 3744
REMARK  4 active torsions:
REMARK  status: ('A' for Active; 'I' for Inactive)
REMARK    1  A    between atoms: C_2  and  C_11
REMARK    2  A    between atoms: C_11  and  C_12
REMARK    3  A    between atoms: C_12  and  C_14
REMARK    4  A    between atoms: C_14  and  O_15
REMARK                            x       y       z     vdW  Elec       q    Type
REMARK                         _______ _______ _______ _____ _____    ______ ____
ROOT
ATOM      1  N   UNL     1      33.158 -21.984 -19.085  0.00  0.00    -0.312 N 
ATOM      2  C   UNL     1      35.345 -21.797 -18.750  0.00  0.00    -0.006 C 
ATOM      3  C   UNL     1      34.967 -20.861 -19.752  0.00  0.00    +0.011 C 
ATOM      4  C   UNL     1      33.591 -20.998 -19.943  0.00  0.00    +0.048 C 
ATOM      5  C   UNL     1      34.212 -22.472 -18.359  0.00  0.00    +0.058 C 
ATOM      6  C   UNL     1      35.665 -19.906 -20.518  0.00  0.00    +0.001 C 
ATOM      7  C   UNL     1      32.875 -20.226 -20.866  0.00  0.00    +0.015 C 
ATOM      8  C   UNL     1      34.963 -19.127 -21.444  0.00  0.00    +0.000 C 
ATOM      9  C   UNL     1      33.590 -19.286 -21.614  0.00  0.00    +0.001 C 
ATOM     10  H   UNL     1      32.227 -22.292 -19.004  0.00  0.00    +0.152 HD
ENDROOT
BRANCH   2  11
ATOM     11  C   UNL     1      36.705 -22.014 -18.218  0.00  0.00    +0.039 C 
BRANCH  11  12
ATOM     12  C   UNL     1      36.842 -21.747 -16.708  0.00  0.00    +0.114 C 
BRANCH  12  14
ATOM     13  O   UNL     1      38.318 -23.240 -15.512  0.00  0.00    -0.250 OA
ATOM     14  C   UNL     1      37.201 -23.005 -15.954  0.00  0.00    +0.314 C 
BRANCH  14  15
ATOM     15  O   UNL     1      36.160 -23.867 -15.841  0.00  0.00    -0.480 OA
ATOM     16  H   UNL     1      35.550 -23.961 -16.546  0.00  0.00    +0.295 HD
ENDBRANCH  14  15
ENDBRANCH  12  14
ENDBRANCH  11  12
ENDBRANCH   2  11
TORSDOF 4
ENDMDL
MODEL 7
REMARK VINA RESULT:      -7.3      7.228      9.007
REMARK  Name = 3744
REMARK  4 active torsions:
REMARK  status: ('A' for Active; 'I' for Inactive)
REMARK    1  A    between atoms: C_2  and  C_11
REMARK    2  A    between atoms: C_11  and  C_12
REMARK    3  A    between atoms: C_12  and  C_14
REMARK    4  A    between atoms: C_14  and  O_15
REMARK                            x       y       z     vdW  Elec       q    Type
REMARK                         _______ _______ _______ _____ _____    ______ ____
ROOT
ATOM      1  N   UNL     1      31.590 -23.658 -13.882  0.00  0.00    -0.312 N 
ATOM      2  C   UNL     1      30.336 -23.094 -15.626  0.00  0.00    -0.006 C 
ATOM      3  C   UNL     1      31.694 -23.138 -16.049  0.00  0.00    +0.011 C 
ATOM      4  C   UNL     1      32.460 -23.495 -14.937  0.00  0.00    +0.048 C 
ATOM      5  C   UNL     1      30.305 -23.419 -14.289  0.00  0.00    +0.058 C 
ATOM      6  C   UNL     1      32.348 -22.909 -17.277  0.00  0.00    +0.001 C 
ATOM      7  C   UNL     1      33.851 -23.632 -14.990  0.00  0.00    +0.015 C 
ATOM      8  C   UNL     1      33.739 -23.043 -17.345  0.00  0.00    +0.000 C 
ATOM      9  C   UNL     1      34.477 -23.400 -16.219  0.00  0.00    +0.001 C 
ATOM     10  H   UNL     1      31.854 -23.911 -12.968  0.00  0.00    +0.152 HD
ENDROOT
BRANCH   2  11
ATOM     11  C   UNL     1      29.165 -22.762 -16.461  0.00  0.00    +0.039 C 
BRANCH  11  12
ATOM     12  C   UNL     1      27.815 -22.889 -15.733  0.00  0.00    +0.114 C 
BRANCH  12  14
ATOM     13  O   UNL     1      26.930 -21.390 -17.409  0.00  0.00    -0.250 OA
ATOM     14  C   UNL     1      26.757 -22.025 -16.376  0.00  0.00    +0.314 C 
BRANCH  14  15
ATOM     15  O   UNL     1      25.598 -22.000 -15.673  0.00  0.00    -0.480 OA
ATOM     16  H   UNL     1      25.408 -22.681 -15.058  0.00  0.00    +0.295 HD
ENDBRANCH  14  15
ENDBRANCH  12  14
ENDBRANCH  11  12
ENDBRANCH   2  11
TORSDOF 4
ENDMDL
MODEL 8
REMARK VINA RESULT:      -7.2      2.941      4.405
REMARK  Name = 3744
REMARK  4 active torsions:
REMARK  status: ('A' for Active; 'I' for Inactive)
REMARK    1  A    between atoms: C_2  and  C_11
REMARK    2  A    between atoms: C_11  and  C_12
REMARK    3  A    between atoms: C_12  and  C_14
REMARK    4  A    between atoms: C_14  and  O_15
REMARK                            x       y       z     vdW  Elec       q    Type
REMARK                         _______ _______ _______ _____ _____    ______ ____
ROOT
ATOM      1  N   UNL     1      34.574 -15.807 -20.647  0.00  0.00    -0.312 N 
ATOM      2  C   UNL     1      34.383 -14.979 -22.698  0.00  0.00    -0.006 C 
ATOM      3  C   UNL     1      34.684 -16.365 -22.804  0.00  0.00    +0.011 C 
ATOM      4  C   UNL     1      34.799 -16.861 -21.504  0.00  0.00    +0.048 C 
ATOM      5  C   UNL     1      34.321 -14.665 -21.360  0.00  0.00    +0.058 C 
ATOM      6  C   UNL     1      34.871 -17.250 -23.885  0.00  0.00    +0.001 C 
ATOM      7  C   UNL     1      35.093 -18.201 -21.229  0.00  0.00    +0.015 C 
ATOM      8  C   UNL     1      35.166 -18.592 -23.626  0.00  0.00    +0.000 C 
ATOM      9  C   UNL     1      35.274 -19.060 -22.318  0.00  0.00    +0.001 C 
ATOM     10  H   UNL     1      34.592 -15.866 -19.664  0.00  0.00    +0.152 HD
ENDROOT
BRANCH   2  11
ATOM     11  C   UNL     1      34.171 -14.037 -23.815  0.00  0.00    +0.039 C 
BRANCH  11  12
ATOM     12  C   UNL     1      32.878 -14.284 -24.613  0.00  0.00    +0.114 C 
BRANCH  12  14
ATOM     13  O   UNL     1      33.052 -13.364 -26.840  0.00  0.00    -0.250 OA
ATOM     14  C   UNL     1      33.145 -14.334 -26.098  0.00  0.00    +0.314 C 
BRANCH  14  15
ATOM     15  O   UNL     1      33.473 -15.575 -26.534  0.00  0.00    -0.480 OA
ATOM     16  H   UNL     1      33.726 -16.236 -25.919  0.00  0.00    +0.295 HD
ENDBRANCH  14  15
ENDBRANCH  12  14
ENDBRANCH  11  12
ENDBRANCH   2  11
TORSDOF 4
ENDMDL
MODEL 9
REMARK VINA RESULT:      -7.2      3.489      5.672
REMARK  Name = 3744
REMARK  4 active torsions:
REMARK  status: ('A' for Active; 'I' for Inactive)
REMARK    1  A    between atoms: C_2  and  C_11
REMARK    2  A    between atoms: C_11  and  C_12
REMARK    3  A    between atoms: C_12  and  C_14
REMARK    4  A    between atoms: C_14  and  O_15
REMARK                            x       y       z     vdW  Elec       q    Type
REMARK                         _______ _______ _______ _____ _____    ______ ____
ROOT
ATOM      1  N   UNL     1      33.817 -15.566 -24.654  0.00  0.00    -0.312 N 
ATOM      2  C   UNL     1      34.877 -17.085 -23.430  0.00  0.00    -0.006 C 
ATOM      3  C   UNL     1      34.243 -16.166 -22.548  0.00  0.00    +0.011 C 
ATOM      4  C   UNL     1      33.585 -15.224 -23.341  0.00  0.00    +0.048 C 
ATOM      5  C   UNL     1      34.597 -16.690 -24.718  0.00  0.00    +0.058 C 
ATOM      6  C   UNL     1      34.164 -16.046 -21.146  0.00  0.00    +0.001 C 
ATOM      7  C   UNL     1      32.850 -14.162 -22.800  0.00  0.00    +0.015 C 
ATOM      8  C   UNL     1      33.434 -14.990 -20.591  0.00  0.00    +0.000 C 
ATOM      9  C   UNL     1      32.787 -14.064 -21.407  0.00  0.00    +0.001 C 
ATOM     10  H   UNL     1      33.472 -15.074 -25.434  0.00  0.00    +0.152 HD
ENDROOT
BRANCH   2  11
ATOM     11  C   UNL     1      35.692 -18.254 -23.045  0.00  0.00    +0.039 C 
BRANCH  11  12
ATOM     12  C   UNL     1      34.888 -19.398 -22.400  0.00  0.00    +0.114 C 
BRANCH  12  14
ATOM     13  O   UNL     1      36.188 -19.000 -20.403  0.00  0.00    -0.250 OA
ATOM     14  C   UNL     1      35.265 -19.590 -20.950  0.00  0.00    +0.314 C 
BRANCH  14  15
ATOM     15  O   UNL     1      34.491 -20.508 -20.322  0.00  0.00    -0.480 OA
ATOM     16  H   UNL     1      34.233 -20.372 -19.430  0.00  0.00    +0.295 HD
ENDBRANCH  14  15
ENDBRANCH  12  14
ENDBRANCH  11  12
ENDBRANCH   2  11
TORSDOF 4
ENDMDL
