MODEL 1
REMARK VINA RESULT:      -9.6      0.000      0.000
REMARK  Name = 44182376
REMARK  10 active torsions:
REMARK  status: ('A' for Active; 'I' for Inactive)
REMARK    1  A    between atoms: N_2  and  C_12
REMARK    2  A    between atoms: N_3  and  C_23
REMARK    3  A    between atoms: C_12  and  C_13
REMARK    4  A    between atoms: C_13  and  N_15
REMARK    5  A    between atoms: C_16  and  O_18
REMARK    6  A    between atoms: O_18  and  C_19
REMARK    7  A    between atoms: C_23  and  C_24
REMARK    8  A    between atoms: C_24  and  O_25
REMARK    9  A    between atoms: O_25  and  C_27
REMARK   10  A    between atoms: C_32  and  C_34
REMARK                            x       y       z     vdW  Elec       q    Type
REMARK                         _______ _______ _______ _____ _____    ______ ____
ROOT
ATOM      1  O   UNL     1      31.883 -13.805 -24.116  0.00  0.00    -0.367 OA
ATOM      2  N   UNL     1      34.188 -12.201 -24.703  0.00  0.00    +0.391 N 
ATOM      3  N   UNL     1      34.500 -14.940 -23.808  0.00  0.00    +0.393 N 
ATOM      4  C   UNL     1      32.677 -14.093 -25.276  0.00  0.00    +0.074 C 
ATOM      5  C   UNL     1      32.733 -13.359 -23.050  0.00  0.00    +0.074 C 
ATOM      6  C   UNL     1      33.356 -12.799 -25.756  0.00  0.00    -0.049 C 
ATOM      7  C   UNL     1      33.413 -12.044 -23.465  0.00  0.00    -0.049 C 
ATOM      8  C   UNL     1      33.635 -15.253 -24.953  0.00  0.00    -0.049 C 
ATOM      9  C   UNL     1      33.693 -14.498 -22.662  0.00  0.00    -0.049 C 
ATOM     10  H   UNL     1      34.965 -12.834 -24.514  0.00  0.00    -0.079 HD
ATOM     11  H   UNL     1      35.119 -14.175 -24.076  0.00  0.00    -0.079 HD
ENDROOT
BRANCH   2  12
ATOM     12  C   UNL     1      34.759 -10.930 -25.137  0.00  0.00    -0.055 C 
BRANCH  12  13
ATOM     13  C   UNL     1      34.769  -9.935 -23.986  0.00  0.00    +0.070 C 
BRANCH  13  15
ATOM     14  O   UNL     1      33.977  -7.748 -22.245  0.00  0.00    -0.226 OA
ATOM     15  N   UNL     1      34.121  -8.706 -24.355  0.00  0.00    -0.273 N 
ATOM     16  C   UNL     1      33.778  -7.713 -23.455  0.00  0.00    +0.401 C 
ATOM     17  H   UNL     1      33.908  -8.561 -25.305  0.00  0.00    +0.153 HD
BRANCH  16  18
ATOM     18  O   UNL     1      33.178  -6.676 -24.112  0.00  0.00    -0.442 OA
BRANCH  18  19
ATOM     19  C   UNL     1      31.825  -6.398 -23.735  0.00  0.00    +0.138 C 
ATOM     20  C   UNL     1      31.040  -7.708 -23.735  0.00  0.00    +0.044 C 
ATOM     21  C   UNL     1      31.854  -5.787 -22.335  0.00  0.00    +0.044 C 
ATOM     22  C   UNL     1      31.235  -5.409 -24.740  0.00  0.00    +0.044 C 
ENDBRANCH  18  19
ENDBRANCH  16  18
ENDBRANCH  13  15
ENDBRANCH  12  13
ENDBRANCH   2  12
BRANCH   3  23
ATOM     23  C   UNL     1      35.342 -16.078 -23.454  0.00  0.00    -0.029 C 
BRANCH  23  24
ATOM     24  C   UNL     1      34.622 -16.996 -22.478  0.00  0.00    +0.183 C 
BRANCH  24  25
ATOM     25  O   UNL     1      35.588 -17.645 -21.663  0.00  0.00    -0.475 OA
BRANCH  25  27
ATOM     26  F   UNL     1      37.479 -19.406 -20.700  0.00  0.00    -0.201 F 
ATOM     27  C   UNL     1      35.210 -18.825 -21.077  0.00  0.00    +0.166 C 
ATOM     28  C   UNL     1      36.177 -19.707 -20.594  0.00  0.00    +0.174 C 
ATOM     29  C   UNL     1      33.857 -19.143 -20.964  0.00  0.00    +0.040 C 
ATOM     30  C   UNL     1      35.790 -20.907 -19.998  0.00  0.00    +0.043 C 
ATOM     31  C   UNL     1      33.471 -20.344 -20.368  0.00  0.00    +0.014 C 
ATOM     32  C   UNL     1      34.438 -21.225 -19.885  0.00  0.00    +0.071 C 
BRANCH  32  34
ATOM     33  N   UNL     1      33.722 -23.455 -18.781  0.00  0.00    -0.191 NA
ATOM     34  C   UNL     1      34.042 -22.456 -19.276  0.00  0.00    +0.100 C 
ENDBRANCH  32  34
ENDBRANCH  25  27
ENDBRANCH  24  25
ENDBRANCH  23  24
ENDBRANCH   3  23
TORSDOF 10
ENDMDL
MODEL 2
REMARK VINA RESULT:      -9.0      4.346     11.718
REMARK  Name = 44182376
REMARK  10 active torsions:
REMARK  status: ('A' for Active; 'I' for Inactive)
REMARK    1  A    between atoms: N_2  and  C_12
REMARK    2  A    between atoms: N_3  and  C_23
REMARK    3  A    between atoms: C_12  and  C_13
REMARK    4  A    between atoms: C_13  and  N_15
REMARK    5  A    between atoms: C_16  and  O_18
REMARK    6  A    between atoms: O_18  and  C_19
REMARK    7  A    between atoms: C_23  and  C_24
REMARK    8  A    between atoms: C_24  and  O_25
REMARK    9  A    between atoms: O_25  and  C_27
REMARK   10  A    between atoms: C_32  and  C_34
REMARK                            x       y       z     vdW  Elec       q    Type
REMARK                         _______ _______ _______ _____ _____    ______ ____
ROOT
ATOM      1  O   UNL     1      34.980 -17.959 -20.652  0.00  0.00    -0.367 OA
ATOM      2  N   UNL     1      35.514 -20.777 -20.577  0.00  0.00    +0.391 N 
ATOM      3  N   UNL     1      35.132 -19.427 -23.113  0.00  0.00    +0.393 N 
ATOM      4  C   UNL     1      36.246 -18.459 -21.108  0.00  0.00    +0.074 C 
ATOM      5  C   UNL     1      33.944 -18.891 -20.992  0.00  0.00    +0.074 C 
ATOM      6  C   UNL     1      36.564 -19.771 -20.371  0.00  0.00    -0.049 C 
ATOM      7  C   UNL     1      34.196 -20.215 -20.251  0.00  0.00    -0.049 C 
ATOM      8  C   UNL     1      36.222 -18.561 -22.644  0.00  0.00    -0.049 C 
ATOM      9  C   UNL     1      33.853 -19.007 -22.524  0.00  0.00    -0.049 C 
ATOM     10  H   UNL     1      35.513 -21.040 -21.562  0.00  0.00    -0.079 HD
ATOM     11  H   UNL     1      35.327 -20.380 -22.804  0.00  0.00    -0.079 HD
ENDROOT
BRANCH   2  12
ATOM     12  C   UNL     1      35.780 -21.987 -19.804  0.00  0.00    -0.055 C 
BRANCH  12  13
ATOM     13  C   UNL     1      36.624 -21.658 -18.582  0.00  0.00    +0.070 C 
BRANCH  13  15
ATOM     14  O   UNL     1      37.773 -22.269 -15.985  0.00  0.00    -0.226 OA
ATOM     15  N   UNL     1      35.929 -21.984 -17.367  0.00  0.00    -0.273 N 
ATOM     16  C   UNL     1      36.560 -22.263 -16.167  0.00  0.00    +0.401 C 
ATOM     17  H   UNL     1      34.946 -22.010 -17.388  0.00  0.00    +0.153 HD
BRANCH  16  18
ATOM     18  O   UNL     1      35.629 -22.533 -15.204  0.00  0.00    -0.442 OA
BRANCH  18  19
ATOM     19  C   UNL     1      35.889 -23.682 -14.390  0.00  0.00    +0.138 C 
ATOM     20  C   UNL     1      36.822 -23.273 -13.253  0.00  0.00    +0.044 C 
ATOM     21  C   UNL     1      34.549 -24.168 -13.839  0.00  0.00    +0.044 C 
ATOM     22  C   UNL     1      36.533 -24.760 -15.263  0.00  0.00    +0.044 C 
ENDBRANCH  18  19
ENDBRANCH  16  18
ENDBRANCH  13  15
ENDBRANCH  12  13
ENDBRANCH   2  12
BRANCH   3  23
ATOM     23  C   UNL     1      35.061 -19.448 -24.570  0.00  0.00    -0.029 C 
BRANCH  23  24
ATOM     24  C   UNL     1      33.988 -18.493 -25.068  0.00  0.00    +0.183 C 
BRANCH  24  25
ATOM     25  O   UNL     1      34.617 -17.323 -25.575  0.00  0.00    -0.475 OA
BRANCH  25  27
ATOM     26  F   UNL     1      32.834 -15.687 -26.898  0.00  0.00    -0.201 F 
ATOM     27  C   UNL     1      34.227 -16.126 -25.030  0.00  0.00    +0.166 C 
ATOM     28  C   UNL     1      33.325 -15.309 -25.710  0.00  0.00    +0.174 C 
ATOM     29  C   UNL     1      34.735 -15.728 -23.793  0.00  0.00    +0.040 C 
ATOM     30  C   UNL     1      32.929 -14.093 -25.153  0.00  0.00    +0.043 C 
ATOM     31  C   UNL     1      34.340 -14.511 -23.237  0.00  0.00    +0.014 C 
ATOM     32  C   UNL     1      33.437 -13.694 -23.918  0.00  0.00    +0.071 C 
BRANCH  32  34
ATOM     33  N   UNL     1      32.705 -11.434 -22.887  0.00  0.00    -0.191 NA
ATOM     34  C   UNL     1      33.033 -12.447 -23.348  0.00  0.00    +0.100 C 
ENDBRANCH  32  34
ENDBRANCH  25  27
ENDBRANCH  24  25
ENDBRANCH  23  24
ENDBRANCH   3  23
TORSDOF 10
ENDMDL
MODEL 3
REMARK VINA RESULT:      -8.8      4.062      6.821
REMARK  Name = 44182376
REMARK  10 active torsions:
REMARK  status: ('A' for Active; 'I' for Inactive)
REMARK    1  A    between atoms: N_2  and  C_12
REMARK    2  A    between atoms: N_3  and  C_23
REMARK    3  A    between atoms: C_12  and  C_13
REMARK    4  A    between atoms: C_13  and  N_15
REMARK    5  A    between atoms: C_16  and  O_18
REMARK    6  A    between atoms: O_18  and  C_19
REMARK    7  A    between atoms: C_23  and  C_24
REMARK    8  A    between atoms: C_24  and  O_25
REMARK    9  A    between atoms: O_25  and  C_27
REMARK   10  A    between atoms: C_32  and  C_34
REMARK                            x       y       z     vdW  Elec       q    Type
REMARK                         _______ _______ _______ _____ _____    ______ ____
ROOT
ATOM      1  O   UNL     1      34.976 -17.705 -20.716  0.00  0.00    -0.367 OA
ATOM      2  N   UNL     1      34.742 -19.011 -23.260  0.00  0.00    +0.391 N 
ATOM      3  N   UNL     1      35.363 -20.543 -20.880  0.00  0.00    +0.393 N 
ATOM      4  C   UNL     1      33.857 -18.564 -20.978  0.00  0.00    +0.074 C 
ATOM      5  C   UNL     1      36.146 -18.230 -21.360  0.00  0.00    +0.074 C 
ATOM      6  C   UNL     1      33.571 -18.572 -22.490  0.00  0.00    -0.049 C 
ATOM      7  C   UNL     1      35.927 -18.229 -22.882  0.00  0.00    -0.049 C 
ATOM      8  C   UNL     1      34.128 -19.946 -20.357  0.00  0.00    -0.049 C 
ATOM      9  C   UNL     1      36.483 -19.602 -20.750  0.00  0.00    -0.049 C 
ATOM     10  H   UNL     1      34.923 -19.990 -23.037  0.00  0.00    -0.079 HD
ATOM     11  H   UNL     1      35.226 -20.740 -21.872  0.00  0.00    -0.079 HD
ENDROOT
BRANCH   2  12
ATOM     12  C   UNL     1      34.491 -18.933 -24.696  0.00  0.00    -0.055 C 
BRANCH  12  13
ATOM     13  C   UNL     1      34.852 -17.552 -25.222  0.00  0.00    +0.070 C 
BRANCH  13  15
ATOM     14  O   UNL     1      33.908 -15.170 -26.591  0.00  0.00    -0.226 OA
ATOM     15  N   UNL     1      33.945 -16.553 -24.727  0.00  0.00    -0.273 N 
ATOM     16  C   UNL     1      33.547 -15.444 -25.451  0.00  0.00    +0.401 C 
ATOM     17  H   UNL     1      33.585 -16.665 -23.818  0.00  0.00    +0.153 HD
BRANCH  16  18
ATOM     18  O   UNL     1      32.684 -14.688 -24.709  0.00  0.00    -0.442 OA
BRANCH  18  19
ATOM     19  C   UNL     1      33.289 -13.712 -23.853  0.00  0.00    +0.138 C 
ATOM     20  C   UNL     1      33.797 -12.558 -24.714  0.00  0.00    +0.044 C 
ATOM     21  C   UNL     1      32.215 -13.226 -22.880  0.00  0.00    +0.044 C 
ATOM     22  C   UNL     1      34.438 -14.375 -23.095  0.00  0.00    +0.044 C 
ENDBRANCH  18  19
ENDBRANCH  16  18
ENDBRANCH  13  15
ENDBRANCH  12  13
ENDBRANCH   2  12
BRANCH   3  23
ATOM     23  C   UNL     1      35.659 -21.812 -20.221  0.00  0.00    -0.029 C 
BRANCH  23  24
ATOM     24  C   UNL     1      34.528 -22.204 -19.282  0.00  0.00    +0.183 C 
BRANCH  24  25
ATOM     25  O   UNL     1      35.090 -22.726 -18.084  0.00  0.00    -0.475 OA
BRANCH  25  27
ATOM     26  F   UNL     1      36.020 -23.206 -15.533  0.00  0.00    -0.201 F 
ATOM     27  C   UNL     1      34.219 -23.005 -17.063  0.00  0.00    +0.166 C 
ATOM     28  C   UNL     1      34.702 -23.245 -15.778  0.00  0.00    +0.174 C 
ATOM     29  C   UNL     1      32.847 -23.047 -17.312  0.00  0.00    +0.040 C 
ATOM     30  C   UNL     1      33.814 -23.527 -14.740  0.00  0.00    +0.043 C 
ATOM     31  C   UNL     1      31.959 -23.330 -16.274  0.00  0.00    +0.014 C 
ATOM     32  C   UNL     1      32.443 -23.569 -14.988  0.00  0.00    +0.071 C 
BRANCH  32  34
ATOM     33  N   UNL     1      30.795 -24.097 -13.061  0.00  0.00    -0.191 NA
ATOM     34  C   UNL     1      31.533 -23.861 -13.925  0.00  0.00    +0.100 C 
ENDBRANCH  32  34
ENDBRANCH  25  27
ENDBRANCH  24  25
ENDBRANCH  23  24
ENDBRANCH   3  23
TORSDOF 10
ENDMDL
MODEL 4
REMARK VINA RESULT:      -8.8      7.937     12.633
REMARK  Name = 44182376
REMARK  10 active torsions:
REMARK  status: ('A' for Active; 'I' for Inactive)
REMARK    1  A    between atoms: N_2  and  C_12
REMARK    2  A    between atoms: N_3  and  C_23
REMARK    3  A    between atoms: C_12  and  C_13
REMARK    4  A    between atoms: C_13  and  N_15
REMARK    5  A    between atoms: C_16  and  O_18
REMARK    6  A    between atoms: O_18  and  C_19
REMARK    7  A    between atoms: C_23  and  C_24
REMARK    8  A    between atoms: C_24  and  O_25
REMARK    9  A    between atoms: O_25  and  C_27
REMARK   10  A    between atoms: C_32  and  C_34
REMARK                            x       y       z     vdW  Elec       q    Type
REMARK                         _______ _______ _______ _____ _____    ______ ____
ROOT
ATOM      1  O   UNL     1      37.800 -24.422 -13.373  0.00  0.00    -0.367 OA
ATOM      2  N   UNL     1      36.983 -22.663 -15.487  0.00  0.00    +0.391 N 
ATOM      3  N   UNL     1      35.085 -24.501 -14.296  0.00  0.00    +0.393 N 
ATOM      4  C   UNL     1      36.918 -23.326 -13.089  0.00  0.00    +0.074 C 
ATOM      5  C   UNL     1      37.503 -24.956 -14.671  0.00  0.00    +0.074 C 
ATOM      6  C   UNL     1      37.172 -22.200 -14.106  0.00  0.00    -0.049 C 
ATOM      7  C   UNL     1      37.774 -23.877 -15.733  0.00  0.00    -0.049 C 
ATOM      8  C   UNL     1      35.470 -23.847 -13.039  0.00  0.00    -0.049 C 
ATOM      9  C   UNL     1      36.073 -25.524 -14.667  0.00  0.00    -0.049 C 
ATOM     10  H   UNL     1      35.998 -22.895 -15.614  0.00  0.00    -0.079 HD
ATOM     11  H   UNL     1      35.068 -23.794 -15.031  0.00  0.00    -0.079 HD
ENDROOT
BRANCH   2  12
ATOM     12  C   UNL     1      37.310 -21.614 -16.447  0.00  0.00    -0.055 C 
BRANCH  12  13
ATOM     13  C   UNL     1      36.692 -21.925 -17.802  0.00  0.00    +0.070 C 
BRANCH  13  15
ATOM     14  O   UNL     1      35.775 -21.730 -20.552  0.00  0.00    -0.226 OA
ATOM     15  N   UNL     1      36.623 -20.750 -18.626  0.00  0.00    -0.273 N 
ATOM     16  C   UNL     1      36.171 -20.747 -19.933  0.00  0.00    +0.401 C 
ATOM     17  H   UNL     1      36.916 -19.894 -18.237  0.00  0.00    +0.153 HD
BRANCH  16  18
ATOM     18  O   UNL     1      36.227 -19.481 -20.443  0.00  0.00    -0.442 OA
BRANCH  18  19
ATOM     19  C   UNL     1      35.077 -19.054 -21.181  0.00  0.00    +0.138 C 
ATOM     20  C   UNL     1      33.850 -19.779 -20.633  0.00  0.00    +0.044 C 
ATOM     21  C   UNL     1      34.942 -17.544 -20.989  0.00  0.00    +0.044 C 
ATOM     22  C   UNL     1      35.294 -19.389 -22.656  0.00  0.00    +0.044 C 
ENDBRANCH  18  19
ENDBRANCH  16  18
ENDBRANCH  13  15
ENDBRANCH  12  13
ENDBRANCH   2  12
BRANCH   3  23
ATOM     23  C   UNL     1      33.743 -25.070 -14.208  0.00  0.00    -0.029 C 
BRANCH  23  24
ATOM     24  C   UNL     1      32.756 -24.036 -13.690  0.00  0.00    +0.183 C 
BRANCH  24  25
ATOM     25  O   UNL     1      31.464 -24.627 -13.631  0.00  0.00    -0.475 OA
BRANCH  25  27
ATOM     26  F   UNL     1      29.647 -26.275 -14.890  0.00  0.00    -0.201 F 
ATOM     27  C   UNL     1      30.508 -24.107 -14.463  0.00  0.00    +0.166 C 
ATOM     28  C   UNL     1      29.594 -24.951 -15.094  0.00  0.00    +0.174 C 
ATOM     29  C   UNL     1      30.449 -22.729 -14.679  0.00  0.00    +0.040 C 
ATOM     30  C   UNL     1      28.621 -24.419 -15.939  0.00  0.00    +0.043 C 
ATOM     31  C   UNL     1      29.475 -22.198 -15.525  0.00  0.00    +0.014 C 
ATOM     32  C   UNL     1      28.562 -23.043 -16.154  0.00  0.00    +0.071 C 
BRANCH  32  34
ATOM     33  N   UNL     1      26.756 -22.057 -17.727  0.00  0.00    -0.191 NA
ATOM     34  C   UNL     1      27.565 -22.498 -17.022  0.00  0.00    +0.100 C 
ENDBRANCH  32  34
ENDBRANCH  25  27
ENDBRANCH  24  25
ENDBRANCH  23  24
ENDBRANCH   3  23
TORSDOF 10
ENDMDL
MODEL 5
REMARK VINA RESULT:      -8.6      2.946     11.555
REMARK  Name = 44182376
REMARK  10 active torsions:
REMARK  status: ('A' for Active; 'I' for Inactive)
REMARK    1  A    between atoms: N_2  and  C_12
REMARK    2  A    between atoms: N_3  and  C_23
REMARK    3  A    between atoms: C_12  and  C_13
REMARK    4  A    between atoms: C_13  and  N_15
REMARK    5  A    between atoms: C_16  and  O_18
REMARK    6  A    between atoms: O_18  and  C_19
REMARK    7  A    between atoms: C_23  and  C_24
REMARK    8  A    between atoms: C_24  and  O_25
REMARK    9  A    between atoms: O_25  and  C_27
REMARK   10  A    between atoms: C_32  and  C_34
REMARK                            x       y       z     vdW  Elec       q    Type
REMARK                         _______ _______ _______ _____ _____    ______ ____
ROOT
ATOM      1  O   UNL     1      31.942 -14.027 -23.938  0.00  0.00    -0.367 OA
ATOM      2  N   UNL     1      34.236 -14.514 -22.286  0.00  0.00    +0.391 N 
ATOM      3  N   UNL     1      33.993 -12.029 -23.757  0.00  0.00    +0.393 N 
ATOM      4  C   UNL     1      32.114 -13.289 -22.720  0.00  0.00    +0.074 C 
ATOM      5  C   UNL     1      33.222 -14.261 -24.544  0.00  0.00    +0.074 C 
ATOM      6  C   UNL     1      32.930 -14.137 -21.729  0.00  0.00    -0.049 C 
ATOM      7  C   UNL     1      34.070 -15.136 -23.606  0.00  0.00    -0.049 C 
ATOM      8  C   UNL     1      32.713 -11.910 -23.048  0.00  0.00    -0.049 C 
ATOM      9  C   UNL     1      33.853 -12.910 -24.924  0.00  0.00    -0.049 C 
ATOM     10  H   UNL     1      34.790 -13.666 -22.401  0.00  0.00    -0.079 HD
ATOM     11  H   UNL     1      34.672 -12.449 -23.121  0.00  0.00    -0.079 HD
ENDROOT
BRANCH   2  12
ATOM     12  C   UNL     1      34.967 -15.390 -21.375  0.00  0.00    -0.055 C 
BRANCH  12  13
ATOM     13  C   UNL     1      34.360 -16.784 -21.381  0.00  0.00    +0.070 C 
BRANCH  13  15
ATOM     14  O   UNL     1      35.356 -19.358 -22.287  0.00  0.00    -0.226 OA
ATOM     15  N   UNL     1      35.183 -17.714 -20.657  0.00  0.00    -0.273 N 
ATOM     16  C   UNL     1      35.614 -18.925 -21.168  0.00  0.00    +0.401 C 
ATOM     17  H   UNL     1      35.457 -17.475 -19.742  0.00  0.00    +0.153 HD
BRANCH  16  18
ATOM     18  O   UNL     1      36.377 -19.577 -20.241  0.00  0.00    -0.442 OA
BRANCH  18  19
ATOM     19  C   UNL     1      35.922 -20.882 -19.865  0.00  0.00    +0.138 C 
ATOM     20  C   UNL     1      34.395 -20.875 -19.836  0.00  0.00    +0.044 C 
ATOM     21  C   UNL     1      36.437 -21.867 -20.913  0.00  0.00    +0.044 C 
ATOM     22  C   UNL     1      36.492 -21.217 -18.487  0.00  0.00    +0.044 C 
ENDBRANCH  18  19
ENDBRANCH  16  18
ENDBRANCH  13  15
ENDBRANCH  12  13
ENDBRANCH   2  12
BRANCH   3  23
ATOM     23  C   UNL     1      34.509 -10.719 -24.142  0.00  0.00    -0.029 C 
BRANCH  23  24
ATOM     24  C   UNL     1      33.445  -9.648 -23.959  0.00  0.00    +0.183 C 
BRANCH  24  25
ATOM     25  O   UNL     1      34.007  -8.565 -23.230  0.00  0.00    -0.475 OA
BRANCH  25  27
ATOM     26  F   UNL     1      33.041  -7.780 -20.770  0.00  0.00    -0.201 F 
ATOM     27  C   UNL     1      33.237  -7.437 -23.108  0.00  0.00    +0.166 C 
ATOM     28  C   UNL     1      32.755  -7.051 -21.858  0.00  0.00    +0.174 C 
ATOM     29  C   UNL     1      32.937  -6.675 -24.237  0.00  0.00    +0.040 C 
ATOM     30  C   UNL     1      31.974  -5.902 -21.736  0.00  0.00    +0.043 C 
ATOM     31  C   UNL     1      32.155  -5.527 -24.115  0.00  0.00    +0.014 C 
ATOM     32  C   UNL     1      31.674  -5.141 -22.864  0.00  0.00    +0.071 C 
BRANCH  32  34
ATOM     33  N   UNL     1      30.221  -3.009 -22.638  0.00  0.00    -0.191 NA
ATOM     34  C   UNL     1      30.871  -3.964 -22.739  0.00  0.00    +0.100 C 
ENDBRANCH  32  34
ENDBRANCH  25  27
ENDBRANCH  24  25
ENDBRANCH  23  24
ENDBRANCH   3  23
TORSDOF 10
ENDMDL
MODEL 6
REMARK VINA RESULT:      -8.5      3.702     11.997
REMARK  Name = 44182376
REMARK  10 active torsions:
REMARK  status: ('A' for Active; 'I' for Inactive)
REMARK    1  A    between atoms: N_2  and  C_12
REMARK    2  A    between atoms: N_3  and  C_23
REMARK    3  A    between atoms: C_12  and  C_13
REMARK    4  A    between atoms: C_13  and  N_15
REMARK    5  A    between atoms: C_16  and  O_18
REMARK    6  A    between atoms: O_18  and  C_19
REMARK    7  A    between atoms: C_23  and  C_24
REMARK    8  A    between atoms: C_24  and  O_25
REMARK    9  A    between atoms: O_25  and  C_27
REMARK   10  A    between atoms: C_32  and  C_34
REMARK                            x       y       z     vdW  Elec       q    Type
REMARK                         _______ _______ _______ _____ _____    ______ ____
ROOT
ATOM      1  O   UNL     1      34.612 -19.384 -22.690  0.00  0.00    -0.367 OA
ATOM      2  N   UNL     1      36.070 -19.665 -20.235  0.00  0.00    +0.391 N 
ATOM      3  N   UNL     1      34.773 -17.157 -20.888  0.00  0.00    +0.393 N 
ATOM      4  C   UNL     1      33.907 -19.424 -21.441  0.00  0.00    +0.074 C 
ATOM      5  C   UNL     1      35.859 -18.695 -22.516  0.00  0.00    +0.074 C 
ATOM      6  C   UNL     1      34.729 -20.234 -20.424  0.00  0.00    -0.049 C 
ATOM      7  C   UNL     1      36.737 -19.484 -21.531  0.00  0.00    -0.049 C 
ATOM      8  C   UNL     1      33.567 -17.986 -21.010  0.00  0.00    -0.049 C 
ATOM      9  C   UNL     1      35.577 -17.236 -22.116  0.00  0.00    -0.049 C 
ATOM     10  H   UNL     1      35.969 -18.749 -19.798  0.00  0.00    -0.079 HD
ATOM     11  H   UNL     1      35.334 -17.521 -20.117  0.00  0.00    -0.079 HD
ENDROOT
BRANCH   2  12
ATOM     12  C   UNL     1      36.872 -20.489 -19.335  0.00  0.00    -0.055 C 
BRANCH  12  13
ATOM     13  C   UNL     1      36.069 -21.691 -18.862  0.00  0.00    +0.070 C 
BRANCH  13  15
ATOM     14  O   UNL     1      34.509 -23.480 -17.188  0.00  0.00    -0.226 OA
ATOM     15  N   UNL     1      36.102 -21.809 -17.431  0.00  0.00    -0.273 N 
ATOM     16  C   UNL     1      35.320 -22.693 -16.709  0.00  0.00    +0.401 C 
ATOM     17  H   UNL     1      36.719 -21.225 -16.932  0.00  0.00    +0.153 HD
BRANCH  16  18
ATOM     18  O   UNL     1      35.581 -22.564 -15.375  0.00  0.00    -0.442 OA
BRANCH  18  19
ATOM     19  C   UNL     1      36.371 -23.606 -14.790  0.00  0.00    +0.138 C 
ATOM     20  C   UNL     1      35.660 -24.939 -15.014  0.00  0.00    +0.044 C 
ATOM     21  C   UNL     1      37.731 -23.597 -15.486  0.00  0.00    +0.044 C 
ATOM     22  C   UNL     1      36.530 -23.317 -13.298  0.00  0.00    +0.044 C 
ENDBRANCH  18  19
ENDBRANCH  16  18
ENDBRANCH  13  15
ENDBRANCH  12  13
ENDBRANCH   2  12
BRANCH   3  23
ATOM     23  C   UNL     1      34.436 -15.774 -20.566  0.00  0.00    -0.029 C 
BRANCH  23  24
ATOM     24  C   UNL     1      33.017 -15.451 -21.009  0.00  0.00    +0.183 C 
BRANCH  24  25
ATOM     25  O   UNL     1      33.069 -14.835 -22.290  0.00  0.00    -0.475 OA
BRANCH  25  27
ATOM     26  F   UNL     1      34.062 -13.244 -24.311  0.00  0.00    -0.201 F 
ATOM     27  C   UNL     1      32.757 -13.502 -22.347  0.00  0.00    +0.166 C 
ATOM     28  C   UNL     1      33.266 -12.708 -23.375  0.00  0.00    +0.174 C 
ATOM     29  C   UNL     1      31.929 -12.939 -21.375  0.00  0.00    +0.040 C 
ATOM     30  C   UNL     1      32.946 -11.351 -23.432  0.00  0.00    +0.043 C 
ATOM     31  C   UNL     1      31.610 -11.582 -21.433  0.00  0.00    +0.014 C 
ATOM     32  C   UNL     1      32.119 -10.789 -22.461  0.00  0.00    +0.071 C 
BRANCH  32  34
ATOM     33  N   UNL     1      31.530  -8.270 -22.565  0.00  0.00    -0.191 NA
ATOM     34  C   UNL     1      31.793  -9.398 -22.519  0.00  0.00    +0.100 C 
ENDBRANCH  32  34
ENDBRANCH  25  27
ENDBRANCH  24  25
ENDBRANCH  23  24
ENDBRANCH   3  23
TORSDOF 10
ENDMDL
MODEL 7
REMARK VINA RESULT:      -8.5      3.232      5.910
REMARK  Name = 44182376
REMARK  10 active torsions:
REMARK  status: ('A' for Active; 'I' for Inactive)
REMARK    1  A    between atoms: N_2  and  C_12
REMARK    2  A    between atoms: N_3  and  C_23
REMARK    3  A    between atoms: C_12  and  C_13
REMARK    4  A    between atoms: C_13  and  N_15
REMARK    5  A    between atoms: C_16  and  O_18
REMARK    6  A    between atoms: O_18  and  C_19
REMARK    7  A    between atoms: C_23  and  C_24
REMARK    8  A    between atoms: C_24  and  O_25
REMARK    9  A    between atoms: O_25  and  C_27
REMARK   10  A    between atoms: C_32  and  C_34
REMARK                            x       y       z     vdW  Elec       q    Type
REMARK                         _______ _______ _______ _____ _____    ______ ____
ROOT
ATOM      1  O   UNL     1      33.827  -8.099 -21.899  0.00  0.00    -0.367 OA
ATOM      2  N   UNL     1      31.406  -6.996 -22.976  0.00  0.00    +0.391 N 
ATOM      3  N   UNL     1      31.524  -9.784 -22.194  0.00  0.00    +0.393 N 
ATOM      4  C   UNL     1      32.689  -7.907 -21.047  0.00  0.00    +0.074 C 
ATOM      5  C   UNL     1      33.388  -8.484 -23.210  0.00  0.00    +0.074 C 
ATOM      6  C   UNL     1      31.840  -6.747 -21.594  0.00  0.00    -0.049 C 
ATOM      7  C   UNL     1      32.559  -7.341 -23.819  0.00  0.00    -0.049 C 
ATOM      8  C   UNL     1      31.945  -9.246 -20.894  0.00  0.00    -0.049 C 
ATOM      9  C   UNL     1      32.664  -9.839 -23.120  0.00  0.00    -0.049 C 
ATOM     10  H   UNL     1      30.767  -7.790 -22.971  0.00  0.00    -0.079 HD
ATOM     11  H   UNL     1      30.824  -9.156 -22.588  0.00  0.00    -0.079 HD
ENDROOT
BRANCH   2  12
ATOM     12  C   UNL     1      30.676  -5.854 -23.516  0.00  0.00    -0.055 C 
BRANCH  12  13
ATOM     13  C   UNL     1      31.134  -4.568 -22.845  0.00  0.00    +0.070 C 
BRANCH  13  15
ATOM     14  O   UNL     1      30.070  -2.882 -24.958  0.00  0.00    -0.226 OA
ATOM     15  N   UNL     1      31.866  -3.735 -23.759  0.00  0.00    -0.273 N 
ATOM     16  C   UNL     1      31.275  -2.960 -24.741  0.00  0.00    +0.401 C 
ATOM     17  H   UNL     1      32.847  -3.714 -23.682  0.00  0.00    +0.153 HD
BRANCH  16  18
ATOM     18  O   UNL     1      32.234  -2.287 -25.442  0.00  0.00    -0.442 OA
BRANCH  18  19
ATOM     19  C   UNL     1      32.610  -2.864 -26.698  0.00  0.00    +0.138 C 
ATOM     20  C   UNL     1      31.564  -2.482 -27.742  0.00  0.00    +0.044 C 
ATOM     21  C   UNL     1      33.979  -2.297 -27.073  0.00  0.00    +0.044 C 
ATOM     22  C   UNL     1      32.686  -4.382 -26.531  0.00  0.00    +0.044 C 
ENDBRANCH  18  19
ENDBRANCH  16  18
ENDBRANCH  13  15
ENDBRANCH  12  13
ENDBRANCH   2  12
BRANCH   3  23
ATOM     23  C   UNL     1      30.899 -11.095 -22.047  0.00  0.00    -0.029 C 
BRANCH  23  24
ATOM     24  C   UNL     1      31.906 -12.115 -21.539  0.00  0.00    +0.183 C 
BRANCH  24  25
ATOM     25  O   UNL     1      32.043 -13.145 -22.510  0.00  0.00    -0.475 OA
BRANCH  25  27
ATOM     26  F   UNL     1      33.202 -14.713 -24.459  0.00  0.00    -0.201 F 
ATOM     27  C   UNL     1      32.831 -14.214 -22.170  0.00  0.00    +0.166 C 
ATOM     28  C   UNL     1      33.412 -14.999 -23.166  0.00  0.00    +0.174 C 
ATOM     29  C   UNL     1      33.052 -14.515 -20.826  0.00  0.00    +0.040 C 
ATOM     30  C   UNL     1      34.214 -16.086 -22.818  0.00  0.00    +0.043 C 
ATOM     31  C   UNL     1      33.854 -15.603 -20.479  0.00  0.00    +0.014 C 
ATOM     32  C   UNL     1      34.435 -16.387 -21.475  0.00  0.00    +0.071 C 
BRANCH  32  34
ATOM     33  N   UNL     1      35.921 -18.407 -20.831  0.00  0.00    -0.191 NA
ATOM     34  C   UNL     1      35.255 -17.502 -21.119  0.00  0.00    +0.100 C 
ENDBRANCH  32  34
ENDBRANCH  25  27
ENDBRANCH  24  25
ENDBRANCH  23  24
ENDBRANCH   3  23
TORSDOF 10
ENDMDL
MODEL 8
REMARK VINA RESULT:      -8.4      2.129      3.154
REMARK  Name = 44182376
REMARK  10 active torsions:
REMARK  status: ('A' for Active; 'I' for Inactive)
REMARK    1  A    between atoms: N_2  and  C_12
REMARK    2  A    between atoms: N_3  and  C_23
REMARK    3  A    between atoms: C_12  and  C_13
REMARK    4  A    between atoms: C_13  and  N_15
REMARK    5  A    between atoms: C_16  and  O_18
REMARK    6  A    between atoms: O_18  and  C_19
REMARK    7  A    between atoms: C_23  and  C_24
REMARK    8  A    between atoms: C_24  and  O_25
REMARK    9  A    between atoms: O_25  and  C_27
REMARK   10  A    between atoms: C_32  and  C_34
REMARK                            x       y       z     vdW  Elec       q    Type
REMARK                         _______ _______ _______ _____ _____    ______ ____
ROOT
ATOM      1  O   UNL     1      33.580 -14.494 -20.125  0.00  0.00    -0.367 OA
ATOM      2  N   UNL     1      33.323 -14.217 -22.969  0.00  0.00    +0.391 N 
ATOM      3  N   UNL     1      33.759 -16.826 -21.786  0.00  0.00    +0.393 N 
ATOM      4  C   UNL     1      32.408 -14.989 -20.788  0.00  0.00    +0.074 C 
ATOM      5  C   UNL     1      34.726 -14.683 -20.968  0.00  0.00    +0.074 C 
ATOM      6  C   UNL     1      32.166 -14.167 -22.065  0.00  0.00    -0.049 C 
ATOM      7  C   UNL     1      34.551 -13.852 -22.250  0.00  0.00    -0.049 C 
ATOM      8  C   UNL     1      32.558 -16.506 -21.005  0.00  0.00    -0.049 C 
ATOM      9  C   UNL     1      34.943 -16.190 -21.191  0.00  0.00    -0.049 C 
ATOM     10  H   UNL     1      33.423 -15.174 -23.306  0.00  0.00    -0.079 HD
ATOM     11  H   UNL     1      33.637 -16.452 -22.728  0.00  0.00    -0.079 HD
ENDROOT
BRANCH   2  12
ATOM     12  C   UNL     1      33.119 -13.365 -24.137  0.00  0.00    -0.055 C 
BRANCH  12  13
ATOM     13  C   UNL     1      34.051 -12.164 -24.084  0.00  0.00    +0.070 C 
BRANCH  13  15
ATOM     14  O   UNL     1      32.561 -10.656 -22.098  0.00  0.00    -0.226 OA
ATOM     15  N   UNL     1      33.329 -10.936 -24.271  0.00  0.00    -0.273 N 
ATOM     16  C   UNL     1      32.643 -10.282 -23.263  0.00  0.00    +0.401 C 
ATOM     17  H   UNL     1      33.321 -10.535 -25.170  0.00  0.00    +0.153 HD
BRANCH  16  18
ATOM     18  O   UNL     1      32.063  -9.147 -23.755  0.00  0.00    -0.442 OA
BRANCH  18  19
ATOM     19  C   UNL     1      32.589  -7.911 -23.258  0.00  0.00    +0.138 C 
ATOM     20  C   UNL     1      34.114  -7.997 -23.258  0.00  0.00    +0.044 C 
ATOM     21  C   UNL     1      32.112  -6.800 -24.191  0.00  0.00    +0.044 C 
ATOM     22  C   UNL     1      32.055  -7.690 -21.843  0.00  0.00    +0.044 C 
ENDBRANCH  18  19
ENDBRANCH  16  18
ENDBRANCH  13  15
ENDBRANCH  12  13
ENDBRANCH   2  12
BRANCH   3  23
ATOM     23  C   UNL     1      33.941 -18.269 -21.912  0.00  0.00    -0.029 C 
BRANCH  23  24
ATOM     24  C   UNL     1      35.174 -18.722 -21.145  0.00  0.00    +0.183 C 
BRANCH  24  25
ATOM     25  O   UNL     1      35.304 -20.131 -21.283  0.00  0.00    -0.475 OA
BRANCH  25  27
ATOM     26  F   UNL     1      32.785 -21.060 -20.654  0.00  0.00    -0.201 F 
ATOM     27  C   UNL     1      35.097 -20.884 -20.156  0.00  0.00    +0.166 C 
ATOM     28  C   UNL     1      33.818 -21.347 -19.849  0.00  0.00    +0.174 C 
ATOM     29  C   UNL     1      36.169 -21.186 -19.315  0.00  0.00    +0.040 C 
ATOM     30  C   UNL     1      33.610 -22.114 -18.703  0.00  0.00    +0.043 C 
ATOM     31  C   UNL     1      35.960 -21.952 -18.168  0.00  0.00    +0.014 C 
ATOM     32  C   UNL     1      34.681 -22.416 -17.863  0.00  0.00    +0.071 C 
BRANCH  32  34
ATOM     33  N   UNL     1      34.293 -23.837 -15.733  0.00  0.00    -0.191 NA
ATOM     34  C   UNL     1      34.467 -23.200 -16.687  0.00  0.00    +0.100 C 
ENDBRANCH  32  34
ENDBRANCH  25  27
ENDBRANCH  24  25
ENDBRANCH  23  24
ENDBRANCH   3  23
TORSDOF 10
ENDMDL
MODEL 9
REMARK VINA RESULT:      -8.4      3.378      6.065
REMARK  Name = 44182376
REMARK  10 active torsions:
REMARK  status: ('A' for Active; 'I' for Inactive)
REMARK    1  A    between atoms: N_2  and  C_12
REMARK    2  A    between atoms: N_3  and  C_23
REMARK    3  A    between atoms: C_12  and  C_13
REMARK    4  A    between atoms: C_13  and  N_15
REMARK    5  A    between atoms: C_16  and  O_18
REMARK    6  A    between atoms: O_18  and  C_19
REMARK    7  A    between atoms: C_23  and  C_24
REMARK    8  A    between atoms: C_24  and  O_25
REMARK    9  A    between atoms: O_25  and  C_27
REMARK   10  A    between atoms: C_32  and  C_34
REMARK                            x       y       z     vdW  Elec       q    Type
REMARK                         _______ _______ _______ _____ _____    ______ ____
ROOT
ATOM      1  O   UNL     1      33.934  -7.826 -21.886  0.00  0.00    -0.367 OA
ATOM      2  N   UNL     1      31.481  -6.819 -22.983  0.00  0.00    +0.391 N 
ATOM      3  N   UNL     1      31.688  -9.590 -22.161  0.00  0.00    +0.393 N 
ATOM      4  C   UNL     1      32.788  -7.660 -21.039  0.00  0.00    +0.074 C 
ATOM      5  C   UNL     1      33.510  -8.244 -23.192  0.00  0.00    +0.074 C 
ATOM      6  C   UNL     1      31.902  -6.536 -21.605  0.00  0.00    -0.049 C 
ATOM      7  C   UNL     1      32.646  -7.138 -23.819  0.00  0.00    -0.049 C 
ATOM      8  C   UNL     1      32.088  -9.020 -20.868  0.00  0.00    -0.049 C 
ATOM      9  C   UNL     1      32.831  -9.621 -23.084  0.00  0.00    -0.049 C 
ATOM     10  H   UNL     1      30.868  -7.634 -22.968  0.00  0.00    -0.079 HD
ATOM     11  H   UNL     1      30.968  -8.990 -22.566  0.00  0.00    -0.079 HD
ENDROOT
BRANCH   2  12
ATOM     12  C   UNL     1      30.715  -5.709 -23.541  0.00  0.00    -0.055 C 
BRANCH  12  13
ATOM     13  C   UNL     1      31.110  -4.403 -22.870  0.00  0.00    +0.070 C 
BRANCH  13  15
ATOM     14  O   UNL     1      30.016  -2.825 -25.049  0.00  0.00    -0.226 OA
ATOM     15  N   UNL     1      31.820  -3.545 -23.778  0.00  0.00    -0.273 N 
ATOM     16  C   UNL     1      31.216  -2.825 -24.794  0.00  0.00    +0.401 C 
ATOM     17  H   UNL     1      32.795  -3.463 -23.671  0.00  0.00    +0.153 HD
BRANCH  16  18
ATOM     18  O   UNL     1      32.155  -2.108 -25.479  0.00  0.00    -0.442 OA
BRANCH  18  19
ATOM     19  C   UNL     1      32.566  -2.659 -26.735  0.00  0.00    +0.138 C 
ATOM     20  C   UNL     1      33.940  -2.093 -27.089  0.00  0.00    +0.044 C 
ATOM     21  C   UNL     1      32.635  -4.176 -26.572  0.00  0.00    +0.044 C 
ATOM     22  C   UNL     1      31.531  -2.280 -27.794  0.00  0.00    +0.044 C 
ENDBRANCH  18  19
ENDBRANCH  16  18
ENDBRANCH  13  15
ENDBRANCH  12  13
ENDBRANCH   2  12
BRANCH   3  23
ATOM     23  C   UNL     1      31.106 -10.919 -21.997  0.00  0.00    -0.029 C 
BRANCH  23  24
ATOM     24  C   UNL     1      32.085 -11.992 -22.446  0.00  0.00    +0.183 C 
BRANCH  24  25
ATOM     25  O   UNL     1      32.053 -13.060 -21.508  0.00  0.00    -0.475 OA
BRANCH  25  27
ATOM     26  F   UNL     1      32.433 -15.019 -19.604  0.00  0.00    -0.201 F 
ATOM     27  C   UNL     1      32.880 -14.125 -21.755  0.00  0.00    +0.166 C 
ATOM     28  C   UNL     1      33.064 -15.109 -20.784  0.00  0.00    +0.174 C 
ATOM     29  C   UNL     1      33.539 -14.224 -22.981  0.00  0.00    +0.040 C 
ATOM     30  C   UNL     1      33.905 -16.192 -21.038  0.00  0.00    +0.043 C 
ATOM     31  C   UNL     1      34.380 -15.307 -23.235  0.00  0.00    +0.014 C 
ATOM     32  C   UNL     1      34.563 -16.291 -22.263  0.00  0.00    +0.071 C 
BRANCH  32  34
ATOM     33  N   UNL     1      36.127 -18.300 -22.734  0.00  0.00    -0.191 NA
ATOM     34  C   UNL     1      35.426 -17.400 -22.523  0.00  0.00    +0.100 C 
ENDBRANCH  32  34
ENDBRANCH  25  27
ENDBRANCH  24  25
ENDBRANCH  23  24
ENDBRANCH   3  23
TORSDOF 10
ENDMDL
