MODEL 1
REMARK VINA RESULT:      -7.9      0.000      0.000
REMARK  Name = 28688
REMARK  2 active torsions:
REMARK  status: ('A' for Active; 'I' for Inactive)
REMARK    1  A    between atoms: C_2  and  C_11
REMARK    2  A    between atoms: C_11  and  C_14
REMARK                            x       y       z     vdW  Elec       q    Type
REMARK                         _______ _______ _______ _____ _____    ______ ____
ROOT
ATOM      1  S   UNL     1      34.244 -17.093 -24.822  0.00  0.00    -0.092 S 
ATOM      2  C   UNL     1      35.170 -18.090 -22.653  0.00  0.00    -0.012 A 
ATOM      3  C   UNL     1      34.781 -16.751 -22.316  0.00  0.00    +0.003 A 
ATOM      4  C   UNL     1      34.933 -18.400 -23.971  0.00  0.00    +0.004 A 
ATOM      5  C   UNL     1      34.252 -16.083 -23.424  0.00  0.00    +0.029 A 
ATOM      6  C   UNL     1      34.856 -16.052 -21.087  0.00  0.00    +0.000 C 
ATOM      7  C   UNL     1      35.194 -19.669 -24.688  0.00  0.00    +0.038 C 
ATOM      8  C   UNL     1      33.801 -14.751 -23.336  0.00  0.00    +0.006 C 
ATOM      9  C   UNL     1      34.409 -14.731 -20.996  0.00  0.00    +0.000 C 
ATOM     10  C   UNL     1      33.888 -14.089 -22.111  0.00  0.00    +0.001 C 
ENDROOT
BRANCH   2  11
ATOM     11  C   UNL     1      35.766 -19.043 -21.682  0.00  0.00    +0.088 C 
BRANCH  11  14
ATOM     12  N   UNL     1      35.052 -20.837 -20.107  0.00  0.00    -0.299 N 
ATOM     13  N   UNL     1      33.444 -19.531 -21.050  0.00  0.00    -0.232 NA
ATOM     14  C   UNL     1      34.717 -19.815 -20.944  0.00  0.00    +0.113 C 
ATOM     15  C   UNL     1      33.876 -21.379 -19.498  0.00  0.00    +0.084 C 
ATOM     16  C   UNL     1      32.778 -20.531 -20.159  0.00  0.00    +0.116 C 
ATOM     17  H   UNL     1      35.969 -21.155 -19.945  0.00  0.00    +0.153 HD
ENDBRANCH  11  14
ENDBRANCH   2  11
TORSDOF 2
ENDMDL
MODEL 2
REMARK VINA RESULT:      -7.7      6.435      8.863
REMARK  Name = 28688
REMARK  2 active torsions:
REMARK  status: ('A' for Active; 'I' for Inactive)
REMARK    1  A    between atoms: C_2  and  C_11
REMARK    2  A    between atoms: C_11  and  C_14
REMARK                            x       y       z     vdW  Elec       q    Type
REMARK                         _______ _______ _______ _____ _____    ______ ____
ROOT
ATOM      1  S   UNL     1      32.911 -23.412 -16.782  0.00  0.00    -0.092 S 
ATOM      2  C   UNL     1      35.082 -23.134 -15.454  0.00  0.00    -0.012 A 
ATOM      3  C   UNL     1      35.367 -22.603 -16.756  0.00  0.00    +0.003 A 
ATOM      4  C   UNL     1      33.795 -23.601 -15.337  0.00  0.00    +0.004 A 
ATOM      5  C   UNL     1      34.252 -22.694 -17.595  0.00  0.00    +0.029 A 
ATOM      6  C   UNL     1      36.553 -22.034 -17.280  0.00  0.00    +0.000 C 
ATOM      7  C   UNL     1      33.133 -24.212 -14.163  0.00  0.00    +0.038 C 
ATOM      8  C   UNL     1      34.293 -22.236 -18.927  0.00  0.00    +0.006 C 
ATOM      9  C   UNL     1      36.596 -21.577 -18.600  0.00  0.00    +0.000 C 
ATOM     10  C   UNL     1      35.476 -21.679 -19.414  0.00  0.00    +0.001 C 
ENDROOT
BRANCH   2  11
ATOM     11  C   UNL     1      36.073 -23.175 -14.348  0.00  0.00    +0.088 C 
BRANCH  11  14
ATOM     12  N   UNL     1      36.525 -25.618 -14.528  0.00  0.00    -0.299 N 
ATOM     13  N   UNL     1      38.298 -24.190 -14.560  0.00  0.00    -0.232 NA
ATOM     14  C   UNL     1      37.001 -24.342 -14.474  0.00  0.00    +0.113 C 
ATOM     15  C   UNL     1      37.609 -26.539 -14.689  0.00  0.00    +0.084 C 
ATOM     16  C   UNL     1      38.816 -25.589 -14.670  0.00  0.00    +0.116 C 
ATOM     17  H   UNL     1      35.576 -25.869 -14.467  0.00  0.00    +0.153 HD
ENDBRANCH  11  14
ENDBRANCH   2  11
TORSDOF 2
ENDMDL
MODEL 3
REMARK VINA RESULT:      -7.5      8.455     11.226
REMARK  Name = 28688
REMARK  2 active torsions:
REMARK  status: ('A' for Active; 'I' for Inactive)
REMARK    1  A    between atoms: C_2  and  C_11
REMARK    2  A    between atoms: C_11  and  C_14
REMARK                            x       y       z     vdW  Elec       q    Type
REMARK                         _______ _______ _______ _____ _____    ______ ____
ROOT
ATOM      1  S   UNL     1      31.312  -6.049 -22.529  0.00  0.00    -0.092 S 
ATOM      2  C   UNL     1      33.515  -7.104 -23.296  0.00  0.00    -0.012 A 
ATOM      3  C   UNL     1      33.152  -6.190 -24.341  0.00  0.00    +0.003 A 
ATOM      4  C   UNL     1      32.609  -7.123 -22.263  0.00  0.00    +0.004 A 
ATOM      5  C   UNL     1      31.951  -5.537 -24.047  0.00  0.00    +0.029 A 
ATOM      6  C   UNL     1      33.803  -5.877 -25.558  0.00  0.00    +0.000 C 
ATOM      7  C   UNL     1      32.636  -7.925 -21.019  0.00  0.00    +0.038 C 
ATOM      8  C   UNL     1      31.392  -4.591 -24.929  0.00  0.00    +0.006 C 
ATOM      9  C   UNL     1      33.252  -4.938 -26.434  0.00  0.00    +0.000 C 
ATOM     10  C   UNL     1      32.058  -4.303 -26.120  0.00  0.00    +0.001 C 
ENDROOT
BRANCH   2  11
ATOM     11  C   UNL     1      34.741  -7.942 -23.325  0.00  0.00    +0.088 C 
BRANCH  11  14
ATOM     12  N   UNL     1      35.262  -9.606 -25.105  0.00  0.00    -0.299 N 
ATOM     13  N   UNL     1      33.598 -10.094 -23.630  0.00  0.00    -0.232 NA
ATOM     14  C   UNL     1      34.510  -9.243 -24.028  0.00  0.00    +0.113 C 
ATOM     15  C   UNL     1      34.869 -10.904 -25.564  0.00  0.00    +0.084 C 
ATOM     16  C   UNL     1      33.717 -11.227 -24.600  0.00  0.00    +0.116 C 
ATOM     17  H   UNL     1      35.971  -9.056 -25.508  0.00  0.00    +0.153 HD
ENDBRANCH  11  14
ENDBRANCH   2  11
TORSDOF 2
ENDMDL
MODEL 4
REMARK VINA RESULT:      -7.4      3.942      6.526
REMARK  Name = 28688
REMARK  2 active torsions:
REMARK  status: ('A' for Active; 'I' for Inactive)
REMARK    1  A    between atoms: C_2  and  C_11
REMARK    2  A    between atoms: C_11  and  C_14
REMARK                            x       y       z     vdW  Elec       q    Type
REMARK                         _______ _______ _______ _____ _____    ______ ____
ROOT
ATOM      1  S   UNL     1      34.154 -16.267 -24.962  0.00  0.00    -0.092 S 
ATOM      2  C   UNL     1      33.083 -14.311 -23.704  0.00  0.00    -0.012 A 
ATOM      3  C   UNL     1      33.770 -15.074 -22.701  0.00  0.00    +0.003 A 
ATOM      4  C   UNL     1      33.211 -14.847 -24.963  0.00  0.00    +0.004 A 
ATOM      5  C   UNL     1      34.407 -16.187 -23.258  0.00  0.00    +0.029 A 
ATOM      6  C   UNL     1      33.884 -14.867 -21.305  0.00  0.00    +0.000 C 
ATOM      7  C   UNL     1      32.655 -14.352 -26.243  0.00  0.00    +0.038 C 
ATOM      8  C   UNL     1      35.146 -17.087 -22.465  0.00  0.00    +0.006 C 
ATOM      9  C   UNL     1      34.618 -15.757 -20.516  0.00  0.00    +0.000 C 
ATOM     10  C   UNL     1      35.241 -16.855 -21.092  0.00  0.00    +0.001 C 
ENDROOT
BRANCH   2  11
ATOM     11  C   UNL     1      32.315 -13.074 -23.414  0.00  0.00    +0.088 C 
BRANCH  11  14
ATOM     12  N   UNL     1      34.277 -11.902 -24.405  0.00  0.00    -0.299 N 
ATOM     13  N   UNL     1      32.731 -10.657 -23.291  0.00  0.00    -0.232 NA
ATOM     14  C   UNL     1      33.117 -11.841 -23.694  0.00  0.00    +0.113 C 
ATOM     15  C   UNL     1      34.824 -10.589 -24.566  0.00  0.00    +0.084 C 
ATOM     16  C   UNL     1      33.809  -9.744 -23.782  0.00  0.00    +0.116 C 
ATOM     17  H   UNL     1      34.679 -12.728 -24.758  0.00  0.00    +0.153 HD
ENDBRANCH  11  14
ENDBRANCH   2  11
TORSDOF 2
ENDMDL
MODEL 5
REMARK VINA RESULT:      -7.3      4.044      6.856
REMARK  Name = 28688
REMARK  2 active torsions:
REMARK  status: ('A' for Active; 'I' for Inactive)
REMARK    1  A    between atoms: C_2  and  C_11
REMARK    2  A    between atoms: C_11  and  C_14
REMARK                            x       y       z     vdW  Elec       q    Type
REMARK                         _______ _______ _______ _____ _____    ______ ____
ROOT
ATOM      1  S   UNL     1      34.113 -15.617 -20.800  0.00  0.00    -0.092 S 
ATOM      2  C   UNL     1      33.069 -14.395 -22.792  0.00  0.00    -0.012 A 
ATOM      3  C   UNL     1      33.793 -15.494 -23.363  0.00  0.00    +0.003 A 
ATOM      4  C   UNL     1      33.160 -14.348 -21.422  0.00  0.00    +0.004 A 
ATOM      5  C   UNL     1      34.422 -16.255 -22.372  0.00  0.00    +0.029 A 
ATOM      6  C   UNL     1      33.952 -15.892 -24.712  0.00  0.00    +0.000 C 
ATOM      7  C   UNL     1      32.556 -13.375 -20.484  0.00  0.00    +0.038 C 
ATOM      8  C   UNL     1      35.194 -17.389 -22.693  0.00  0.00    +0.006 C 
ATOM      9  C   UNL     1      34.717 -17.017 -25.034  0.00  0.00    +0.000 C 
ATOM     10  C   UNL     1      35.331 -17.755 -24.032  0.00  0.00    +0.001 C 
ENDROOT
BRANCH   2  11
ATOM     11  C   UNL     1      32.301 -13.410 -23.596  0.00  0.00    +0.088 C 
BRANCH  11  14
ATOM     12  N   UNL     1      33.974 -12.233 -25.017  0.00  0.00    -0.299 N 
ATOM     13  N   UNL     1      33.057 -11.097 -23.271  0.00  0.00    -0.232 NA
ATOM     14  C   UNL     1      33.127 -12.213 -23.950  0.00  0.00    +0.113 C 
ATOM     15  C   UNL     1      34.611 -10.959 -25.161  0.00  0.00    +0.084 C 
ATOM     16  C   UNL     1      34.030 -10.196 -23.962  0.00  0.00    +0.116 C 
ATOM     17  H   UNL     1      34.125 -13.009 -25.603  0.00  0.00    +0.153 HD
ENDBRANCH  11  14
ENDBRANCH   2  11
TORSDOF 2
ENDMDL
MODEL 6
REMARK VINA RESULT:      -7.3      4.401      6.842
REMARK  Name = 28688
REMARK  2 active torsions:
REMARK  status: ('A' for Active; 'I' for Inactive)
REMARK    1  A    between atoms: C_2  and  C_11
REMARK    2  A    between atoms: C_11  and  C_14
REMARK                            x       y       z     vdW  Elec       q    Type
REMARK                         _______ _______ _______ _____ _____    ______ ____
ROOT
ATOM      1  S   UNL     1      32.289  -9.353 -21.982  0.00  0.00    -0.092 S 
ATOM      2  C   UNL     1      32.372 -11.754 -22.868  0.00  0.00    -0.012 A 
ATOM      3  C   UNL     1      33.330 -11.029 -23.654  0.00  0.00    +0.003 A 
ATOM      4  C   UNL     1      31.744 -10.968 -21.933  0.00  0.00    +0.004 A 
ATOM      5  C   UNL     1      33.387  -9.686 -23.270  0.00  0.00    +0.029 A 
ATOM      6  C   UNL     1      34.175 -11.461 -24.704  0.00  0.00    +0.000 C 
ATOM      7  C   UNL     1      30.708 -11.348 -20.946  0.00  0.00    +0.038 C 
ATOM      8  C   UNL     1      34.257  -8.775 -23.902  0.00  0.00    +0.006 C 
ATOM      9  C   UNL     1      35.040 -10.560 -25.332  0.00  0.00    +0.000 C 
ATOM     10  C   UNL     1      35.078  -9.231 -24.934  0.00  0.00    +0.001 C 
ENDROOT
BRANCH   2  11
ATOM     11  C   UNL     1      32.089 -13.201 -23.046  0.00  0.00    +0.088 C 
BRANCH  11  14
ATOM     12  N   UNL     1      33.116 -14.167 -20.992  0.00  0.00    -0.299 N 
ATOM     13  N   UNL     1      33.995 -14.748 -23.009  0.00  0.00    -0.232 NA
ATOM     14  C   UNL     1      33.102 -14.056 -22.350  0.00  0.00    +0.113 C 
ATOM     15  C   UNL     1      34.149 -15.070 -20.584  0.00  0.00    +0.084 C 
ATOM     16  C   UNL     1      34.777 -15.438 -21.937  0.00  0.00    +0.116 C 
ATOM     17  H   UNL     1      32.506 -13.695 -20.381  0.00  0.00    +0.153 HD
ENDBRANCH  11  14
ENDBRANCH   2  11
TORSDOF 2
ENDMDL
MODEL 7
REMARK VINA RESULT:      -7.3      8.000     10.154
REMARK  Name = 28688
REMARK  2 active torsions:
REMARK  status: ('A' for Active; 'I' for Inactive)
REMARK    1  A    between atoms: C_2  and  C_11
REMARK    2  A    between atoms: C_11  and  C_14
REMARK                            x       y       z     vdW  Elec       q    Type
REMARK                         _______ _______ _______ _____ _____    ______ ____
ROOT
ATOM      1  S   UNL     1      32.930 -23.073 -17.182  0.00  0.00    -0.092 S 
ATOM      2  C   UNL     1      34.172 -23.605 -15.007  0.00  0.00    -0.012 A 
ATOM      3  C   UNL     1      32.811 -23.989 -14.766  0.00  0.00    +0.003 A 
ATOM      4  C   UNL     1      34.370 -23.098 -16.269  0.00  0.00    +0.004 A 
ATOM      5  C   UNL     1      32.011 -23.748 -15.888  0.00  0.00    +0.029 A 
ATOM      6  C   UNL     1      32.200 -24.544 -13.616  0.00  0.00    +0.000 C 
ATOM      7  C   UNL     1      35.621 -22.602 -16.885  0.00  0.00    +0.038 C 
ATOM      8  C   UNL     1      30.634 -24.046 -15.888  0.00  0.00    +0.006 C 
ATOM      9  C   UNL     1      30.834 -24.841 -13.614  0.00  0.00    +0.000 C 
ATOM     10  C   UNL     1      30.061 -24.593 -14.739  0.00  0.00    +0.001 C 
ENDROOT
BRANCH   2  11
ATOM     11  C   UNL     1      35.256 -23.741 -14.000  0.00  0.00    +0.088 C 
BRANCH  11  14
ATOM     12  N   UNL     1      35.776 -25.994 -14.927  0.00  0.00    -0.299 N 
ATOM     13  N   UNL     1      37.500 -24.725 -14.154  0.00  0.00    -0.232 NA
ATOM     14  C   UNL     1      36.212 -24.837 -14.355  0.00  0.00    +0.113 C 
ATOM     15  C   UNL     1      36.887 -26.854 -15.202  0.00  0.00    +0.084 C 
ATOM     16  C   UNL     1      38.054 -26.024 -14.646  0.00  0.00    +0.116 C 
ATOM     17  H   UNL     1      34.836 -26.206 -15.124  0.00  0.00    +0.153 HD
ENDBRANCH  11  14
ENDBRANCH   2  11
TORSDOF 2
ENDMDL
MODEL 8
REMARK VINA RESULT:      -7.2      8.280      9.833
REMARK  Name = 28688
REMARK  2 active torsions:
REMARK  status: ('A' for Active; 'I' for Inactive)
REMARK    1  A    between atoms: C_2  and  C_11
REMARK    2  A    between atoms: C_11  and  C_14
REMARK                            x       y       z     vdW  Elec       q    Type
REMARK                         _______ _______ _______ _____ _____    ______ ____
ROOT
ATOM      1  S   UNL     1      34.479 -22.744 -17.434  0.00  0.00    -0.092 S 
ATOM      2  C   UNL     1      35.224 -23.095 -15.010  0.00  0.00    -0.012 A 
ATOM      3  C   UNL     1      33.817 -23.377 -15.016  0.00  0.00    +0.003 A 
ATOM      4  C   UNL     1      35.704 -22.743 -16.248  0.00  0.00    +0.004 A 
ATOM      5  C   UNL     1      33.275 -23.221 -16.295  0.00  0.00    +0.029 A 
ATOM      6  C   UNL     1      32.951 -23.767 -13.965  0.00  0.00    +0.000 C 
ATOM      7  C   UNL     1      37.086 -22.387 -16.641  0.00  0.00    +0.038 C 
ATOM      8  C   UNL     1      31.907 -23.442 -16.548  0.00  0.00    +0.006 C 
ATOM      9  C   UNL     1      31.594 -23.989 -14.213  0.00  0.00    +0.000 C 
ATOM     10  C   UNL     1      31.079 -23.827 -15.492  0.00  0.00    +0.001 C 
ENDROOT
BRANCH   2  11
ATOM     11  C   UNL     1      36.074 -23.176 -13.794  0.00  0.00    +0.088 C 
BRANCH  11  14
ATOM     12  N   UNL     1      36.330 -25.653 -13.802  0.00  0.00    -0.299 N 
ATOM     13  N   UNL     1      38.215 -24.377 -13.761  0.00  0.00    -0.232 NA
ATOM     14  C   UNL     1      36.907 -24.419 -13.777  0.00  0.00    +0.113 C 
ATOM     15  C   UNL     1      37.341 -26.667 -13.820  0.00  0.00    +0.084 C 
ATOM     16  C   UNL     1      38.619 -25.817 -13.752  0.00  0.00    +0.116 C 
ATOM     17  H   UNL     1      35.361 -25.823 -13.808  0.00  0.00    +0.153 HD
ENDBRANCH  11  14
ENDBRANCH   2  11
TORSDOF 2
ENDMDL
MODEL 9
REMARK VINA RESULT:      -7.2      1.742      3.242
REMARK  Name = 28688
REMARK  2 active torsions:
REMARK  status: ('A' for Active; 'I' for Inactive)
REMARK    1  A    between atoms: C_2  and  C_11
REMARK    2  A    between atoms: C_11  and  C_14
REMARK                            x       y       z     vdW  Elec       q    Type
REMARK                         _______ _______ _______ _____ _____    ______ ____
ROOT
ATOM      1  S   UNL     1      33.396 -14.253 -21.921  0.00  0.00    -0.092 S 
ATOM      2  C   UNL     1      34.734 -16.344 -22.545  0.00  0.00    -0.012 A 
ATOM      3  C   UNL     1      34.161 -15.882 -23.777  0.00  0.00    +0.003 A 
ATOM      4  C   UNL     1      34.399 -15.555 -21.471  0.00  0.00    +0.004 A 
ATOM      5  C   UNL     1      33.394 -14.730 -23.578  0.00  0.00    +0.029 A 
ATOM      6  C   UNL     1      34.259 -16.402 -25.090  0.00  0.00    +0.000 C 
ATOM      7  C   UNL     1      34.793 -15.703 -20.051  0.00  0.00    +0.038 C 
ATOM      8  C   UNL     1      32.731 -14.093 -24.646  0.00  0.00    +0.006 C 
ATOM      9  C   UNL     1      33.604 -15.772 -26.151  0.00  0.00    +0.000 C 
ATOM     10  C   UNL     1      32.847 -14.630 -25.929  0.00  0.00    +0.001 C 
ENDROOT
BRANCH   2  11
ATOM     11  C   UNL     1      35.598 -17.548 -22.439  0.00  0.00    +0.088 C 
BRANCH  11  14
ATOM     12  N   UNL     1      33.630 -18.934 -21.798  0.00  0.00    -0.299 N 
ATOM     13  N   UNL     1      35.617 -19.345 -20.767  0.00  0.00    -0.232 NA
ATOM     14  C   UNL     1      34.949 -18.631 -21.636  0.00  0.00    +0.113 C 
ATOM     15  C   UNL     1      33.269 -20.027 -20.947  0.00  0.00    +0.084 C 
ATOM     16  C   UNL     1      34.595 -20.287 -20.215  0.00  0.00    +0.116 C 
ATOM     17  H   UNL     1      33.016 -18.470 -22.411  0.00  0.00    +0.153 HD
ENDBRANCH  11  14
ENDBRANCH   2  11
TORSDOF 2
ENDMDL
