MODEL 1
REMARK VINA RESULT:     -10.9      0.000      0.000
REMARK  Name = 445455
REMARK  6 active torsions:
REMARK  status: ('A' for Active; 'I' for Inactive)
REMARK    1  A    between atoms: C_1  and  C_14
REMARK    2  A    between atoms: C_1  and  C_18
REMARK    3  A    between atoms: C_1  and  O_31
REMARK    4  A    between atoms: N_17  and  C_21
REMARK    5  A    between atoms: C_26  and  C_28
REMARK    6  A    between atoms: C_28  and  O_29
REMARK                            x       y       z     vdW  Elec       q    Type
REMARK                         _______ _______ _______ _____ _____    ______ ____
ROOT
ATOM      1  C   UNL     1      34.381 -15.922 -23.049  0.00  0.00    +0.210 C 
ENDROOT
BRANCH   1  14
ATOM      2  C   UNL     1      33.547 -11.056 -24.048  0.00  0.00    +0.019 C 
ATOM      3  C   UNL     1      31.615 -10.956 -21.677  0.00  0.00    +0.019 C 
ATOM      4  C   UNL     1      33.056  -9.749 -23.387  0.00  0.00    +0.004 C 
ATOM      5  C   UNL     1      31.661  -9.898 -22.802  0.00  0.00    +0.004 C 
ATOM      6  C   UNL     1      33.268 -12.278 -23.164  0.00  0.00    -0.027 C 
ATOM      7  C   UNL     1      32.367 -12.234 -22.071  0.00  0.00    -0.027 C 
ATOM      8  C   UNL     1      32.839 -11.255 -25.407  0.00  0.00    +0.004 C 
ATOM      9  C   UNL     1      35.061 -10.869 -24.312  0.00  0.00    +0.004 C 
ATOM     10  C   UNL     1      32.252 -10.383 -20.391  0.00  0.00    +0.004 C 
ATOM     11  C   UNL     1      30.118 -11.230 -21.397  0.00  0.00    +0.004 C 
ATOM     12  C   UNL     1      33.898 -13.505 -23.467  0.00  0.00    -0.006 C 
ATOM     13  C   UNL     1      32.188 -13.402 -21.298  0.00  0.00    -0.005 C 
ATOM     14  C   UNL     1      33.689 -14.648 -22.699  0.00  0.00    +0.013 C 
ATOM     15  C   UNL     1      32.839 -14.595 -21.607  0.00  0.00    -0.002 C 
ENDBRANCH   1  14
BRANCH   1  18
ATOM     16  O   UNL     1      35.050 -16.359 -20.772  0.00  0.00    -0.272 OA
ATOM     17  N   UNL     1      34.268 -18.137 -22.094  0.00  0.00    -0.280 N 
ATOM     18  C   UNL     1      34.614 -16.816 -21.824  0.00  0.00    +0.257 C 
ATOM     19  H   UNL     1      33.932 -18.322 -23.000  0.00  0.00    +0.155 HD
BRANCH  17  21
ATOM     20  F   UNL     1      36.717 -19.177 -21.301  0.00  0.00    -0.203 F 
ATOM     21  C   UNL     1      34.345 -19.244 -21.216  0.00  0.00    +0.078 C 
ATOM     22  C   UNL     1      35.586 -19.734 -20.846  0.00  0.00    +0.154 C 
ATOM     23  C   UNL     1      33.174 -19.818 -20.747  0.00  0.00    +0.017 C 
ATOM     24  C   UNL     1      35.659 -20.828 -19.983  0.00  0.00    +0.037 C 
ATOM     25  C   UNL     1      33.246 -20.911 -19.885  0.00  0.00    +0.008 C 
ATOM     26  C   UNL     1      34.489 -21.416 -19.503  0.00  0.00    +0.078 C 
BRANCH  26  28
ATOM     27  O   UNL     1      35.230 -22.601 -17.561  0.00  0.00    -0.245 OA
ATOM     28  C   UNL     1      34.565 -22.554 -18.602  0.00  0.00    +0.338 C 
BRANCH  28  29
ATOM     29  O   UNL     1      33.808 -23.604 -19.023  0.00  0.00    -0.477 OA
ATOM     30  H   UNL     1      32.982 -23.779 -18.616  0.00  0.00    +0.295 HD
ENDBRANCH  28  29
ENDBRANCH  26  28
ENDBRANCH  17  21
ENDBRANCH   1  18
BRANCH   1  31
ATOM     31  O   UNL     1      35.643 -15.632 -23.647  0.00  0.00    -0.372 OA
ATOM     32  H   UNL     1      35.832 -14.685 -23.560  0.00  0.00    +0.211 HD
ENDBRANCH   1  31
TORSDOF 6
ENDMDL
MODEL 2
REMARK VINA RESULT:     -10.4      4.479      8.770
REMARK  Name = 445455
REMARK  6 active torsions:
REMARK  status: ('A' for Active; 'I' for Inactive)
REMARK    1  A    between atoms: C_1  and  C_14
REMARK    2  A    between atoms: C_1  and  C_18
REMARK    3  A    between atoms: C_1  and  O_31
REMARK    4  A    between atoms: N_17  and  C_21
REMARK    5  A    between atoms: C_26  and  C_28
REMARK    6  A    between atoms: C_28  and  O_29
REMARK                            x       y       z     vdW  Elec       q    Type
REMARK                         _______ _______ _______ _____ _____    ______ ____
ROOT
ATOM      1  C   UNL     1      33.351 -13.926 -26.001  0.00  0.00    +0.210 C 
ENDROOT
BRANCH   1  14
ATOM      2  C   UNL     1      34.023 -15.665 -21.321  0.00  0.00    +0.019 C 
ATOM      3  C   UNL     1      35.101 -18.274 -22.503  0.00  0.00    +0.019 C 
ATOM      4  C   UNL     1      34.833 -16.709 -20.520  0.00  0.00    +0.004 C 
ATOM      5  C   UNL     1      34.618 -18.119 -21.044  0.00  0.00    +0.004 C 
ATOM      6  C   UNL     1      34.145 -15.893 -22.833  0.00  0.00    -0.027 C 
ATOM      7  C   UNL     1      34.636 -17.105 -23.381  0.00  0.00    -0.027 C 
ATOM      8  C   UNL     1      32.532 -15.741 -20.926  0.00  0.00    +0.004 C 
ATOM      9  C   UNL     1      34.567 -14.277 -20.903  0.00  0.00    +0.004 C 
ATOM     10  C   UNL     1      36.644 -18.338 -22.542  0.00  0.00    +0.004 C 
ATOM     11  C   UNL     1      34.545 -19.629 -23.004  0.00  0.00    +0.004 C 
ATOM     12  C   UNL     1      33.718 -14.879 -23.718  0.00  0.00    -0.006 C 
ATOM     13  C   UNL     1      34.733 -17.219 -24.785  0.00  0.00    -0.005 C 
ATOM     14  C   UNL     1      33.806 -15.025 -25.101  0.00  0.00    +0.013 C 
ATOM     15  C   UNL     1      34.323 -16.194 -25.636  0.00  0.00    -0.002 C 
ENDBRANCH   1  14
BRANCH   1  18
ATOM     16  O   UNL     1      34.213 -11.677 -25.848  0.00  0.00    -0.272 OA
ATOM     17  N   UNL     1      32.733 -12.448 -24.194  0.00  0.00    -0.280 N 
ATOM     18  C   UNL     1      33.498 -12.543 -25.353  0.00  0.00    +0.257 C 
ATOM     19  H   UNL     1      32.218 -13.248 -23.946  0.00  0.00    +0.155 HD
BRANCH  17  21
ATOM     20  F   UNL     1      31.495 -12.675 -21.719  0.00  0.00    -0.203 F 
ATOM     21  C   UNL     1      32.614 -11.335 -23.328  0.00  0.00    +0.078 C 
ATOM     22  C   UNL     1      31.988 -11.490 -22.103  0.00  0.00    +0.154 C 
ATOM     23  C   UNL     1      33.125 -10.111 -23.728  0.00  0.00    +0.017 C 
ATOM     24  C   UNL     1      31.868 -10.389 -21.253  0.00  0.00    +0.037 C 
ATOM     25  C   UNL     1      33.006  -9.011 -22.880  0.00  0.00    +0.008 C 
ATOM     26  C   UNL     1      32.377  -9.150 -21.642  0.00  0.00    +0.078 C 
BRANCH  26  28
ATOM     27  O   UNL     1      31.803  -6.898 -21.072  0.00  0.00    -0.245 OA
ATOM     28  C   UNL     1      32.255  -8.004 -20.755  0.00  0.00    +0.338 C 
BRANCH  28  29
ATOM     29  O   UNL     1      32.699  -8.270 -19.496  0.00  0.00    -0.477 OA
ATOM     30  H   UNL     1      32.355  -7.790 -18.768  0.00  0.00    +0.295 HD
ENDBRANCH  28  29
ENDBRANCH  26  28
ENDBRANCH  17  21
ENDBRANCH   1  18
BRANCH   1  31
ATOM     31  O   UNL     1      31.980 -14.125 -26.342  0.00  0.00    -0.372 OA
ATOM     32  H   UNL     1      31.922 -14.605 -27.183  0.00  0.00    +0.211 HD
ENDBRANCH   1  31
TORSDOF 6
ENDMDL
MODEL 3
REMARK VINA RESULT:     -10.1      3.470     10.745
REMARK  Name = 445455
REMARK  6 active torsions:
REMARK  status: ('A' for Active; 'I' for Inactive)
REMARK    1  A    between atoms: C_1  and  C_14
REMARK    2  A    between atoms: C_1  and  C_18
REMARK    3  A    between atoms: C_1  and  O_31
REMARK    4  A    between atoms: N_17  and  C_21
REMARK    5  A    between atoms: C_26  and  C_28
REMARK    6  A    between atoms: C_28  and  O_29
REMARK                            x       y       z     vdW  Elec       q    Type
REMARK                         _______ _______ _______ _____ _____    ______ ____
ROOT
ATOM      1  C   UNL     1      34.791 -22.013 -19.347  0.00  0.00    +0.210 C 
ENDROOT
BRANCH   1  14
ATOM      2  C   UNL     1      34.554 -24.153 -14.794  0.00  0.00    +0.019 C 
ATOM      3  C   UNL     1      31.525 -23.723 -14.808  0.00  0.00    +0.019 C 
ATOM      4  C   UNL     1      33.573 -24.872 -13.842  0.00  0.00    +0.004 C 
ATOM      5  C   UNL     1      32.350 -24.024 -13.538  0.00  0.00    +0.004 C 
ATOM      6  C   UNL     1      33.823 -23.503 -15.974  0.00  0.00    -0.027 C 
ATOM      7  C   UNL     1      32.420 -23.296 -15.978  0.00  0.00    -0.027 C 
ATOM      8  C   UNL     1      35.325 -23.058 -14.024  0.00  0.00    +0.004 C 
ATOM      9  C   UNL     1      35.569 -25.223 -15.263  0.00  0.00    +0.004 C 
ATOM     10  C   UNL     1      30.729 -24.979 -15.228  0.00  0.00    +0.004 C 
ATOM     11  C   UNL     1      30.515 -22.616 -14.420  0.00  0.00    +0.004 C 
ATOM     12  C   UNL     1      34.571 -23.057 -17.086  0.00  0.00    -0.006 C 
ATOM     13  C   UNL     1      31.828 -22.709 -17.118  0.00  0.00    -0.005 C 
ATOM     14  C   UNL     1      33.964 -22.463 -18.191  0.00  0.00    +0.013 C 
ATOM     15  C   UNL     1      32.589 -22.296 -18.211  0.00  0.00    -0.002 C 
ENDBRANCH   1  14
BRANCH   1  18
ATOM     16  O   UNL     1      32.944 -20.657 -20.108  0.00  0.00    -0.272 OA
ATOM     17  N   UNL     1      35.133 -20.039 -20.696  0.00  0.00    -0.280 N 
ATOM     18  C   UNL     1      34.159 -20.829 -20.091  0.00  0.00    +0.257 C 
ATOM     19  H   UNL     1      36.065 -20.330 -20.576  0.00  0.00    +0.155 HD
BRANCH  17  21
ATOM     20  F   UNL     1      35.028 -20.141 -23.469  0.00  0.00    -0.203 F 
ATOM     21  C   UNL     1      34.937 -18.868 -21.466  0.00  0.00    +0.078 C 
ATOM     22  C   UNL     1      34.893 -18.962 -22.847  0.00  0.00    +0.154 C 
ATOM     23  C   UNL     1      34.796 -17.651 -20.821  0.00  0.00    +0.017 C 
ATOM     24  C   UNL     1      34.702 -17.805 -23.604  0.00  0.00    +0.037 C 
ATOM     25  C   UNL     1      34.606 -16.495 -21.577  0.00  0.00    +0.008 C 
ATOM     26  C   UNL     1      34.559 -16.572 -22.969  0.00  0.00    +0.078 C 
BRANCH  26  28
ATOM     27  O   UNL     1      33.846 -15.324 -24.882  0.00  0.00    -0.245 OA
ATOM     28  C   UNL     1      34.359 -15.367 -23.758  0.00  0.00    +0.338 C 
BRANCH  28  29
ATOM     29  O   UNL     1      34.802 -14.248 -23.122  0.00  0.00    -0.477 OA
ATOM     30  H   UNL     1      34.188 -13.659 -22.729  0.00  0.00    +0.295 HD
ENDBRANCH  28  29
ENDBRANCH  26  28
ENDBRANCH  17  21
ENDBRANCH   1  18
BRANCH   1  31
ATOM     31  O   UNL     1      34.955 -23.091 -20.267  0.00  0.00    -0.372 OA
ATOM     32  H   UNL     1      34.754 -23.929 -19.821  0.00  0.00    +0.211 HD
ENDBRANCH   1  31
TORSDOF 6
ENDMDL
MODEL 4
REMARK VINA RESULT:      -9.9      5.002     12.189
REMARK  Name = 445455
REMARK  6 active torsions:
REMARK  status: ('A' for Active; 'I' for Inactive)
REMARK    1  A    between atoms: C_1  and  C_14
REMARK    2  A    between atoms: C_1  and  C_18
REMARK    3  A    between atoms: C_1  and  O_31
REMARK    4  A    between atoms: N_17  and  C_21
REMARK    5  A    between atoms: C_26  and  C_28
REMARK    6  A    between atoms: C_28  and  O_29
REMARK                            x       y       z     vdW  Elec       q    Type
REMARK                         _______ _______ _______ _____ _____    ______ ____
ROOT
ATOM      1  C   UNL     1      34.200 -23.462 -17.257  0.00  0.00    +0.210 C 
ENDROOT
BRANCH   1  14
ATOM      2  C   UNL     1      37.475 -25.909 -14.314  0.00  0.00    +0.019 C 
ATOM      3  C   UNL     1      36.574 -24.174 -11.960  0.00  0.00    +0.019 C 
ATOM      4  C   UNL     1      37.759 -26.245 -12.833  0.00  0.00    +0.004 C 
ATOM      5  C   UNL     1      37.884 -24.994 -11.981  0.00  0.00    +0.004 C 
ATOM      6  C   UNL     1      36.388 -24.837 -14.453  0.00  0.00    -0.027 C 
ATOM      7  C   UNL     1      35.976 -24.027 -13.365  0.00  0.00    -0.027 C 
ATOM      8  C   UNL     1      38.765 -25.399 -14.994  0.00  0.00    +0.004 C 
ATOM      9  C   UNL     1      37.062 -27.239 -14.991  0.00  0.00    +0.004 C 
ATOM     10  C   UNL     1      35.535 -24.867 -11.050  0.00  0.00    +0.004 C 
ATOM     11  C   UNL     1      36.928 -22.802 -11.337  0.00  0.00    +0.004 C 
ATOM     12  C   UNL     1      35.797 -24.615 -15.717  0.00  0.00    -0.006 C 
ATOM     13  C   UNL     1      34.952 -23.079 -13.580  0.00  0.00    -0.005 C 
ATOM     14  C   UNL     1      34.802 -23.659 -15.907  0.00  0.00    +0.013 C 
ATOM     15  C   UNL     1      34.372 -22.895 -14.834  0.00  0.00    -0.002 C 
ENDBRANCH   1  14
BRANCH   1  18
ATOM     16  O   UNL     1      36.130 -22.159 -17.892  0.00  0.00    -0.272 OA
ATOM     17  N   UNL     1      34.091 -21.796 -19.001  0.00  0.00    -0.280 N 
ATOM     18  C   UNL     1      34.940 -22.398 -18.077  0.00  0.00    +0.257 C 
ATOM     19  H   UNL     1      33.161 -22.116 -19.010  0.00  0.00    +0.155 HD
BRANCH  17  21
ATOM     20  F   UNL     1      32.124 -20.149 -20.061  0.00  0.00    -0.203 F 
ATOM     21  C   UNL     1      34.411 -20.776 -19.929  0.00  0.00    +0.078 C 
ATOM     22  C   UNL     1      33.399 -19.977 -20.435  0.00  0.00    +0.154 C 
ATOM     23  C   UNL     1      35.730 -20.601 -20.313  0.00  0.00    +0.017 C 
ATOM     24  C   UNL     1      33.717 -18.974 -21.352  0.00  0.00    +0.037 C 
ATOM     25  C   UNL     1      36.047 -19.598 -21.229  0.00  0.00    +0.008 C 
ATOM     26  C   UNL     1      35.040 -18.785 -21.748  0.00  0.00    +0.078 C 
BRANCH  26  28
ATOM     27  O   UNL     1      35.334 -16.523 -22.473  0.00  0.00    -0.245 OA
ATOM     28  C   UNL     1      35.370 -17.738 -22.701  0.00  0.00    +0.338 C 
BRANCH  28  29
ATOM     29  O   UNL     1      35.739 -18.235 -23.914  0.00  0.00    -0.477 OA
ATOM     30  H   UNL     1      36.444 -17.837 -24.388  0.00  0.00    +0.295 HD
ENDBRANCH  28  29
ENDBRANCH  26  28
ENDBRANCH  17  21
ENDBRANCH   1  18
BRANCH   1  31
ATOM     31  O   UNL     1      32.837 -23.063 -17.119  0.00  0.00    -0.372 OA
ATOM     32  H   UNL     1      32.798 -22.124 -16.879  0.00  0.00    +0.211 HD
ENDBRANCH   1  31
TORSDOF 6
ENDMDL
MODEL 5
REMARK VINA RESULT:      -9.8      1.923      3.575
REMARK  Name = 445455
REMARK  6 active torsions:
REMARK  status: ('A' for Active; 'I' for Inactive)
REMARK    1  A    between atoms: C_1  and  C_14
REMARK    2  A    between atoms: C_1  and  C_18
REMARK    3  A    between atoms: C_1  and  O_31
REMARK    4  A    between atoms: N_17  and  C_21
REMARK    5  A    between atoms: C_26  and  C_28
REMARK    6  A    between atoms: C_28  and  O_29
REMARK                            x       y       z     vdW  Elec       q    Type
REMARK                         _______ _______ _______ _____ _____    ______ ____
ROOT
ATOM      1  C   UNL     1      33.271 -14.045 -24.333  0.00  0.00    +0.210 C 
ENDROOT
BRANCH   1  14
ATOM      2  C   UNL     1      31.696 -10.383 -21.253  0.00  0.00    +0.019 C 
ATOM      3  C   UNL     1      33.190  -8.355 -22.990  0.00  0.00    +0.019 C 
ATOM      4  C   UNL     1      31.451  -8.859 -21.208  0.00  0.00    +0.004 C 
ATOM      5  C   UNL     1      32.704  -8.071 -21.551  0.00  0.00    +0.004 C 
ATOM      6  C   UNL     1      32.479 -10.794 -22.506  0.00  0.00    -0.027 C 
ATOM      7  C   UNL     1      33.179  -9.855 -23.306  0.00  0.00    -0.027 C 
ATOM      8  C   UNL     1      32.491 -10.824 -20.005  0.00  0.00    +0.004 C 
ATOM      9  C   UNL     1      30.301 -11.051 -21.202  0.00  0.00    +0.004 C 
ATOM     10  C   UNL     1      32.280  -7.628 -24.005  0.00  0.00    +0.004 C 
ATOM     11  C   UNL     1      34.613  -7.753 -23.096  0.00  0.00    +0.004 C 
ATOM     12  C   UNL     1      32.543 -12.159 -22.861  0.00  0.00    -0.006 C 
ATOM     13  C   UNL     1      33.855 -10.321 -24.455  0.00  0.00    -0.005 C 
ATOM     14  C   UNL     1      33.235 -12.594 -23.990  0.00  0.00    +0.013 C 
ATOM     15  C   UNL     1      33.885 -11.673 -24.793  0.00  0.00    -0.002 C 
ENDBRANCH   1  14
BRANCH   1  18
ATOM     16  O   UNL     1      34.956 -14.315 -22.625  0.00  0.00    -0.272 OA
ATOM     17  N   UNL     1      33.820 -16.212 -23.420  0.00  0.00    -0.280 N 
ATOM     18  C   UNL     1      34.126 -14.856 -23.351  0.00  0.00    +0.257 C 
ATOM     19  H   UNL     1      33.122 -16.468 -24.064  0.00  0.00    +0.155 HD
BRANCH  17  21
ATOM     20  F   UNL     1      34.069 -18.764 -24.485  0.00  0.00    -0.203 F 
ATOM     21  C   UNL     1      34.397 -17.266 -22.672  0.00  0.00    +0.078 C 
ATOM     22  C   UNL     1      34.502 -18.525 -23.239  0.00  0.00    +0.154 C 
ATOM     23  C   UNL     1      34.844 -17.015 -21.385  0.00  0.00    +0.017 C 
ATOM     24  C   UNL     1      35.069 -19.563 -22.498  0.00  0.00    +0.037 C 
ATOM     25  C   UNL     1      35.411 -18.051 -20.644  0.00  0.00    +0.008 C 
ATOM     26  C   UNL     1      35.523 -19.326 -21.201  0.00  0.00    +0.078 C 
BRANCH  26  28
ATOM     27  O   UNL     1      35.843 -21.606 -20.550  0.00  0.00    -0.245 OA
ATOM     28  C   UNL     1      36.116 -20.406 -20.430  0.00  0.00    +0.338 C 
BRANCH  28  29
ATOM     29  O   UNL     1      37.035 -19.961 -19.530  0.00  0.00    -0.477 OA
ATOM     30  H   UNL     1      37.658 -20.558 -19.163  0.00  0.00    +0.295 HD
ENDBRANCH  28  29
ENDBRANCH  26  28
ENDBRANCH  17  21
ENDBRANCH   1  18
BRANCH   1  31
ATOM     31  O   UNL     1      33.803 -14.214 -25.646  0.00  0.00    -0.372 OA
ATOM     32  H   UNL     1      34.519 -14.867 -25.623  0.00  0.00    +0.211 HD
ENDBRANCH   1  31
TORSDOF 6
ENDMDL
MODEL 6
REMARK VINA RESULT:      -9.7      4.538      8.941
REMARK  Name = 445455
REMARK  6 active torsions:
REMARK  status: ('A' for Active; 'I' for Inactive)
REMARK    1  A    between atoms: C_1  and  C_14
REMARK    2  A    between atoms: C_1  and  C_18
REMARK    3  A    between atoms: C_1  and  O_31
REMARK    4  A    between atoms: N_17  and  C_21
REMARK    5  A    between atoms: C_26  and  C_28
REMARK    6  A    between atoms: C_28  and  O_29
REMARK                            x       y       z     vdW  Elec       q    Type
REMARK                         _______ _______ _______ _____ _____    ______ ____
ROOT
ATOM      1  C   UNL     1      33.352 -15.104 -26.598  0.00  0.00    +0.210 C 
ENDROOT
BRANCH   1  14
ATOM      2  C   UNL     1      34.007 -15.478 -21.618  0.00  0.00    +0.019 C 
ATOM      3  C   UNL     1      35.192 -18.267 -22.037  0.00  0.00    +0.019 C 
ATOM      4  C   UNL     1      34.838 -16.233 -20.557  0.00  0.00    +0.004 C 
ATOM      5  C   UNL     1      34.680 -17.739 -20.679  0.00  0.00    +0.004 C 
ATOM      6  C   UNL     1      34.161 -16.104 -23.009  0.00  0.00    -0.027 C 
ATOM      7  C   UNL     1      34.702 -17.400 -23.203  0.00  0.00    -0.027 C 
ATOM      8  C   UNL     1      32.512 -15.499 -21.227  0.00  0.00    +0.004 C 
ATOM      9  C   UNL     1      34.495 -14.009 -21.590  0.00  0.00    +0.004 C 
ATOM     10  C   UNL     1      36.737 -18.282 -22.047  0.00  0.00    +0.004 C 
ATOM     11  C   UNL     1      34.692 -19.727 -22.154  0.00  0.00    +0.004 C 
ATOM     12  C   UNL     1      33.714 -15.386 -24.140  0.00  0.00    -0.006 C 
ATOM     13  C   UNL     1      34.826 -17.887 -24.523  0.00  0.00    -0.005 C 
ATOM     14  C   UNL     1      33.830 -15.899 -25.430  0.00  0.00    +0.013 C 
ATOM     15  C   UNL     1      34.395 -17.148 -25.623  0.00  0.00    -0.002 C 
ENDBRANCH   1  14
BRANCH   1  18
ATOM     16  O   UNL     1      31.965 -13.128 -26.572  0.00  0.00    -0.272 OA
ATOM     17  N   UNL     1      34.036 -13.085 -25.463  0.00  0.00    -0.280 N 
ATOM     18  C   UNL     1      33.017 -13.655 -26.220  0.00  0.00    +0.257 C 
ATOM     19  H   UNL     1      34.812 -13.660 -25.275  0.00  0.00    +0.155 HD
BRANCH  17  21
ATOM     20  F   UNL     1      35.587 -11.113 -26.652  0.00  0.00    -0.203 F 
ATOM     21  C   UNL     1      34.086 -11.773 -24.934  0.00  0.00    +0.078 C 
ATOM     22  C   UNL     1      34.874 -10.819 -25.556  0.00  0.00    +0.154 C 
ATOM     23  C   UNL     1      33.348 -11.473 -23.801  0.00  0.00    +0.017 C 
ATOM     24  C   UNL     1      34.924  -9.527 -25.030  0.00  0.00    +0.037 C 
ATOM     25  C   UNL     1      33.398 -10.182 -23.276  0.00  0.00    +0.008 C 
ATOM     26  C   UNL     1      34.187  -9.209 -23.890  0.00  0.00    +0.078 C 
BRANCH  26  28
ATOM     27  O   UNL     1      35.036  -6.982 -23.682  0.00  0.00    -0.245 OA
ATOM     28  C   UNL     1      34.237  -7.863 -23.344  0.00  0.00    +0.338 C 
BRANCH  28  29
ATOM     29  O   UNL     1      33.288  -7.651 -22.392  0.00  0.00    -0.477 OA
ATOM     30  H   UNL     1      32.612  -8.285 -22.255  0.00  0.00    +0.295 HD
ENDBRANCH  28  29
ENDBRANCH  26  28
ENDBRANCH  17  21
ENDBRANCH   1  18
BRANCH   1  31
ATOM     31  O   UNL     1      32.184 -15.713 -27.146  0.00  0.00    -0.372 OA
ATOM     32  H   UNL     1      31.400 -15.380 -26.684  0.00  0.00    +0.211 HD
ENDBRANCH   1  31
TORSDOF 6
ENDMDL
MODEL 7
REMARK VINA RESULT:      -9.6      1.895      3.562
REMARK  Name = 445455
REMARK  6 active torsions:
REMARK  status: ('A' for Active; 'I' for Inactive)
REMARK    1  A    between atoms: C_1  and  C_14
REMARK    2  A    between atoms: C_1  and  C_18
REMARK    3  A    between atoms: C_1  and  O_31
REMARK    4  A    between atoms: N_17  and  C_21
REMARK    5  A    between atoms: C_26  and  C_28
REMARK    6  A    between atoms: C_28  and  O_29
REMARK                            x       y       z     vdW  Elec       q    Type
REMARK                         _______ _______ _______ _____ _____    ______ ____
ROOT
ATOM      1  C   UNL     1      35.673 -18.479 -23.348  0.00  0.00    +0.210 C 
ENDROOT
BRANCH   1  14
ATOM      2  C   UNL     1      33.139 -14.582 -21.409  0.00  0.00    +0.019 C 
ATOM      3  C   UNL     1      33.183 -13.251 -24.164  0.00  0.00    +0.019 C 
ATOM      4  C   UNL     1      32.222 -13.407 -21.817  0.00  0.00    +0.004 C 
ATOM      5  C   UNL     1      32.881 -12.504 -22.846  0.00  0.00    +0.004 C 
ATOM      6  C   UNL     1      33.790 -15.243 -22.630  0.00  0.00    -0.027 C 
ATOM      7  C   UNL     1      33.818 -14.623 -23.904  0.00  0.00    -0.027 C 
ATOM      8  C   UNL     1      34.252 -14.076 -20.466  0.00  0.00    +0.004 C 
ATOM      9  C   UNL     1      32.249 -15.575 -20.622  0.00  0.00    +0.004 C 
ATOM     10  C   UNL     1      31.877 -13.454 -24.964  0.00  0.00    +0.004 C 
ATOM     11  C   UNL     1      34.117 -12.329 -24.984  0.00  0.00    +0.004 C 
ATOM     12  C   UNL     1      34.420 -16.498 -22.478  0.00  0.00    -0.006 C 
ATOM     13  C   UNL     1      34.421 -15.315 -24.977  0.00  0.00    -0.005 C 
ATOM     14  C   UNL     1      35.025 -17.151 -23.550  0.00  0.00    +0.013 C 
ATOM     15  C   UNL     1      35.018 -16.563 -24.804  0.00  0.00    -0.002 C 
ENDBRANCH   1  14
BRANCH   1  18
ATOM     16  O   UNL     1      33.698 -19.798 -22.915  0.00  0.00    -0.272 OA
ATOM     17  N   UNL     1      35.436 -19.790 -21.335  0.00  0.00    -0.280 N 
ATOM     18  C   UNL     1      34.802 -19.434 -22.521  0.00  0.00    +0.257 C 
ATOM     19  H   UNL     1      36.326 -19.400 -21.183  0.00  0.00    +0.155 HD
BRANCH  17  21
ATOM     20  F   UNL     1      37.165 -21.306 -19.778  0.00  0.00    -0.203 F 
ATOM     21  C   UNL     1      34.949 -20.648 -20.320  0.00  0.00    +0.078 C 
ATOM     22  C   UNL     1      35.845 -21.389 -19.567  0.00  0.00    +0.154 C 
ATOM     23  C   UNL     1      33.583 -20.731 -20.104  0.00  0.00    +0.017 C 
ATOM     24  C   UNL     1      35.361 -22.236 -18.569  0.00  0.00    +0.037 C 
ATOM     25  C   UNL     1      33.099 -21.578 -19.108  0.00  0.00    +0.008 C 
ATOM     26  C   UNL     1      33.989 -22.330 -18.340  0.00  0.00    +0.078 C 
BRANCH  26  28
ATOM     27  O   UNL     1      32.305 -23.296 -16.941  0.00  0.00    -0.245 OA
ATOM     28  C   UNL     1      33.485 -23.211 -17.299  0.00  0.00    +0.338 C 
BRANCH  28  29
ATOM     29  O   UNL     1      34.467 -23.965 -16.734  0.00  0.00    -0.477 OA
ATOM     30  H   UNL     1      35.248 -24.155 -17.216  0.00  0.00    +0.295 HD
ENDBRANCH  28  29
ENDBRANCH  26  28
ENDBRANCH  17  21
ENDBRANCH   1  18
BRANCH   1  31
ATOM     31  O   UNL     1      36.920 -18.306 -22.678  0.00  0.00    -0.372 OA
ATOM     32  H   UNL     1      36.926 -18.833 -21.864  0.00  0.00    +0.211 HD
ENDBRANCH   1  31
TORSDOF 6
ENDMDL
MODEL 8
REMARK VINA RESULT:      -9.5      4.901     12.169
REMARK  Name = 445455
REMARK  6 active torsions:
REMARK  status: ('A' for Active; 'I' for Inactive)
REMARK    1  A    between atoms: C_1  and  C_14
REMARK    2  A    between atoms: C_1  and  C_18
REMARK    3  A    between atoms: C_1  and  O_31
REMARK    4  A    between atoms: N_17  and  C_21
REMARK    5  A    between atoms: C_26  and  C_28
REMARK    6  A    between atoms: C_28  and  O_29
REMARK                            x       y       z     vdW  Elec       q    Type
REMARK                         _______ _______ _______ _____ _____    ______ ____
ROOT
ATOM      1  C   UNL     1      34.101 -23.582 -17.151  0.00  0.00    +0.210 C 
ENDROOT
BRANCH   1  14
ATOM      2  C   UNL     1      37.583 -25.805 -14.270  0.00  0.00    +0.019 C 
ATOM      3  C   UNL     1      36.561 -24.190 -11.881  0.00  0.00    +0.019 C 
ATOM      4  C   UNL     1      37.903 -26.143 -12.797  0.00  0.00    +0.004 C 
ATOM      5  C   UNL     1      37.932 -24.900 -11.923  0.00  0.00    +0.004 C 
ATOM      6  C   UNL     1      36.411 -24.822 -14.385  0.00  0.00    -0.027 C 
ATOM      7  C   UNL     1      35.943 -24.067 -13.280  0.00  0.00    -0.027 C 
ATOM      8  C   UNL     1      38.823 -25.181 -14.947  0.00  0.00    +0.004 C 
ATOM      9  C   UNL     1      37.275 -27.152 -14.969  0.00  0.00    +0.004 C 
ATOM     10  C   UNL     1      35.587 -24.980 -10.978  0.00  0.00    +0.004 C 
ATOM     11  C   UNL     1      36.807 -22.805 -11.236  0.00  0.00    +0.004 C 
ATOM     12  C   UNL     1      35.797 -24.628 -15.641  0.00  0.00    -0.006 C 
ATOM     13  C   UNL     1      34.844 -23.201 -13.473  0.00  0.00    -0.005 C 
ATOM     14  C   UNL     1      34.726 -23.752 -15.808  0.00  0.00    +0.013 C 
ATOM     15  C   UNL     1      34.243 -23.044 -14.721  0.00  0.00    -0.002 C 
ENDBRANCH   1  14
BRANCH   1  18
ATOM     16  O   UNL     1      35.762 -21.888 -17.596  0.00  0.00    -0.272 OA
ATOM     17  N   UNL     1      33.881 -22.038 -18.995  0.00  0.00    -0.280 N 
ATOM     18  C   UNL     1      34.697 -22.400 -17.927  0.00  0.00    +0.257 C 
ATOM     19  H   UNL     1      33.058 -22.564 -19.111  0.00  0.00    +0.155 HD
BRANCH  17  21
ATOM     20  F   UNL     1      36.343 -21.708 -20.235  0.00  0.00    -0.203 F 
ATOM     21  C   UNL     1      34.096 -21.000 -19.932  0.00  0.00    +0.078 C 
ATOM     22  C   UNL     1      35.340 -20.868 -20.527  0.00  0.00    +0.154 C 
ATOM     23  C   UNL     1      33.058 -20.134 -20.233  0.00  0.00    +0.017 C 
ATOM     24  C   UNL     1      35.551 -19.841 -21.449  0.00  0.00    +0.037 C 
ATOM     25  C   UNL     1      33.268 -19.108 -21.153  0.00  0.00    +0.008 C 
ATOM     26  C   UNL     1      34.515 -18.962 -21.761  0.00  0.00    +0.078 C 
BRANCH  26  28
ATOM     27  O   UNL     1      34.572 -17.986 -23.945  0.00  0.00    -0.245 OA
ATOM     28  C   UNL     1      34.734 -17.894 -22.723  0.00  0.00    +0.338 C 
BRANCH  28  29
ATOM     29  O   UNL     1      35.148 -16.739 -22.134  0.00  0.00    -0.477 OA
ATOM     30  H   UNL     1      35.331 -16.722 -21.214  0.00  0.00    +0.295 HD
ENDBRANCH  28  29
ENDBRANCH  26  28
ENDBRANCH  17  21
ENDBRANCH   1  18
BRANCH   1  31
ATOM     31  O   UNL     1      32.698 -23.366 -17.002  0.00  0.00    -0.372 OA
ATOM     32  H   UNL     1      32.456 -22.521 -17.412  0.00  0.00    +0.211 HD
ENDBRANCH   1  31
TORSDOF 6
ENDMDL
MODEL 9
REMARK VINA RESULT:      -9.4      2.549      3.795
REMARK  Name = 445455
REMARK  6 active torsions:
REMARK  status: ('A' for Active; 'I' for Inactive)
REMARK    1  A    between atoms: C_1  and  C_14
REMARK    2  A    between atoms: C_1  and  C_18
REMARK    3  A    between atoms: C_1  and  O_31
REMARK    4  A    between atoms: N_17  and  C_21
REMARK    5  A    between atoms: C_26  and  C_28
REMARK    6  A    between atoms: C_28  and  O_29
REMARK                            x       y       z     vdW  Elec       q    Type
REMARK                         _______ _______ _______ _____ _____    ______ ____
ROOT
ATOM      1  C   UNL     1      33.239 -12.540 -24.800  0.00  0.00    +0.210 C 
ENDROOT
BRANCH   1  14
ATOM      2  C   UNL     1      32.872  -8.205 -22.262  0.00  0.00    +0.019 C 
ATOM      3  C   UNL     1      31.622  -9.739 -19.928  0.00  0.00    +0.019 C 
ATOM      4  C   UNL     1      32.748  -7.647 -20.827  0.00  0.00    +0.004 C 
ATOM      5  C   UNL     1      31.536  -8.207 -20.102  0.00  0.00    +0.004 C 
ATOM      6  C   UNL     1      32.653  -9.722 -22.300  0.00  0.00    -0.027 C 
ATOM      7  C   UNL     1      32.066 -10.432 -21.222  0.00  0.00    -0.027 C 
ATOM      8  C   UNL     1      31.829  -7.530 -23.180  0.00  0.00    +0.004 C 
ATOM      9  C   UNL     1      34.284  -7.814 -22.761  0.00  0.00    +0.004 C 
ATOM     10  C   UNL     1      32.632 -10.085 -18.810  0.00  0.00    +0.004 C 
ATOM     11  C   UNL     1      30.218 -10.207 -19.475  0.00  0.00    +0.004 C 
ATOM     12  C   UNL     1      33.011 -10.440 -23.463  0.00  0.00    -0.006 C 
ATOM     13  C   UNL     1      31.923 -11.833 -21.336  0.00  0.00    -0.005 C 
ATOM     14  C   UNL     1      32.841 -11.820 -23.556  0.00  0.00    +0.013 C 
ATOM     15  C   UNL     1      32.304 -12.519 -22.488  0.00  0.00    -0.002 C 
ENDBRANCH   1  14
BRANCH   1  18
ATOM     16  O   UNL     1      33.118 -14.888 -25.347  0.00  0.00    -0.272 OA
ATOM     17  N   UNL     1      34.187 -14.232 -23.361  0.00  0.00    -0.280 N 
ATOM     18  C   UNL     1      33.497 -14.032 -24.553  0.00  0.00    +0.257 C 
ATOM     19  H   UNL     1      34.412 -13.423 -22.848  0.00  0.00    +0.155 HD
BRANCH  17  21
ATOM     20  F   UNL     1      34.106 -14.663 -20.619  0.00  0.00    -0.203 F 
ATOM     21  C   UNL     1      34.602 -15.463 -22.800  0.00  0.00    +0.078 C 
ATOM     22  C   UNL     1      34.547 -15.637 -21.427  0.00  0.00    +0.154 C 
ATOM     23  C   UNL     1      35.056 -16.468 -23.637  0.00  0.00    +0.017 C 
ATOM     24  C   UNL     1      34.959 -16.852 -20.876  0.00  0.00    +0.037 C 
ATOM     25  C   UNL     1      35.468 -17.681 -23.088  0.00  0.00    +0.008 C 
ATOM     26  C   UNL     1      35.419 -17.873 -21.706  0.00  0.00    +0.078 C 
BRANCH  26  28
ATOM     27  O   UNL     1      36.873 -19.314 -20.467  0.00  0.00    -0.245 OA
ATOM     28  C   UNL     1      35.846 -19.139 -21.133  0.00  0.00    +0.338 C 
BRANCH  28  29
ATOM     29  O   UNL     1      34.979 -20.153 -21.404  0.00  0.00    -0.477 OA
ATOM     30  H   UNL     1      34.083 -20.086 -21.139  0.00  0.00    +0.295 HD
ENDBRANCH  28  29
ENDBRANCH  26  28
ENDBRANCH  17  21
ENDBRANCH   1  18
BRANCH   1  31
ATOM     31  O   UNL     1      34.427 -11.956 -25.332  0.00  0.00    -0.372 OA
ATOM     32  H   UNL     1      34.194 -11.177 -25.862  0.00  0.00    +0.211 HD
ENDBRANCH   1  31
TORSDOF 6
ENDMDL
