MODEL 1
REMARK VINA RESULT:      -9.6      0.000      0.000
REMARK  Name = 656804
REMARK  10 active torsions:
REMARK  status: ('A' for Active; 'I' for Inactive)
REMARK    1  A    between atoms: C_6  and  O_21
REMARK    2  A    between atoms: C_6  and  C_26
REMARK    3  A    between atoms: C_9  and  O_23
REMARK    4  A    between atoms: C_26  and  C_27
REMARK    5  A    between atoms: C_27  and  O_28
REMARK    6  A    between atoms: O_28  and  C_30
REMARK    7  A    between atoms: C_30  and  C_31
REMARK    8  A    between atoms: C_31  and  C_32
REMARK    9  A    between atoms: C_32  and  C_34
REMARK   10  A    between atoms: C_34  and  O_35
REMARK                            x       y       z     vdW  Elec       q    Type
REMARK                         _______ _______ _______ _____ _____    ______ ____
ROOT
ATOM      1  O   UNL     1      34.868 -10.125 -26.162  0.00  0.00    -0.287 OA
ATOM      2  C   UNL     1      34.723 -17.400 -22.326  0.00  0.00    +0.031 C 
ATOM      3  C   UNL     1      34.652 -17.111 -23.841  0.00  0.00    +0.003 C 
ATOM      4  C   UNL     1      33.731 -15.937 -24.202  0.00  0.00    +0.003 C 
ATOM      5  C   UNL     1      34.268 -14.641 -23.498  0.00  0.00    +0.034 C 
ATOM      6  C   UNL     1      35.657 -18.642 -22.346  0.00  0.00    +0.143 C 
ATOM      7  C   UNL     1      35.287 -16.139 -21.640  0.00  0.00    +0.032 C 
ATOM      8  C   UNL     1      34.373 -18.483 -24.450  0.00  0.00    +0.003 C 
ATOM      9  C   UNL     1      34.486 -14.858 -21.967  0.00  0.00    +0.111 C 
ATOM     10  C   UNL     1      33.442 -13.356 -23.904  0.00  0.00    +0.036 C 
ATOM     11  C   UNL     1      35.170 -19.461 -23.563  0.00  0.00    +0.034 C 
ATOM     12  C   UNL     1      33.666 -15.754 -25.729  0.00  0.00    +0.004 C 
ATOM     13  C   UNL     1      33.350 -17.792 -21.711  0.00  0.00    +0.003 C 
ATOM     14  C   UNL     1      32.867 -14.521 -26.131  0.00  0.00    +0.022 C 
ATOM     15  C   UNL     1      33.411 -13.299 -25.435  0.00  0.00    -0.038 C 
ATOM     16  C   UNL     1      31.984 -13.356 -23.393  0.00  0.00    +0.009 C 
ATOM     17  C   UNL     1      34.096 -12.111 -23.321  0.00  0.00    -0.020 C 
ATOM     18  C   UNL     1      33.872 -12.262 -26.153  0.00  0.00    +0.034 C 
ATOM     19  C   UNL     1      34.558 -11.077 -24.031  0.00  0.00    +0.038 C 
ATOM     20  C   UNL     1      34.463 -11.076 -25.502  0.00  0.00    +0.195 C 
ENDROOT
BRANCH   6  21
ATOM     21  O   UNL     1      37.015 -18.264 -22.543  0.00  0.00    -0.380 OA
ATOM     22  H   UNL     1      37.557 -19.059 -22.670  0.00  0.00    +0.211 HD
ENDBRANCH   6  21
BRANCH   9  23
ATOM     23  O   UNL     1      33.249 -14.880 -21.267  0.00  0.00    -0.384 OA
ATOM     24  H   UNL     1      33.316 -14.321 -20.477  0.00  0.00    +0.210 HD
ENDBRANCH   9  23
BRANCH   6  26
ATOM     25  O   UNL     1      36.400 -19.118 -20.133  0.00  0.00    -0.290 OA
ATOM     26  C   UNL     1      35.672 -19.433 -21.073  0.00  0.00    +0.218 C 
BRANCH  26  27
ATOM     27  C   UNL     1      34.749 -20.632 -21.017  0.00  0.00    +0.274 C 
BRANCH  27  28
ATOM     28  O   UNL     1      34.784 -21.229 -19.738  0.00  0.00    -0.440 OA
BRANCH  28  30
ATOM     29  O   UNL     1      32.545 -20.986 -19.244  0.00  0.00    -0.250 OA
ATOM     30  C   UNL     1      33.576 -21.642 -19.227  0.00  0.00    +0.318 C 
BRANCH  30  31
ATOM     31  C   UNL     1      33.723 -23.030 -18.644  0.00  0.00    +0.121 C 
BRANCH  31  32
ATOM     32  C   UNL     1      33.226 -23.131 -17.206  0.00  0.00    +0.121 C 
BRANCH  32  34
ATOM     33  O   UNL     1      35.523 -23.454 -16.530  0.00  0.00    -0.250 OA
ATOM     34  C   UNL     1      34.375 -23.152 -16.229  0.00  0.00    +0.314 C 
BRANCH  34  35
ATOM     35  O   UNL     1      34.006 -22.777 -14.980  0.00  0.00    -0.480 OA
ATOM     36  H   UNL     1      34.625 -22.358 -14.414  0.00  0.00    +0.295 HD
ENDBRANCH  34  35
ENDBRANCH  32  34
ENDBRANCH  31  32
ENDBRANCH  30  31
ENDBRANCH  28  30
ENDBRANCH  27  28
ENDBRANCH  26  27
ENDBRANCH   6  26
TORSDOF 10
ENDMDL
MODEL 2
REMARK VINA RESULT:      -9.0      5.067      9.368
REMARK  Name = 656804
REMARK  10 active torsions:
REMARK  status: ('A' for Active; 'I' for Inactive)
REMARK    1  A    between atoms: C_6  and  O_21
REMARK    2  A    between atoms: C_6  and  C_26
REMARK    3  A    between atoms: C_9  and  O_23
REMARK    4  A    between atoms: C_26  and  C_27
REMARK    5  A    between atoms: C_27  and  O_28
REMARK    6  A    between atoms: O_28  and  C_30
REMARK    7  A    between atoms: C_30  and  C_31
REMARK    8  A    between atoms: C_31  and  C_32
REMARK    9  A    between atoms: C_32  and  C_34
REMARK   10  A    between atoms: C_34  and  O_35
REMARK                            x       y       z     vdW  Elec       q    Type
REMARK                         _______ _______ _______ _____ _____    ______ ____
ROOT
ATOM      1  O   UNL     1      33.545 -18.273 -21.439  0.00  0.00    -0.287 OA
ATOM      2  C   UNL     1      35.335 -23.567 -15.403  0.00  0.00    +0.031 C 
ATOM      3  C   UNL     1      36.265 -22.544 -16.093  0.00  0.00    +0.003 C 
ATOM      4  C   UNL     1      36.098 -22.491 -17.618  0.00  0.00    +0.003 C 
ATOM      5  C   UNL     1      34.619 -22.082 -17.948  0.00  0.00    +0.034 C 
ATOM      6  C   UNL     1      35.813 -23.397 -13.935  0.00  0.00    +0.143 C 
ATOM      7  C   UNL     1      33.882 -23.141 -15.697  0.00  0.00    +0.032 C 
ATOM      8  C   UNL     1      37.639 -22.869 -15.511  0.00  0.00    +0.003 C 
ATOM      9  C   UNL     1      33.585 -22.987 -17.205  0.00  0.00    +0.111 C 
ATOM     10  C   UNL     1      34.385 -21.893 -19.499  0.00  0.00    +0.036 C 
ATOM     11  C   UNL     1      37.349 -23.266 -14.049  0.00  0.00    +0.034 C 
ATOM     12  C   UNL     1      37.100 -21.498 -18.234  0.00  0.00    +0.004 C 
ATOM     13  C   UNL     1      35.583 -25.031 -15.864  0.00  0.00    +0.003 C 
ATOM     14  C   UNL     1      36.886 -21.313 -19.731  0.00  0.00    +0.022 C 
ATOM     15  C   UNL     1      35.457 -20.922 -20.008  0.00  0.00    -0.038 C 
ATOM     16  C   UNL     1      34.493 -23.199 -20.317  0.00  0.00    +0.009 C 
ATOM     17  C   UNL     1      32.986 -21.348 -19.753  0.00  0.00    -0.020 C 
ATOM     18  C   UNL     1      35.181 -19.762 -20.626  0.00  0.00    +0.034 C 
ATOM     19  C   UNL     1      32.706 -20.193 -20.366  0.00  0.00    +0.038 C 
ATOM     20  C   UNL     1      33.790 -19.325 -20.860  0.00  0.00    +0.195 C 
ENDROOT
BRANCH   6  21
ATOM     21  O   UNL     1      35.280 -22.213 -13.351  0.00  0.00    -0.380 OA
ATOM     22  H   UNL     1      35.772 -21.442 -13.675  0.00  0.00    +0.211 HD
ENDBRANCH   6  21
BRANCH   9  23
ATOM     23  O   UNL     1      33.499 -24.272 -17.806  0.00  0.00    -0.384 OA
ATOM     24  H   UNL     1      34.131 -24.871 -17.379  0.00  0.00    +0.210 HD
ENDBRANCH   9  23
BRANCH   6  26
ATOM     25  O   UNL     1      34.195 -24.741 -12.816  0.00  0.00    -0.290 OA
ATOM     26  C   UNL     1      35.384 -24.494 -13.007  0.00  0.00    +0.218 C 
BRANCH  26  27
ATOM     27  C   UNL     1      36.493 -25.267 -12.326  0.00  0.00    +0.274 C 
BRANCH  27  28
ATOM     28  O   UNL     1      36.674 -26.526 -12.939  0.00  0.00    -0.440 OA
BRANCH  28  30
ATOM     29  O   UNL     1      37.814 -27.329 -14.775  0.00  0.00    -0.250 OA
ATOM     30  C   UNL     1      37.770 -26.651 -13.758  0.00  0.00    +0.318 C 
BRANCH  30  31
ATOM     31  C   UNL     1      38.910 -25.822 -13.206  0.00  0.00    +0.121 C 
BRANCH  31  32
ATOM     32  C   UNL     1      40.266 -26.209 -13.786  0.00  0.00    +0.121 C 
BRANCH  32  34
ATOM     33  O   UNL     1      41.286 -24.288 -14.839  0.00  0.00    -0.250 OA
ATOM     34  C   UNL     1      40.637 -25.321 -14.948  0.00  0.00    +0.314 C 
BRANCH  34  35
ATOM     35  O   UNL     1      40.194 -25.800 -16.135  0.00  0.00    -0.480 OA
ATOM     36  H   UNL     1      39.274 -25.877 -16.296  0.00  0.00    +0.295 HD
ENDBRANCH  34  35
ENDBRANCH  32  34
ENDBRANCH  31  32
ENDBRANCH  30  31
ENDBRANCH  28  30
ENDBRANCH  27  28
ENDBRANCH  26  27
ENDBRANCH   6  26
TORSDOF 10
ENDMDL
MODEL 3
REMARK VINA RESULT:      -8.7      3.364      6.492
REMARK  Name = 656804
REMARK  10 active torsions:
REMARK  status: ('A' for Active; 'I' for Inactive)
REMARK    1  A    between atoms: C_6  and  O_21
REMARK    2  A    between atoms: C_6  and  C_26
REMARK    3  A    between atoms: C_9  and  O_23
REMARK    4  A    between atoms: C_26  and  C_27
REMARK    5  A    between atoms: C_27  and  O_28
REMARK    6  A    between atoms: O_28  and  C_30
REMARK    7  A    between atoms: C_30  and  C_31
REMARK    8  A    between atoms: C_31  and  C_32
REMARK    9  A    between atoms: C_32  and  C_34
REMARK   10  A    between atoms: C_34  and  O_35
REMARK                            x       y       z     vdW  Elec       q    Type
REMARK                         _______ _______ _______ _____ _____    ______ ____
ROOT
ATOM      1  O   UNL     1      30.450  -4.681 -23.611  0.00  0.00    -0.287 OA
ATOM      2  C   UNL     1      33.312 -12.392 -23.502  0.00  0.00    +0.031 C 
ATOM      3  C   UNL     1      32.300 -11.729 -22.542  0.00  0.00    +0.003 C 
ATOM      4  C   UNL     1      32.695 -10.307 -22.119  0.00  0.00    +0.003 C 
ATOM      5  C   UNL     1      32.789  -9.407 -23.402  0.00  0.00    +0.034 C 
ATOM      6  C   UNL     1      32.644 -13.787 -23.654  0.00  0.00    +0.143 C 
ATOM      7  C   UNL     1      33.374 -11.528 -24.778  0.00  0.00    +0.032 C 
ATOM      8  C   UNL     1      32.090 -12.789 -21.463  0.00  0.00    +0.003 C 
ATOM      9  C   UNL     1      33.704 -10.045 -24.494  0.00  0.00    +0.111 C 
ATOM     10  C   UNL     1      33.082  -7.895 -23.050  0.00  0.00    +0.036 C 
ATOM     11  C   UNL     1      32.150 -14.126 -22.228  0.00  0.00    +0.034 C 
ATOM     12  C   UNL     1      31.673  -9.741 -21.117  0.00  0.00    +0.004 C 
ATOM     13  C   UNL     1      34.728 -12.559 -22.883  0.00  0.00    +0.003 C 
ATOM     14  C   UNL     1      31.951  -8.284 -20.766  0.00  0.00    +0.022 C 
ATOM     15  C   UNL     1      32.034  -7.454 -22.022  0.00  0.00    -0.038 C 
ATOM     16  C   UNL     1      34.481  -7.648 -22.445  0.00  0.00    +0.009 C 
ATOM     17  C   UNL     1      33.008  -7.043 -24.309  0.00  0.00    -0.020 C 
ATOM     18  C   UNL     1      31.191  -6.425 -22.209  0.00  0.00    +0.034 C 
ATOM     19  C   UNL     1      32.170  -6.019 -24.502  0.00  0.00    +0.038 C 
ATOM     20  C   UNL     1      31.210  -5.630 -23.453  0.00  0.00    +0.195 C 
ENDROOT
BRANCH   6  21
ATOM     21  O   UNL     1      31.530 -13.732 -24.539  0.00  0.00    -0.380 OA
ATOM     22  H   UNL     1      30.839 -13.168 -24.156  0.00  0.00    +0.211 HD
ENDBRANCH   6  21
BRANCH   9  23
ATOM     23  O   UNL     1      35.078  -9.922 -24.152  0.00  0.00    -0.384 OA
ATOM     24  H   UNL     1      35.213  -9.105 -23.647  0.00  0.00    +0.210 HD
ENDBRANCH   9  23
BRANCH   6  26
ATOM     25  O   UNL     1      33.812 -14.855 -25.434  0.00  0.00    -0.290 OA
ATOM     26  C   UNL     1      33.530 -14.845 -24.236  0.00  0.00    +0.218 C 
BRANCH  26  27
ATOM     27  C   UNL     1      34.050 -15.890 -23.272  0.00  0.00    +0.274 C 
BRANCH  27  28
ATOM     28  O   UNL     1      35.137 -16.593 -23.836  0.00  0.00    -0.440 OA
BRANCH  28  30
ATOM     29  O   UNL     1      34.436 -18.004 -25.519  0.00  0.00    -0.250 OA
ATOM     30  C   UNL     1      34.849 -17.821 -24.383  0.00  0.00    +0.318 C 
BRANCH  30  31
ATOM     31  C   UNL     1      35.123 -18.905 -23.364  0.00  0.00    +0.121 C 
BRANCH  31  32
ATOM     32  C   UNL     1      36.381 -18.648 -22.541  0.00  0.00    +0.121 C 
BRANCH  32  34
ATOM     33  O   UNL     1      36.467 -19.493 -20.279  0.00  0.00    -0.250 OA
ATOM     34  C   UNL     1      36.076 -18.638 -21.064  0.00  0.00    +0.314 C 
BRANCH  34  35
ATOM     35  O   UNL     1      35.339 -17.565 -20.689  0.00  0.00    -0.480 OA
ATOM     36  H   UNL     1      35.446 -17.197 -19.834  0.00  0.00    +0.295 HD
ENDBRANCH  34  35
ENDBRANCH  32  34
ENDBRANCH  31  32
ENDBRANCH  30  31
ENDBRANCH  28  30
ENDBRANCH  27  28
ENDBRANCH  26  27
ENDBRANCH   6  26
TORSDOF 10
ENDMDL
MODEL 4
REMARK VINA RESULT:      -8.2      4.897      9.001
REMARK  Name = 656804
REMARK  10 active torsions:
REMARK  status: ('A' for Active; 'I' for Inactive)
REMARK    1  A    between atoms: C_6  and  O_21
REMARK    2  A    between atoms: C_6  and  C_26
REMARK    3  A    between atoms: C_9  and  O_23
REMARK    4  A    between atoms: C_26  and  C_27
REMARK    5  A    between atoms: C_27  and  O_28
REMARK    6  A    between atoms: O_28  and  C_30
REMARK    7  A    between atoms: C_30  and  C_31
REMARK    8  A    between atoms: C_31  and  C_32
REMARK    9  A    between atoms: C_32  and  C_34
REMARK   10  A    between atoms: C_34  and  O_35
REMARK                            x       y       z     vdW  Elec       q    Type
REMARK                         _______ _______ _______ _____ _____    ______ ____
ROOT
ATOM      1  O   UNL     1      34.189 -18.161 -21.720  0.00  0.00    -0.287 OA
ATOM      2  C   UNL     1      34.396 -23.613 -15.564  0.00  0.00    +0.031 C 
ATOM      3  C   UNL     1      35.444 -22.539 -15.932  0.00  0.00    +0.003 C 
ATOM      4  C   UNL     1      35.715 -22.435 -17.440  0.00  0.00    +0.003 C 
ATOM      5  C   UNL     1      34.376 -22.059 -18.168  0.00  0.00    +0.034 C 
ATOM      6  C   UNL     1      34.430 -23.482 -14.016  0.00  0.00    +0.143 C 
ATOM      7  C   UNL     1      33.071 -23.221 -16.249  0.00  0.00    +0.032 C 
ATOM      8  C   UNL     1      36.607 -22.843 -14.992  0.00  0.00    +0.003 C 
ATOM      9  C   UNL     1      33.210 -23.021 -17.775  0.00  0.00    +0.111 C 
ATOM     10  C   UNL     1      34.584 -21.821 -19.716  0.00  0.00    +0.036 C 
ATOM     11  C   UNL     1      35.929 -23.300 -13.684  0.00  0.00    +0.034 C 
ATOM     12  C   UNL     1      36.810 -21.391 -17.718  0.00  0.00    +0.004 C 
ATOM     13  C   UNL     1      34.822 -25.051 -15.974  0.00  0.00    +0.003 C 
ATOM     14  C   UNL     1      37.024 -21.158 -19.209  0.00  0.00    +0.022 C 
ATOM     15  C   UNL     1      35.718 -20.801 -19.872  0.00  0.00    -0.038 C 
ATOM     16  C   UNL     1      34.972 -23.093 -20.503  0.00  0.00    +0.009 C 
ATOM     17  C   UNL     1      33.295 -21.310 -20.343  0.00  0.00    -0.020 C 
ATOM     18  C   UNL     1      35.584 -19.628 -20.512  0.00  0.00    +0.034 C 
ATOM     19  C   UNL     1      33.156 -20.143 -20.980  0.00  0.00    +0.038 C 
ATOM     20  C   UNL     1      34.301 -19.225 -21.122  0.00  0.00    +0.195 C 
ENDROOT
BRANCH   6  21
ATOM     21  O   UNL     1      33.707 -22.336 -13.579  0.00  0.00    -0.380 OA
ATOM     22  H   UNL     1      33.370 -22.489 -12.682  0.00  0.00    +0.211 HD
ENDBRANCH   6  21
BRANCH   9  23
ATOM     23  O   UNL     1      33.348 -24.285 -18.409  0.00  0.00    -0.384 OA
ATOM     24  H   UNL     1      33.552 -24.155 -19.349  0.00  0.00    +0.210 HD
ENDBRANCH   9  23
BRANCH   6  26
ATOM     25  O   UNL     1      34.350 -25.139 -12.307  0.00  0.00    -0.290 OA
ATOM     26  C   UNL     1      33.799 -24.624 -13.278  0.00  0.00    +0.218 C 
BRANCH  26  27
ATOM     27  C   UNL     1      32.459 -25.099 -13.798  0.00  0.00    +0.274 C 
BRANCH  27  28
ATOM     28  O   UNL     1      31.404 -24.403 -13.169  0.00  0.00    -0.440 OA
BRANCH  28  30
ATOM     29  O   UNL     1      30.675 -22.461 -14.176  0.00  0.00    -0.250 OA
ATOM     30  C   UNL     1      30.586 -23.667 -13.992  0.00  0.00    +0.318 C 
BRANCH  30  31
ATOM     31  C   UNL     1      29.561 -24.578 -14.632  0.00  0.00    +0.121 C 
BRANCH  31  32
ATOM     32  C   UNL     1      29.701 -24.665 -16.147  0.00  0.00    +0.121 C 
BRANCH  32  34
ATOM     33  O   UNL     1      27.655 -24.093 -17.300  0.00  0.00    -0.250 OA
ATOM     34  C   UNL     1      28.733 -23.738 -16.840  0.00  0.00    +0.314 C 
BRANCH  34  35
ATOM     35  O   UNL     1      29.173 -22.457 -16.879  0.00  0.00    -0.480 OA
ATOM     36  H   UNL     1      29.606 -22.133 -17.645  0.00  0.00    +0.295 HD
ENDBRANCH  34  35
ENDBRANCH  32  34
ENDBRANCH  31  32
ENDBRANCH  30  31
ENDBRANCH  28  30
ENDBRANCH  27  28
ENDBRANCH  26  27
ENDBRANCH   6  26
TORSDOF 10
ENDMDL
MODEL 5
REMARK VINA RESULT:      -7.6      4.954     12.565
REMARK  Name = 656804
REMARK  10 active torsions:
REMARK  status: ('A' for Active; 'I' for Inactive)
REMARK    1  A    between atoms: C_6  and  O_21
REMARK    2  A    between atoms: C_6  and  C_26
REMARK    3  A    between atoms: C_9  and  O_23
REMARK    4  A    between atoms: C_26  and  C_27
REMARK    5  A    between atoms: C_27  and  O_28
REMARK    6  A    between atoms: O_28  and  C_30
REMARK    7  A    between atoms: C_30  and  C_31
REMARK    8  A    between atoms: C_31  and  C_32
REMARK    9  A    between atoms: C_32  and  C_34
REMARK   10  A    between atoms: C_34  and  O_35
REMARK                            x       y       z     vdW  Elec       q    Type
REMARK                         _______ _______ _______ _____ _____    ______ ____
ROOT
ATOM      1  O   UNL     1      34.956 -16.281 -20.432  0.00  0.00    -0.287 OA
ATOM      2  C   UNL     1      33.180  -8.931 -23.670  0.00  0.00    +0.031 C 
ATOM      3  C   UNL     1      32.813  -9.480 -22.273  0.00  0.00    +0.003 C 
ATOM      4  C   UNL     1      32.330 -10.937 -22.293  0.00  0.00    +0.003 C 
ATOM      5  C   UNL     1      33.477 -11.841 -22.870  0.00  0.00    +0.034 C 
ATOM      6  C   UNL     1      33.546  -7.472 -23.282  0.00  0.00    +0.143 C 
ATOM      7  C   UNL     1      34.334  -9.796 -24.218  0.00  0.00    +0.032 C 
ATOM      8  C   UNL     1      31.893  -8.405 -21.702  0.00  0.00    +0.003 C 
ATOM      9  C   UNL     1      34.006 -11.306 -24.238  0.00  0.00    +0.111 C 
ATOM     10  C   UNL     1      33.108 -13.377 -22.823  0.00  0.00    +0.036 C 
ATOM     11  C   UNL     1      32.480  -7.081 -22.232  0.00  0.00    +0.034 C 
ATOM     12  C   UNL     1      31.926 -11.389 -20.878  0.00  0.00    +0.004 C 
ATOM     13  C   UNL     1      31.982  -8.921 -24.660  0.00  0.00    +0.003 C 
ATOM     14  C   UNL     1      31.562 -12.868 -20.824  0.00  0.00    +0.022 C 
ATOM     15  C   UNL     1      32.686 -13.701 -21.386  0.00  0.00    -0.038 C 
ATOM     16  C   UNL     1      31.951 -13.776 -23.765  0.00  0.00    +0.009 C 
ATOM     17  C   UNL     1      34.307 -14.214 -23.245  0.00  0.00    -0.020 C 
ATOM     18  C   UNL     1      33.284 -14.631 -20.623  0.00  0.00    +0.034 C 
ATOM     19  C   UNL     1      34.907 -15.139 -22.490  0.00  0.00    +0.038 C 
ATOM     20  C   UNL     1      34.424 -15.422 -21.127  0.00  0.00    +0.195 C 
ENDROOT
BRANCH   6  21
ATOM     21  O   UNL     1      34.839  -7.403 -22.691  0.00  0.00    -0.380 OA
ATOM     22  H   UNL     1      34.951  -6.543 -22.255  0.00  0.00    +0.211 HD
ENDBRANCH   6  21
BRANCH   9  23
ATOM     23  O   UNL     1      33.089 -11.579 -25.289  0.00  0.00    -0.384 OA
ATOM     24  H   UNL     1      33.471 -12.240 -25.888  0.00  0.00    +0.210 HD
ENDBRANCH   9  23
BRANCH   6  26
ATOM     25  O   UNL     1      34.633  -6.402 -25.112  0.00  0.00    -0.290 OA
ATOM     26  C   UNL     1      33.613  -6.516 -24.435  0.00  0.00    +0.218 C 
BRANCH  26  27
ATOM     27  C   UNL     1      32.362  -5.709 -24.710  0.00  0.00    +0.274 C 
BRANCH  27  28
ATOM     28  O   UNL     1      32.689  -4.367 -25.003  0.00  0.00    -0.440 OA
BRANCH  28  30
ATOM     29  O   UNL     1      32.098  -3.926 -27.187  0.00  0.00    -0.250 OA
ATOM     30  C   UNL     1      31.944  -3.760 -25.986  0.00  0.00    +0.318 C 
BRANCH  30  31
ATOM     31  C   UNL     1      30.908  -2.859 -25.350  0.00  0.00    +0.121 C 
BRANCH  31  32
ATOM     32  C   UNL     1      31.424  -2.134 -24.112  0.00  0.00    +0.121 C 
BRANCH  32  34
ATOM     33  O   UNL     1      29.703  -1.841 -22.441  0.00  0.00    -0.250 OA
ATOM     34  C   UNL     1      30.628  -2.509 -22.887  0.00  0.00    +0.314 C 
BRANCH  34  35
ATOM     35  O   UNL     1      31.031  -3.682 -22.340  0.00  0.00    -0.480 OA
ATOM     36  H   UNL     1      30.398  -4.334 -22.108  0.00  0.00    +0.295 HD
ENDBRANCH  34  35
ENDBRANCH  32  34
ENDBRANCH  31  32
ENDBRANCH  30  31
ENDBRANCH  28  30
ENDBRANCH  27  28
ENDBRANCH  26  27
ENDBRANCH   6  26
TORSDOF 10
ENDMDL
MODEL 6
REMARK VINA RESULT:      -7.4      4.383     12.597
REMARK  Name = 656804
REMARK  10 active torsions:
REMARK  status: ('A' for Active; 'I' for Inactive)
REMARK    1  A    between atoms: C_6  and  O_21
REMARK    2  A    between atoms: C_6  and  C_26
REMARK    3  A    between atoms: C_9  and  O_23
REMARK    4  A    between atoms: C_26  and  C_27
REMARK    5  A    between atoms: C_27  and  O_28
REMARK    6  A    between atoms: O_28  and  C_30
REMARK    7  A    between atoms: C_30  and  C_31
REMARK    8  A    between atoms: C_31  and  C_32
REMARK    9  A    between atoms: C_32  and  C_34
REMARK   10  A    between atoms: C_34  and  O_35
REMARK                            x       y       z     vdW  Elec       q    Type
REMARK                         _______ _______ _______ _____ _____    ______ ____
ROOT
ATOM      1  O   UNL     1      34.963 -16.355 -20.468  0.00  0.00    -0.287 OA
ATOM      2  C   UNL     1      33.227  -8.952 -23.606  0.00  0.00    +0.031 C 
ATOM      3  C   UNL     1      32.839  -9.526 -22.225  0.00  0.00    +0.003 C 
ATOM      4  C   UNL     1      32.358 -10.983 -22.278  0.00  0.00    +0.003 C 
ATOM      5  C   UNL     1      33.516 -11.875 -22.852  0.00  0.00    +0.034 C 
ATOM      6  C   UNL     1      33.584  -7.499 -23.187  0.00  0.00    +0.143 C 
ATOM      7  C   UNL     1      34.390  -9.806 -24.151  0.00  0.00    +0.032 C 
ATOM      8  C   UNL     1      31.908  -8.462 -21.650  0.00  0.00    +0.003 C 
ATOM      9  C   UNL     1      34.066 -11.316 -24.202  0.00  0.00    +0.111 C 
ATOM     10  C   UNL     1      33.148 -13.412 -22.837  0.00  0.00    +0.036 C 
ATOM     11  C   UNL     1      32.502  -7.128 -22.148  0.00  0.00    +0.034 C 
ATOM     12  C   UNL     1      31.933 -11.459 -20.877  0.00  0.00    +0.004 C 
ATOM     13  C   UNL     1      32.044  -8.927 -24.615  0.00  0.00    +0.003 C 
ATOM     14  C   UNL     1      31.570 -12.939 -20.854  0.00  0.00    +0.022 C 
ATOM     15  C   UNL     1      32.704 -13.761 -21.412  0.00  0.00    -0.038 C 
ATOM     16  C   UNL     1      32.006 -13.796 -23.804  0.00  0.00    +0.009 C 
ATOM     17  C   UNL     1      34.355 -14.240 -23.255  0.00  0.00    -0.020 C 
ATOM     18  C   UNL     1      33.292 -14.703 -20.657  0.00  0.00    +0.034 C 
ATOM     19  C   UNL     1      34.945 -15.178 -22.507  0.00  0.00    +0.038 C 
ATOM     20  C   UNL     1      34.441 -15.485 -21.156  0.00  0.00    +0.195 C 
ENDROOT
BRANCH   6  21
ATOM     21  O   UNL     1      34.868  -7.439 -22.575  0.00  0.00    -0.380 OA
ATOM     22  H   UNL     1      34.828  -7.850 -21.697  0.00  0.00    +0.211 HD
ENDBRANCH   6  21
BRANCH   9  23
ATOM     23  O   UNL     1      33.165 -11.572 -25.272  0.00  0.00    -0.384 OA
ATOM     24  H   UNL     1      32.280 -11.746 -24.914  0.00  0.00    +0.210 HD
ENDBRANCH   9  23
BRANCH   6  26
ATOM     25  O   UNL     1      34.629  -6.517 -25.090  0.00  0.00    -0.290 OA
ATOM     26  C   UNL     1      33.668  -6.524 -24.323  0.00  0.00    +0.218 C 
BRANCH  26  27
ATOM     27  C   UNL     1      32.511  -5.557 -24.463  0.00  0.00    +0.274 C 
BRANCH  27  28
ATOM     28  O   UNL     1      32.303  -5.221 -25.818  0.00  0.00    -0.440 OA
BRANCH  28  30
ATOM     29  O   UNL     1      32.331  -2.972 -25.310  0.00  0.00    -0.250 OA
ATOM     30  C   UNL     1      32.354  -3.882 -26.126  0.00  0.00    +0.318 C 
BRANCH  30  31
ATOM     31  C   UNL     1      32.442  -3.713 -27.627  0.00  0.00    +0.121 C 
BRANCH  31  32
ATOM     32  C   UNL     1      33.655  -4.407 -28.237  0.00  0.00    +0.121 C 
BRANCH  32  34
ATOM     33  O   UNL     1      35.196  -2.731 -27.429  0.00  0.00    -0.250 OA
ATOM     34  C   UNL     1      34.938  -3.913 -27.615  0.00  0.00    +0.314 C 
BRANCH  34  35
ATOM     35  O   UNL     1      35.770  -4.923 -27.263  0.00  0.00    -0.480 OA
ATOM     36  H   UNL     1      35.531  -5.509 -26.572  0.00  0.00    +0.295 HD
ENDBRANCH  34  35
ENDBRANCH  32  34
ENDBRANCH  31  32
ENDBRANCH  30  31
ENDBRANCH  28  30
ENDBRANCH  27  28
ENDBRANCH  26  27
ENDBRANCH   6  26
TORSDOF 10
ENDMDL
MODEL 7
REMARK VINA RESULT:      -6.7      6.296     10.998
REMARK  Name = 656804
REMARK  10 active torsions:
REMARK  status: ('A' for Active; 'I' for Inactive)
REMARK    1  A    between atoms: C_6  and  O_21
REMARK    2  A    between atoms: C_6  and  C_26
REMARK    3  A    between atoms: C_9  and  O_23
REMARK    4  A    between atoms: C_26  and  C_27
REMARK    5  A    between atoms: C_27  and  O_28
REMARK    6  A    between atoms: O_28  and  C_30
REMARK    7  A    between atoms: C_30  and  C_31
REMARK    8  A    between atoms: C_31  and  C_32
REMARK    9  A    between atoms: C_32  and  C_34
REMARK   10  A    between atoms: C_34  and  O_35
REMARK                            x       y       z     vdW  Elec       q    Type
REMARK                         _______ _______ _______ _____ _____    ______ ____
ROOT
ATOM      1  O   UNL     1      30.386  -1.791 -29.926  0.00  0.00    -0.287 OA
ATOM      2  C   UNL     1      32.360  -6.734 -23.654  0.00  0.00    +0.031 C 
ATOM      3  C   UNL     1      31.462  -5.477 -23.642  0.00  0.00    +0.003 C 
ATOM      4  C   UNL     1      32.029  -4.308 -24.460  0.00  0.00    +0.003 C 
ATOM      5  C   UNL     1      32.181  -4.765 -25.954  0.00  0.00    +0.034 C 
ATOM      6  C   UNL     1      31.533  -7.647 -22.708  0.00  0.00    +0.143 C 
ATOM      7  C   UNL     1      32.477  -7.204 -25.118  0.00  0.00    +0.032 C 
ATOM      8  C   UNL     1      31.169  -5.267 -22.159  0.00  0.00    +0.003 C 
ATOM      9  C   UNL     1      32.982  -6.100 -26.074  0.00  0.00    +0.111 C 
ATOM     10  C   UNL     1      32.655  -3.586 -26.893  0.00  0.00    +0.036 C 
ATOM     11  C   UNL     1      31.052  -6.695 -21.589  0.00  0.00    +0.034 C 
ATOM     12  C   UNL     1      31.111  -3.078 -24.346  0.00  0.00    +0.004 C 
ATOM     13  C   UNL     1      33.767  -6.488 -23.042  0.00  0.00    +0.003 C 
ATOM     14  C   UNL     1      31.563  -1.932 -25.244  0.00  0.00    +0.022 C 
ATOM     15  C   UNL     1      31.698  -2.410 -26.668  0.00  0.00    -0.038 C 
ATOM     16  C   UNL     1      34.093  -3.096 -26.613  0.00  0.00    +0.009 C 
ATOM     17  C   UNL     1      32.637  -4.038 -28.346  0.00  0.00    -0.020 C 
ATOM     18  C   UNL     1      30.971  -1.841 -27.643  0.00  0.00    +0.034 C 
ATOM     19  C   UNL     1      31.914  -3.477 -29.321  0.00  0.00    +0.038 C 
ATOM     20  C   UNL     1      31.040  -2.325 -29.037  0.00  0.00    +0.195 C 
ENDROOT
BRANCH   6  21
ATOM     21  O   UNL     1      30.404  -8.198 -23.377  0.00  0.00    -0.380 OA
ATOM     22  H   UNL     1      29.616  -8.098 -22.820  0.00  0.00    +0.211 HD
ENDBRANCH   6  21
BRANCH   9  23
ATOM     23  O   UNL     1      34.372  -5.889 -25.864  0.00  0.00    -0.384 OA
ATOM     24  H   UNL     1      34.496  -5.268 -25.128  0.00  0.00    +0.210 HD
ENDBRANCH   9  23
BRANCH   6  26
ATOM     25  O   UNL     1      32.597  -8.925 -21.001  0.00  0.00    -0.290 OA
ATOM     26  C   UNL     1      32.275  -8.840 -22.185  0.00  0.00    +0.218 C 
BRANCH  26  27
ATOM     27  C   UNL     1      32.601  -9.922 -23.193  0.00  0.00    +0.274 C 
BRANCH  27  28
ATOM     28  O   UNL     1      32.217 -11.190 -22.707  0.00  0.00    -0.440 OA
BRANCH  28  30
ATOM     29  O   UNL     1      33.845 -12.199 -23.991  0.00  0.00    -0.250 OA
ATOM     30  C   UNL     1      32.913 -12.267 -23.202  0.00  0.00    +0.318 C 
BRANCH  30  31
ATOM     31  C   UNL     1      32.348 -13.544 -22.619  0.00  0.00    +0.121 C 
BRANCH  31  32
ATOM     32  C   UNL     1      32.924 -13.882 -21.248  0.00  0.00    +0.121 C 
BRANCH  32  34
ATOM     33  O   UNL     1      34.832 -15.111 -20.417  0.00  0.00    -0.250 OA
ATOM     34  C   UNL     1      34.206 -14.669 -21.372  0.00  0.00    +0.314 C 
BRANCH  34  35
ATOM     35  O   UNL     1      34.582 -14.857 -22.661  0.00  0.00    -0.480 OA
ATOM     36  H   UNL     1      34.202 -15.550 -23.164  0.00  0.00    +0.295 HD
ENDBRANCH  34  35
ENDBRANCH  32  34
ENDBRANCH  31  32
ENDBRANCH  30  31
ENDBRANCH  28  30
ENDBRANCH  27  28
ENDBRANCH  26  27
ENDBRANCH   6  26
TORSDOF 10
ENDMDL
