MODEL 1
REMARK VINA RESULT:      -6.4      0.000      0.000
REMARK  Name = 449462
REMARK  6 active torsions:
REMARK  status: ('A' for Active; 'I' for Inactive)
REMARK    1  A    between atoms: C_2  and  O_11
REMARK    2  A    between atoms: C_3  and  O_13
REMARK    3  A    between atoms: C_4  and  N_7
REMARK    4  A    between atoms: C_5  and  C_17
REMARK    5  A    between atoms: C_6  and  O_15
REMARK    6  A    between atoms: C_17  and  O_18
REMARK                            x       y       z     vdW  Elec       q    Type
REMARK                         _______ _______ _______ _____ _____    ______ ____
ROOT
ATOM      1  O   UNL     1      39.202 -24.317 -12.921  0.00  0.00    -0.329 OA
ATOM      2  C   UNL     1      36.892 -24.573 -14.604  0.00  0.00    +0.125 C 
ATOM      3  C   UNL     1      38.288 -25.005 -15.061  0.00  0.00    +0.165 C 
ATOM      4  C   UNL     1      36.983 -23.496 -13.515  0.00  0.00    +0.022 C 
ATOM      5  C   UNL     1      39.132 -25.408 -13.847  0.00  0.00    +0.176 C 
ATOM      6  C   UNL     1      37.928 -23.946 -12.390  0.00  0.00    +0.213 C 
ENDROOT
BRANCH   4   7
ATOM      7  N   UNL     1      35.648 -23.231 -12.970  0.00  0.00    +0.387 N 
ATOM      8  H   UNL     1      34.941 -23.573 -13.621  0.00  0.00    -0.089 HD
ATOM      9  H   UNL     1      35.529 -22.227 -12.834  0.00  0.00    -0.089 HD
ATOM     10  H   UNL     1      35.545 -23.709 -12.075  0.00  0.00    -0.089 HD
ENDBRANCH   4   7
BRANCH   2  11
ATOM     11  O   UNL     1      36.158 -24.072 -15.718  0.00  0.00    -0.384 OA
ATOM     12  H   UNL     1      36.713 -23.455 -16.220  0.00  0.00    +0.210 HD
ENDBRANCH   2  11
BRANCH   3  13
ATOM     13  O   UNL     1      38.930 -23.921 -15.735  0.00  0.00    -0.380 OA
ATOM     14  H   UNL     1      38.907 -24.076 -16.692  0.00  0.00    +0.211 HD
ENDBRANCH   3  13
BRANCH   6  15
ATOM     15  O   UNL     1      38.095 -22.861 -11.480  0.00  0.00    -0.362 OA
ATOM     16  H   UNL     1      37.741 -22.049 -11.875  0.00  0.00    +0.213 HD
ENDBRANCH   6  15
BRANCH   5  17
ATOM     17  C   UNL     1      40.561 -25.774 -14.229  0.00  0.00    +0.169 C 
BRANCH  17  18
ATOM     18  O   UNL     1      40.584 -26.146 -15.595  0.00  0.00    -0.379 OA
ATOM     19  H   UNL     1      41.479 -26.428 -15.839  0.00  0.00    +0.211 HD
ENDBRANCH  17  18
ENDBRANCH   5  17
TORSDOF 6
ENDMDL
MODEL 2
REMARK VINA RESULT:      -6.2      1.951      2.350
REMARK  Name = 449462
REMARK  6 active torsions:
REMARK  status: ('A' for Active; 'I' for Inactive)
REMARK    1  A    between atoms: C_2  and  O_11
REMARK    2  A    between atoms: C_3  and  O_13
REMARK    3  A    between atoms: C_4  and  N_7
REMARK    4  A    between atoms: C_5  and  C_17
REMARK    5  A    between atoms: C_6  and  O_15
REMARK    6  A    between atoms: C_17  and  O_18
REMARK                            x       y       z     vdW  Elec       q    Type
REMARK                         _______ _______ _______ _____ _____    ______ ____
ROOT
ATOM      1  O   UNL     1      38.687 -23.874 -15.435  0.00  0.00    -0.329 OA
ATOM      2  C   UNL     1      36.227 -24.880 -14.351  0.00  0.00    +0.125 C 
ATOM      3  C   UNL     1      37.469 -25.761 -14.517  0.00  0.00    +0.165 C 
ATOM      4  C   UNL     1      36.254 -23.707 -15.340  0.00  0.00    +0.022 C 
ATOM      5  C   UNL     1      38.733 -24.900 -14.436  0.00  0.00    +0.176 C 
ATOM      6  C   UNL     1      37.597 -22.965 -15.258  0.00  0.00    +0.213 C 
ENDROOT
BRANCH   4   7
ATOM      7  N   UNL     1      35.155 -22.784 -15.041  0.00  0.00    +0.387 N 
ATOM      8  H   UNL     1      35.499 -22.024 -14.453  0.00  0.00    -0.089 HD
ATOM      9  H   UNL     1      34.414 -23.284 -14.552  0.00  0.00    -0.089 HD
ATOM     10  H   UNL     1      34.788 -22.399 -15.912  0.00  0.00    -0.089 HD
ENDBRANCH   4   7
BRANCH   2  11
ATOM     11  O   UNL     1      35.054 -25.661 -14.562  0.00  0.00    -0.384 OA
ATOM     12  H   UNL     1      34.293 -25.217 -14.157  0.00  0.00    +0.210 HD
ENDBRANCH   2  11
BRANCH   3  13
ATOM     13  O   UNL     1      37.429 -26.412 -15.789  0.00  0.00    -0.380 OA
ATOM     14  H   UNL     1      37.025 -27.288 -15.691  0.00  0.00    +0.211 HD
ENDBRANCH   3  13
BRANCH   6  15
ATOM     15  O   UNL     1      37.633 -21.981 -16.290  0.00  0.00    -0.362 OA
ATOM     16  H   UNL     1      38.238 -22.268 -16.991  0.00  0.00    +0.213 HD
ENDBRANCH   6  15
BRANCH   5  17
ATOM     17  C   UNL     1      40.003 -25.709 -14.674  0.00  0.00    +0.169 C 
BRANCH  17  18
ATOM     18  O   UNL     1      40.250 -25.765 -16.068  0.00  0.00    -0.379 OA
ATOM     19  H   UNL     1      40.548 -24.896 -16.378  0.00  0.00    +0.211 HD
ENDBRANCH  17  18
ENDBRANCH   5  17
TORSDOF 6
ENDMDL
MODEL 3
REMARK VINA RESULT:      -6.0      2.033      3.164
REMARK  Name = 449462
REMARK  6 active torsions:
REMARK  status: ('A' for Active; 'I' for Inactive)
REMARK    1  A    between atoms: C_2  and  O_11
REMARK    2  A    between atoms: C_3  and  O_13
REMARK    3  A    between atoms: C_4  and  N_7
REMARK    4  A    between atoms: C_5  and  C_17
REMARK    5  A    between atoms: C_6  and  O_15
REMARK    6  A    between atoms: C_17  and  O_18
REMARK                            x       y       z     vdW  Elec       q    Type
REMARK                         _______ _______ _______ _____ _____    ______ ____
ROOT
ATOM      1  O   UNL     1      37.201 -24.853 -14.921  0.00  0.00    -0.329 OA
ATOM      2  C   UNL     1      35.833 -24.506 -12.422  0.00  0.00    +0.125 C 
ATOM      3  C   UNL     1      37.124 -25.322 -12.541  0.00  0.00    +0.165 C 
ATOM      4  C   UNL     1      35.089 -24.462 -13.763  0.00  0.00    +0.022 C 
ATOM      5  C   UNL     1      37.964 -24.797 -13.710  0.00  0.00    +0.176 C 
ATOM      6  C   UNL     1      36.037 -24.024 -14.890  0.00  0.00    +0.213 C 
ENDROOT
BRANCH   4   7
ATOM      7  N   UNL     1      33.959 -23.533 -13.672  0.00  0.00    +0.387 N 
ATOM      8  H   UNL     1      34.238 -22.622 -14.038  0.00  0.00    -0.089 HD
ATOM      9  H   UNL     1      33.676 -23.436 -12.697  0.00  0.00    -0.089 HD
ATOM     10  H   UNL     1      33.177 -23.893 -14.218  0.00  0.00    -0.089 HD
ENDBRANCH   4   7
BRANCH   2  11
ATOM     11  O   UNL     1      34.994 -25.081 -11.424  0.00  0.00    -0.384 OA
ATOM     12  H   UNL     1      34.103 -25.208 -11.785  0.00  0.00    +0.210 HD
ENDBRANCH   2  11
BRANCH   3  13
ATOM     13  O   UNL     1      36.805 -26.695 -12.776  0.00  0.00    -0.380 OA
ATOM     14  H   UNL     1      36.597 -26.822 -13.714  0.00  0.00    +0.211 HD
ENDBRANCH   3  13
BRANCH   6  15
ATOM     15  O   UNL     1      35.345 -24.139 -16.132  0.00  0.00    -0.362 OA
ATOM     16  H   UNL     1      34.424 -24.394 -15.967  0.00  0.00    +0.213 HD
ENDBRANCH   6  15
BRANCH   5  17
ATOM     17  C   UNL     1      39.228 -25.621 -13.931  0.00  0.00    +0.169 C 
BRANCH  17  18
ATOM     18  O   UNL     1      38.897 -26.761 -14.703  0.00  0.00    -0.379 OA
ATOM     19  H   UNL     1      38.889 -26.524 -15.643  0.00  0.00    +0.211 HD
ENDBRANCH  17  18
ENDBRANCH   5  17
TORSDOF 6
ENDMDL
MODEL 4
REMARK VINA RESULT:      -6.0     10.298     11.294
REMARK  Name = 449462
REMARK  6 active torsions:
REMARK  status: ('A' for Active; 'I' for Inactive)
REMARK    1  A    between atoms: C_2  and  O_11
REMARK    2  A    between atoms: C_3  and  O_13
REMARK    3  A    between atoms: C_4  and  N_7
REMARK    4  A    between atoms: C_5  and  C_17
REMARK    5  A    between atoms: C_6  and  O_15
REMARK    6  A    between atoms: C_17  and  O_18
REMARK                            x       y       z     vdW  Elec       q    Type
REMARK                         _______ _______ _______ _____ _____    ______ ____
ROOT
ATOM      1  O   UNL     1      35.106 -17.447 -20.679  0.00  0.00    -0.329 OA
ATOM      2  C   UNL     1      34.694 -17.039 -23.489  0.00  0.00    +0.125 C 
ATOM      3  C   UNL     1      35.268 -18.343 -22.928  0.00  0.00    +0.165 C 
ATOM      4  C   UNL     1      34.962 -15.868 -22.535  0.00  0.00    +0.022 C 
ATOM      5  C   UNL     1      34.755 -18.565 -21.502  0.00  0.00    +0.176 C 
ATOM      6  C   UNL     1      34.508 -16.221 -21.110  0.00  0.00    +0.213 C 
ENDROOT
BRANCH   4   7
ATOM      7  N   UNL     1      34.252 -14.675 -23.003  0.00  0.00    +0.387 N 
ATOM      8  H   UNL     1      33.799 -14.878 -23.895  0.00  0.00    -0.089 HD
ATOM      9  H   UNL     1      34.916 -13.910 -23.126  0.00  0.00    -0.089 HD
ATOM     10  H   UNL     1      33.547 -14.407 -22.317  0.00  0.00    -0.089 HD
ENDBRANCH   4   7
BRANCH   2  11
ATOM     11  O   UNL     1      35.278 -16.768 -24.761  0.00  0.00    -0.384 OA
ATOM     12  H   UNL     1      36.245 -16.775 -24.680  0.00  0.00    +0.210 HD
ENDBRANCH   2  11
BRANCH   3  13
ATOM     13  O   UNL     1      36.695 -18.270 -22.904  0.00  0.00    -0.380 OA
ATOM     14  H   UNL     1      37.055 -19.106 -22.571  0.00  0.00    +0.211 HD
ENDBRANCH   3  13
BRANCH   6  15
ATOM     15  O   UNL     1      34.909 -15.169 -20.234  0.00  0.00    -0.362 OA
ATOM     16  H   UNL     1      35.822 -14.910 -20.435  0.00  0.00    +0.213 HD
ENDBRANCH   6  15
BRANCH   5  17
ATOM     17  C   UNL     1      35.354 -19.810 -20.857  0.00  0.00    +0.169 C 
BRANCH  17  18
ATOM     18  O   UNL     1      36.562 -19.449 -20.211  0.00  0.00    -0.379 OA
ATOM     19  H   UNL     1      36.397 -19.322 -19.264  0.00  0.00    +0.211 HD
ENDBRANCH  17  18
ENDBRANCH   5  17
TORSDOF 6
ENDMDL
MODEL 5
REMARK VINA RESULT:      -5.9      2.853      4.497
REMARK  Name = 449462
REMARK  6 active torsions:
REMARK  status: ('A' for Active; 'I' for Inactive)
REMARK    1  A    between atoms: C_2  and  O_11
REMARK    2  A    between atoms: C_3  and  O_13
REMARK    3  A    between atoms: C_4  and  N_7
REMARK    4  A    between atoms: C_5  and  C_17
REMARK    5  A    between atoms: C_6  and  O_15
REMARK    6  A    between atoms: C_17  and  O_18
REMARK                            x       y       z     vdW  Elec       q    Type
REMARK                         _______ _______ _______ _____ _____    ______ ____
ROOT
ATOM      1  O   UNL     1      34.301 -24.600 -12.371  0.00  0.00    -0.329 OA
ATOM      2  C   UNL     1      36.771 -24.083 -13.737  0.00  0.00    +0.125 C 
ATOM      3  C   UNL     1      35.468 -24.372 -14.486  0.00  0.00    +0.165 C 
ATOM      4  C   UNL     1      36.739 -24.693 -12.329  0.00  0.00    +0.022 C 
ATOM      5  C   UNL     1      34.271 -23.931 -13.637  0.00  0.00    +0.176 C 
ATOM      6  C   UNL     1      35.457 -24.278 -11.592  0.00  0.00    +0.213 C 
ENDROOT
BRANCH   4   7
ATOM      7  N   UNL     1      37.915 -24.252 -11.573  0.00  0.00    +0.387 N 
ATOM      8  H   UNL     1      37.618 -23.652 -10.803  0.00  0.00    -0.089 HD
ATOM      9  H   UNL     1      38.540 -23.732 -12.187  0.00  0.00    -0.089 HD
ATOM     10  H   UNL     1      38.404 -25.066 -11.199  0.00  0.00    -0.089 HD
ENDBRANCH   4   7
BRANCH   2  11
ATOM     11  O   UNL     1      37.872 -24.616 -14.468  0.00  0.00    -0.384 OA
ATOM     12  H   UNL     1      38.691 -24.183 -14.182  0.00  0.00    +0.210 HD
ENDBRANCH   2  11
BRANCH   3  13
ATOM     13  O   UNL     1      35.364 -25.773 -14.746  0.00  0.00    -0.380 OA
ATOM     14  H   UNL     1      36.244 -26.177 -14.700  0.00  0.00    +0.211 HD
ENDBRANCH   3  13
BRANCH   6  15
ATOM     15  O   UNL     1      35.400 -24.982 -10.353  0.00  0.00    -0.362 OA
ATOM     16  H   UNL     1      34.809 -25.745 -10.441  0.00  0.00    +0.213 HD
ENDBRANCH   6  15
BRANCH   5  17
ATOM     17  C   UNL     1      32.938 -24.266 -14.296  0.00  0.00    +0.169 C 
BRANCH  17  18
ATOM     18  O   UNL     1      32.476 -25.503 -13.782  0.00  0.00    -0.379 OA
ATOM     19  H   UNL     1      33.155 -25.888 -13.208  0.00  0.00    +0.211 HD
ENDBRANCH  17  18
ENDBRANCH   5  17
TORSDOF 6
ENDMDL
MODEL 6
REMARK VINA RESULT:      -5.9      2.336      4.554
REMARK  Name = 449462
REMARK  6 active torsions:
REMARK  status: ('A' for Active; 'I' for Inactive)
REMARK    1  A    between atoms: C_2  and  O_11
REMARK    2  A    between atoms: C_3  and  O_13
REMARK    3  A    between atoms: C_4  and  N_7
REMARK    4  A    between atoms: C_5  and  C_17
REMARK    5  A    between atoms: C_6  and  O_15
REMARK    6  A    between atoms: C_17  and  O_18
REMARK                            x       y       z     vdW  Elec       q    Type
REMARK                         _______ _______ _______ _____ _____    ______ ____
ROOT
ATOM      1  O   UNL     1      35.558 -25.343 -15.826  0.00  0.00    -0.329 OA
ATOM      2  C   UNL     1      37.324 -24.547 -13.710  0.00  0.00    +0.125 C 
ATOM      3  C   UNL     1      36.310 -23.584 -14.333  0.00  0.00    +0.165 C 
ATOM      4  C   UNL     1      37.696 -25.662 -14.695  0.00  0.00    +0.022 C 
ATOM      5  C   UNL     1      35.111 -24.370 -14.874  0.00  0.00    +0.176 C 
ATOM      6  C   UNL     1      36.430 -26.324 -15.261  0.00  0.00    +0.213 C 
ENDROOT
BRANCH   4   7
ATOM      7  N   UNL     1      38.524 -26.665 -14.018  0.00  0.00    +0.387 N 
ATOM      8  H   UNL     1      39.509 -26.468 -14.195  0.00  0.00    -0.089 HD
ATOM      9  H   UNL     1      38.293 -27.593 -14.372  0.00  0.00    -0.089 HD
ATOM     10  H   UNL     1      38.346 -26.631 -13.014  0.00  0.00    -0.089 HD
ENDBRANCH   4   7
BRANCH   2  11
ATOM     11  O   UNL     1      38.495 -23.828 -13.330  0.00  0.00    -0.384 OA
ATOM     12  H   UNL     1      38.985 -24.337 -12.666  0.00  0.00    +0.210 HD
ENDBRANCH   2  11
BRANCH   3  13
ATOM     13  O   UNL     1      36.923 -22.871 -15.409  0.00  0.00    -0.380 OA
ATOM     14  H   UNL     1      36.337 -22.154 -15.697  0.00  0.00    +0.211 HD
ENDBRANCH   3  13
BRANCH   6  15
ATOM     15  O   UNL     1      36.819 -27.248 -16.276  0.00  0.00    -0.362 OA
ATOM     16  H   UNL     1      36.907 -28.134 -15.890  0.00  0.00    +0.213 HD
ENDBRANCH   6  15
BRANCH   5  17
ATOM     17  C   UNL     1      34.100 -23.474 -15.580  0.00  0.00    +0.169 C 
BRANCH  17  18
ATOM     18  O   UNL     1      34.424 -23.424 -16.958  0.00  0.00    -0.379 OA
ATOM     19  H   UNL     1      33.830 -22.803 -17.408  0.00  0.00    +0.211 HD
ENDBRANCH  17  18
ENDBRANCH   5  17
TORSDOF 6
ENDMDL
MODEL 7
REMARK VINA RESULT:      -5.7      2.096      4.357
REMARK  Name = 449462
REMARK  6 active torsions:
REMARK  status: ('A' for Active; 'I' for Inactive)
REMARK    1  A    between atoms: C_2  and  O_11
REMARK    2  A    between atoms: C_3  and  O_13
REMARK    3  A    between atoms: C_4  and  N_7
REMARK    4  A    between atoms: C_5  and  C_17
REMARK    5  A    between atoms: C_6  and  O_15
REMARK    6  A    between atoms: C_17  and  O_18
REMARK                            x       y       z     vdW  Elec       q    Type
REMARK                         _______ _______ _______ _____ _____    ______ ____
ROOT
ATOM      1  O   UNL     1      35.839 -24.754 -13.243  0.00  0.00    -0.329 OA
ATOM      2  C   UNL     1      38.682 -25.126 -13.125  0.00  0.00    +0.125 C 
ATOM      3  C   UNL     1      37.902 -24.434 -12.005  0.00  0.00    +0.165 C 
ATOM      4  C   UNL     1      37.937 -25.011 -14.462  0.00  0.00    +0.022 C 
ATOM      5  C   UNL     1      36.464 -24.961 -11.970  0.00  0.00    +0.176 C 
ATOM      6  C   UNL     1      36.478 -25.466 -14.305  0.00  0.00    +0.213 C 
ENDROOT
BRANCH   4   7
ATOM      7  N   UNL     1      38.610 -25.830 -15.475  0.00  0.00    +0.387 N 
ATOM      8  H   UNL     1      38.030 -25.877 -16.313  0.00  0.00    -0.089 HD
ATOM      9  H   UNL     1      38.756 -26.770 -15.110  0.00  0.00    -0.089 HD
ATOM     10  H   UNL     1      39.510 -25.411 -15.708  0.00  0.00    -0.089 HD
ENDBRANCH   4   7
BRANCH   2  11
ATOM     11  O   UNL     1      39.975 -24.538 -13.242  0.00  0.00    -0.384 OA
ATOM     12  H   UNL     1      40.570 -25.153 -13.698  0.00  0.00    +0.210 HD
ENDBRANCH   2  11
BRANCH   3  13
ATOM     13  O   UNL     1      37.876 -23.024 -12.237  0.00  0.00    -0.380 OA
ATOM     14  H   UNL     1      38.050 -22.557 -11.406  0.00  0.00    +0.211 HD
ENDBRANCH   3  13
BRANCH   6  15
ATOM     15  O   UNL     1      35.790 -25.204 -15.527  0.00  0.00    -0.362 OA
ATOM     16  H   UNL     1      36.402 -24.804 -16.164  0.00  0.00    +0.213 HD
ENDBRANCH   6  15
BRANCH   5  17
ATOM     17  C   UNL     1      35.610 -24.252 -10.924  0.00  0.00    +0.169 C 
BRANCH  17  18
ATOM     18  O   UNL     1      36.409 -24.003  -9.781  0.00  0.00    -0.379 OA
ATOM     19  H   UNL     1      36.119 -23.182  -9.356  0.00  0.00    +0.211 HD
ENDBRANCH  17  18
ENDBRANCH   5  17
TORSDOF 6
ENDMDL
MODEL 8
REMARK VINA RESULT:      -5.6      2.627      3.286
REMARK  Name = 449462
REMARK  6 active torsions:
REMARK  status: ('A' for Active; 'I' for Inactive)
REMARK    1  A    between atoms: C_2  and  O_11
REMARK    2  A    between atoms: C_3  and  O_13
REMARK    3  A    between atoms: C_4  and  N_7
REMARK    4  A    between atoms: C_5  and  C_17
REMARK    5  A    between atoms: C_6  and  O_15
REMARK    6  A    between atoms: C_17  and  O_18
REMARK                            x       y       z     vdW  Elec       q    Type
REMARK                         _______ _______ _______ _____ _____    ______ ____
ROOT
ATOM      1  O   UNL     1      37.429 -22.803 -13.570  0.00  0.00    -0.329 OA
ATOM      2  C   UNL     1      35.140 -24.490 -13.186  0.00  0.00    +0.125 C 
ATOM      3  C   UNL     1      35.425 -23.789 -14.517  0.00  0.00    +0.165 C 
ATOM      4  C   UNL     1      35.791 -23.733 -12.020  0.00  0.00    +0.022 C 
ATOM      5  C   UNL     1      36.932 -23.566 -14.676  0.00  0.00    +0.176 C 
ATOM      6  C   UNL     1      37.275 -23.466 -12.314  0.00  0.00    +0.213 C 
ENDROOT
BRANCH   4   7
ATOM      7  N   UNL     1      35.658 -24.515 -10.787  0.00  0.00    +0.387 N 
ATOM      8  H   UNL     1      35.734 -25.509 -11.006  0.00  0.00    -0.089 HD
ATOM      9  H   UNL     1      34.751 -24.329 -10.362  0.00  0.00    -0.089 HD
ATOM     10  H   UNL     1      36.399 -24.253 -10.137  0.00  0.00    -0.089 HD
ENDBRANCH   4   7
BRANCH   2  11
ATOM     11  O   UNL     1      33.733 -24.574 -12.980  0.00  0.00    -0.384 OA
ATOM     12  H   UNL     1      33.272 -24.346 -13.803  0.00  0.00    +0.210 HD
ENDBRANCH   2  11
BRANCH   3  13
ATOM     13  O   UNL     1      34.761 -22.524 -14.546  0.00  0.00    -0.380 OA
ATOM     14  H   UNL     1      34.999 -22.016 -13.756  0.00  0.00    +0.211 HD
ENDBRANCH   3  13
BRANCH   6  15
ATOM     15  O   UNL     1      37.798 -22.638 -11.277  0.00  0.00    -0.362 OA
ATOM     16  H   UNL     1      38.707 -22.910 -11.072  0.00  0.00    +0.213 HD
ENDBRANCH   6  15
BRANCH   5  17
ATOM     17  C   UNL     1      37.275 -22.800 -15.948  0.00  0.00    +0.169 C 
BRANCH  17  18
ATOM     18  O   UNL     1      36.168 -22.869 -16.830  0.00  0.00    -0.379 OA
ATOM     19  H   UNL     1      36.484 -22.855 -17.747  0.00  0.00    +0.211 HD
ENDBRANCH  17  18
ENDBRANCH   5  17
TORSDOF 6
ENDMDL
MODEL 9
REMARK VINA RESULT:      -5.6      2.325      4.408
REMARK  Name = 449462
REMARK  6 active torsions:
REMARK  status: ('A' for Active; 'I' for Inactive)
REMARK    1  A    between atoms: C_2  and  O_11
REMARK    2  A    between atoms: C_3  and  O_13
REMARK    3  A    between atoms: C_4  and  N_7
REMARK    4  A    between atoms: C_5  and  C_17
REMARK    5  A    between atoms: C_6  and  O_15
REMARK    6  A    between atoms: C_17  and  O_18
REMARK                            x       y       z     vdW  Elec       q    Type
REMARK                         _______ _______ _______ _____ _____    ______ ____
ROOT
ATOM      1  O   UNL     1      36.869 -23.692 -15.308  0.00  0.00    -0.329 OA
ATOM      2  C   UNL     1      36.626 -25.448 -13.051  0.00  0.00    +0.125 C 
ATOM      3  C   UNL     1      35.528 -24.450 -13.433  0.00  0.00    +0.165 C 
ATOM      4  C   UNL     1      37.993 -24.979 -13.566  0.00  0.00    +0.022 C 
ATOM      5  C   UNL     1      35.573 -24.179 -14.940  0.00  0.00    +0.176 C 
ATOM      6  C   UNL     1      37.915 -24.635 -15.061  0.00  0.00    +0.213 C 
ENDROOT
BRANCH   4   7
ATOM      7  N   UNL     1      38.990 -26.031 -13.347  0.00  0.00    +0.387 N 
ATOM      8  H   UNL     1      38.687 -26.633 -12.581  0.00  0.00    -0.089 HD
ATOM      9  H   UNL     1      39.887 -25.606 -13.112  0.00  0.00    -0.089 HD
ATOM     10  H   UNL     1      39.090 -26.587 -14.196  0.00  0.00    -0.089 HD
ENDBRANCH   4   7
BRANCH   2  11
ATOM     11  O   UNL     1      36.668 -25.593 -11.634  0.00  0.00    -0.384 OA
ATOM     12  H   UNL     1      35.880 -25.183 -11.244  0.00  0.00    +0.210 HD
ENDBRANCH   2  11
BRANCH   3  13
ATOM     13  O   UNL     1      35.731 -23.221 -12.733  0.00  0.00    -0.380 OA
ATOM     14  H   UNL     1      35.933 -23.409 -11.803  0.00  0.00    +0.211 HD
ENDBRANCH   3  13
BRANCH   6  15
ATOM     15  O   UNL     1      39.163 -24.068 -15.459  0.00  0.00    -0.362 OA
ATOM     16  H   UNL     1      39.018 -23.171 -15.798  0.00  0.00    +0.213 HD
ENDBRANCH   6  15
BRANCH   5  17
ATOM     17  C   UNL     1      34.554 -23.131 -15.373  0.00  0.00    +0.169 C 
BRANCH  17  18
ATOM     18  O   UNL     1      33.524 -23.074 -14.401  0.00  0.00    -0.379 OA
ATOM     19  H   UNL     1      32.768 -22.584 -14.760  0.00  0.00    +0.211 HD
ENDBRANCH  17  18
ENDBRANCH   5  17
TORSDOF 6
ENDMDL
