MODEL 1
REMARK VINA RESULT:      -8.1      0.000      0.000
REMARK  Name = 3540
REMARK  5 active torsions:
REMARK  status: ('A' for Active; 'I' for Inactive)
REMARK    1  A    between atoms: S_1  and  C_5
REMARK    2  A    between atoms: S_1  and  N_14
REMARK    3  A    between atoms: N_14  and  C_16
REMARK    4  A    between atoms: C_16  and  C_17
REMARK    5  A    between atoms: C_17  and  N_18
REMARK                            x       y       z     vdW  Elec       q    Type
REMARK                         _______ _______ _______ _____ _____    ______ ____
ROOT
ATOM      1  S   UNL     1      35.388 -18.480 -22.234  0.00  0.00    +0.060 S 
ATOM      2  O   UNL     1      34.530 -19.236 -23.133  0.00  0.00    -0.153 OA
ATOM      3  O   UNL     1      36.811 -18.376 -22.513  0.00  0.00    -0.153 OA
ENDROOT
BRANCH   1   5
ATOM      4  N   UNL     1      33.347 -14.639 -25.419  0.00  0.00    -0.242 NA
ATOM      5  C   UNL     1      34.757 -16.844 -22.110  0.00  0.00    +0.122 C 
ATOM      6  C   UNL     1      34.293 -16.125 -23.223  0.00  0.00    +0.022 C 
ATOM      7  C   UNL     1      33.802 -14.816 -23.037  0.00  0.00    +0.020 C 
ATOM      8  C   UNL     1      34.737 -16.275 -20.836  0.00  0.00    +0.020 C 
ATOM      9  C   UNL     1      33.786 -14.252 -21.751  0.00  0.00    +0.002 C 
ATOM     10  C   UNL     1      34.299 -16.669 -24.512  0.00  0.00    +0.022 C 
ATOM     11  C   UNL     1      34.252 -14.981 -20.656  0.00  0.00    +0.001 C 
ATOM     12  C   UNL     1      33.347 -14.132 -24.166  0.00  0.00    +0.099 C 
ATOM     13  C   UNL     1      33.822 -15.895 -25.559  0.00  0.00    +0.099 C 
ENDBRANCH   1   5
BRANCH   1  14
ATOM     14  N   UNL     1      35.178 -19.067 -20.645  0.00  0.00    -0.182 NA
ATOM     15  H   UNL     1      34.486 -18.464 -20.199  0.00  0.00    +0.149 HD
BRANCH  14  16
ATOM     16  C   UNL     1      34.737 -20.452 -20.425  0.00  0.00    +0.068 C 
BRANCH  16  17
ATOM     17  C   UNL     1      33.235 -20.470 -20.187  0.00  0.00    -0.063 C 
BRANCH  17  18
ATOM     18  N   UNL     1      32.840 -21.711 -19.533  0.00  0.00    +0.383 N 
ATOM     19  C   UNL     1      33.992 -22.378 -18.944  0.00  0.00    -0.106 C 
ATOM     20  H   UNL     1      32.413 -22.329 -20.222  0.00  0.00    -0.085 HD
ATOM     21  H   UNL     1      32.176 -21.491 -18.791  0.00  0.00    -0.085 HD
ENDBRANCH  17  18
ENDBRANCH  16  17
ENDBRANCH  14  16
ENDBRANCH   1  14
TORSDOF 5
ENDMDL
MODEL 2
REMARK VINA RESULT:      -8.0      4.423      5.870
REMARK  Name = 3540
REMARK  5 active torsions:
REMARK  status: ('A' for Active; 'I' for Inactive)
REMARK    1  A    between atoms: S_1  and  C_5
REMARK    2  A    between atoms: S_1  and  N_14
REMARK    3  A    between atoms: N_14  and  C_16
REMARK    4  A    between atoms: C_16  and  C_17
REMARK    5  A    between atoms: C_17  and  N_18
REMARK                            x       y       z     vdW  Elec       q    Type
REMARK                         _______ _______ _______ _____ _____    ______ ____
ROOT
ATOM      1  S   UNL     1      33.960 -22.798 -18.637  0.00  0.00    +0.060 S 
ATOM      2  O   UNL     1      34.023 -23.937 -19.540  0.00  0.00    -0.153 OA
ATOM      3  O   UNL     1      34.995 -22.616 -17.633  0.00  0.00    -0.153 OA
ENDROOT
BRANCH   1   5
ATOM      4  N   UNL     1      37.341 -19.291 -20.946  0.00  0.00    -0.242 NA
ATOM      5  C   UNL     1      33.901 -21.330 -19.600  0.00  0.00    +0.122 C 
ATOM      6  C   UNL     1      35.057 -20.665 -20.039  0.00  0.00    +0.022 C 
ATOM      7  C   UNL     1      34.922 -19.491 -20.809  0.00  0.00    +0.020 C 
ATOM      8  C   UNL     1      32.634 -20.839 -19.918  0.00  0.00    +0.020 C 
ATOM      9  C   UNL     1      33.642 -19.005 -21.123  0.00  0.00    +0.002 C 
ATOM     10  C   UNL     1      36.341 -21.132 -19.737  0.00  0.00    +0.022 C 
ATOM     11  C   UNL     1      32.504 -19.679 -20.679  0.00  0.00    +0.001 C 
ATOM     12  C   UNL     1      36.093 -18.856 -21.228  0.00  0.00    +0.099 C 
ATOM     13  C   UNL     1      37.432 -20.418 -20.208  0.00  0.00    +0.099 C 
ENDBRANCH   1   5
BRANCH   1  14
ATOM     14  N   UNL     1      32.436 -22.785 -17.869  0.00  0.00    -0.182 NA
ATOM     15  H   UNL     1      31.825 -23.389 -18.419  0.00  0.00    +0.149 HD
BRANCH  14  16
ATOM     16  C   UNL     1      32.313 -23.220 -16.470  0.00  0.00    +0.068 C 
BRANCH  16  17
ATOM     17  C   UNL     1      30.862 -23.570 -16.178  0.00  0.00    -0.063 C 
BRANCH  17  18
ATOM     18  N   UNL     1      29.972 -22.601 -16.805  0.00  0.00    +0.383 N 
ATOM     19  C   UNL     1      28.594 -23.071 -16.786  0.00  0.00    -0.106 C 
ATOM     20  H   UNL     1      30.262 -22.458 -17.772  0.00  0.00    -0.085 HD
ATOM     21  H   UNL     1      30.025 -21.725 -16.283  0.00  0.00    -0.085 HD
ENDBRANCH  17  18
ENDBRANCH  16  17
ENDBRANCH  14  16
ENDBRANCH   1  14
TORSDOF 5
ENDMDL
MODEL 3
REMARK VINA RESULT:      -7.9      1.304      2.530
REMARK  Name = 3540
REMARK  5 active torsions:
REMARK  status: ('A' for Active; 'I' for Inactive)
REMARK    1  A    between atoms: S_1  and  C_5
REMARK    2  A    between atoms: S_1  and  N_14
REMARK    3  A    between atoms: N_14  and  C_16
REMARK    4  A    between atoms: C_16  and  C_17
REMARK    5  A    between atoms: C_17  and  N_18
REMARK                            x       y       z     vdW  Elec       q    Type
REMARK                         _______ _______ _______ _____ _____    ______ ____
ROOT
ATOM      1  S   UNL     1      35.209 -17.681 -21.433  0.00  0.00    +0.060 S 
ATOM      2  O   UNL     1      36.392 -18.463 -21.757  0.00  0.00    -0.153 OA
ATOM      3  O   UNL     1      35.269 -16.685 -20.376  0.00  0.00    -0.153 OA
ENDROOT
BRANCH   1   5
ATOM      4  N   UNL     1      32.384 -13.317 -22.859  0.00  0.00    -0.242 NA
ATOM      5  C   UNL     1      34.667 -16.865 -22.892  0.00  0.00    +0.122 C 
ATOM      6  C   UNL     1      33.907 -15.685 -22.861  0.00  0.00    +0.022 C 
ATOM      7  C   UNL     1      33.512 -15.092 -24.079  0.00  0.00    +0.020 C 
ATOM      8  C   UNL     1      35.027 -17.448 -24.107  0.00  0.00    +0.020 C 
ATOM      9  C   UNL     1      33.880 -15.687 -25.297  0.00  0.00    +0.002 C 
ATOM     10  C   UNL     1      33.531 -15.076 -21.659  0.00  0.00    +0.022 C 
ATOM     11  C   UNL     1      34.635 -16.860 -25.308  0.00  0.00    +0.001 C 
ATOM     12  C   UNL     1      32.758 -13.919 -24.010  0.00  0.00    +0.099 C 
ATOM     13  C   UNL     1      32.781 -13.911 -21.714  0.00  0.00    +0.099 C 
ENDBRANCH   1   5
BRANCH   1  14
ATOM     14  N   UNL     1      33.913 -18.746 -21.116  0.00  0.00    -0.182 NA
ATOM     15  H   UNL     1      33.402 -18.856 -21.992  0.00  0.00    +0.149 HD
BRANCH  14  16
ATOM     16  C   UNL     1      34.180 -20.100 -20.609  0.00  0.00    +0.068 C 
BRANCH  16  17
ATOM     17  C   UNL     1      32.929 -20.638 -19.930  0.00  0.00    -0.063 C 
BRANCH  17  18
ATOM     18  N   UNL     1      33.103 -22.045 -19.590  0.00  0.00    +0.383 N 
ATOM     19  C   UNL     1      34.433 -22.289 -19.050  0.00  0.00    -0.106 C 
ATOM     20  H   UNL     1      32.976 -22.608 -20.431  0.00  0.00    -0.085 HD
ATOM     21  H   UNL     1      32.412 -22.297 -18.883  0.00  0.00    -0.085 HD
ENDBRANCH  17  18
ENDBRANCH  16  17
ENDBRANCH  14  16
ENDBRANCH   1  14
TORSDOF 5
ENDMDL
MODEL 4
REMARK VINA RESULT:      -7.7      3.605      7.095
REMARK  Name = 3540
REMARK  5 active torsions:
REMARK  status: ('A' for Active; 'I' for Inactive)
REMARK    1  A    between atoms: S_1  and  C_5
REMARK    2  A    between atoms: S_1  and  N_14
REMARK    3  A    between atoms: N_14  and  C_16
REMARK    4  A    between atoms: C_16  and  C_17
REMARK    5  A    between atoms: C_17  and  N_18
REMARK                            x       y       z     vdW  Elec       q    Type
REMARK                         _______ _______ _______ _____ _____    ______ ____
ROOT
ATOM      1  S   UNL     1      33.033 -13.793 -24.577  0.00  0.00    +0.060 S 
ATOM      2  O   UNL     1      32.636 -13.817 -25.976  0.00  0.00    -0.153 OA
ATOM      3  O   UNL     1      32.034 -13.563 -23.547  0.00  0.00    -0.153 OA
ENDROOT
BRANCH   1   5
ATOM      4  N   UNL     1      35.060 -16.393 -20.312  0.00  0.00    -0.242 NA
ATOM      5  C   UNL     1      33.833 -15.311 -24.201  0.00  0.00    +0.122 C 
ATOM      6  C   UNL     1      34.235 -15.654 -22.901  0.00  0.00    +0.022 C 
ATOM      7  C   UNL     1      34.872 -16.894 -22.684  0.00  0.00    +0.020 C 
ATOM      8  C   UNL     1      34.060 -16.182 -25.269  0.00  0.00    +0.020 C 
ATOM      9  C   UNL     1      35.096 -17.762 -23.765  0.00  0.00    +0.002 C 
ATOM     10  C   UNL     1      34.022 -14.804 -21.810  0.00  0.00    +0.022 C 
ATOM     11  C   UNL     1      34.690 -17.405 -25.051  0.00  0.00    +0.001 C 
ATOM     12  C   UNL     1      35.257 -17.202 -21.378  0.00  0.00    +0.099 C 
ATOM     13  C   UNL     1      34.447 -15.215 -20.557  0.00  0.00    +0.099 C 
ENDBRANCH   1   5
BRANCH   1  14
ATOM     14  N   UNL     1      34.299 -12.663 -24.382  0.00  0.00    -0.182 NA
ATOM     15  H   UNL     1      35.152 -13.120 -24.705  0.00  0.00    +0.149 HD
BRANCH  14  16
ATOM     16  C   UNL     1      34.233 -11.360 -25.059  0.00  0.00    +0.068 C 
BRANCH  16  17
ATOM     17  C   UNL     1      34.118 -10.257 -24.018  0.00  0.00    -0.063 C 
BRANCH  17  18
ATOM     18  N   UNL     1      32.883 -10.404 -23.259  0.00  0.00    +0.383 N 
ATOM     19  C   UNL     1      32.029  -9.237 -23.423  0.00  0.00    -0.106 C 
ATOM     20  H   UNL     1      33.111 -10.515 -22.270  0.00  0.00    -0.085 HD
ATOM     21  H   UNL     1      32.385 -11.225 -23.604  0.00  0.00    -0.085 HD
ENDBRANCH  17  18
ENDBRANCH  16  17
ENDBRANCH  14  16
ENDBRANCH   1  14
TORSDOF 5
ENDMDL
MODEL 5
REMARK VINA RESULT:      -7.7      7.930     10.297
REMARK  Name = 3540
REMARK  5 active torsions:
REMARK  status: ('A' for Active; 'I' for Inactive)
REMARK    1  A    between atoms: S_1  and  C_5
REMARK    2  A    between atoms: S_1  and  N_14
REMARK    3  A    between atoms: N_14  and  C_16
REMARK    4  A    between atoms: C_16  and  C_17
REMARK    5  A    between atoms: C_17  and  N_18
REMARK                            x       y       z     vdW  Elec       q    Type
REMARK                         _______ _______ _______ _____ _____    ______ ____
ROOT
ATOM      1  S   UNL     1      35.953 -24.482 -14.662  0.00  0.00    +0.060 S 
ATOM      2  O   UNL     1      36.237 -25.531 -15.629  0.00  0.00    -0.153 OA
ATOM      3  O   UNL     1      36.680 -23.225 -14.728  0.00  0.00    -0.153 OA
ENDROOT
BRANCH   1   5
ATOM      4  N   UNL     1      32.386 -22.438 -18.148  0.00  0.00    -0.242 NA
ATOM      5  C   UNL     1      34.240 -24.101 -14.743  0.00  0.00    +0.122 C 
ATOM      6  C   UNL     1      33.640 -23.547 -15.884  0.00  0.00    +0.022 C 
ATOM      7  C   UNL     1      32.257 -23.270 -15.867  0.00  0.00    +0.020 C 
ATOM      8  C   UNL     1      33.482 -24.374 -13.603  0.00  0.00    +0.020 C 
ATOM      9  C   UNL     1      31.504 -23.550 -14.715  0.00  0.00    +0.002 C 
ATOM     10  C   UNL     1      34.372 -23.262 -17.042  0.00  0.00    +0.022 C 
ATOM     11  C   UNL     1      32.117 -24.100 -13.589  0.00  0.00    +0.001 C 
ATOM     12  C   UNL     1      31.695 -22.721 -17.021  0.00  0.00    +0.099 C 
ATOM     13  C   UNL     1      33.706 -22.717 -18.129  0.00  0.00    +0.099 C 
ENDBRANCH   1   5
BRANCH   1  14
ATOM     14  N   UNL     1      36.104 -25.125 -13.088  0.00  0.00    -0.182 NA
ATOM     15  H   UNL     1      35.190 -25.502 -12.836  0.00  0.00    +0.149 HD
BRANCH  14  16
ATOM     16  C   UNL     1      37.088 -26.183 -12.816  0.00  0.00    +0.068 C 
BRANCH  16  17
ATOM     17  C   UNL     1      38.489 -25.642 -13.061  0.00  0.00    -0.063 C 
BRANCH  17  18
ATOM     18  N   UNL     1      39.069 -26.257 -14.247  0.00  0.00    +0.383 N 
ATOM     19  C   UNL     1      40.158 -25.448 -14.774  0.00  0.00    -0.106 C 
ATOM     20  H   UNL     1      38.347 -26.350 -14.962  0.00  0.00    -0.085 HD
ATOM     21  H   UNL     1      39.438 -27.174 -13.992  0.00  0.00    -0.085 HD
ENDBRANCH  17  18
ENDBRANCH  16  17
ENDBRANCH  14  16
ENDBRANCH   1  14
TORSDOF 5
ENDMDL
MODEL 6
REMARK VINA RESULT:      -7.7      9.197     11.066
REMARK  Name = 3540
REMARK  5 active torsions:
REMARK  status: ('A' for Active; 'I' for Inactive)
REMARK    1  A    between atoms: S_1  and  C_5
REMARK    2  A    between atoms: S_1  and  N_14
REMARK    3  A    between atoms: N_14  and  C_16
REMARK    4  A    between atoms: C_16  and  C_17
REMARK    5  A    between atoms: C_17  and  N_18
REMARK                            x       y       z     vdW  Elec       q    Type
REMARK                         _______ _______ _______ _____ _____    ______ ____
ROOT
ATOM      1  S   UNL     1      37.572 -23.559 -12.142  0.00  0.00    +0.060 S 
ATOM      2  O   UNL     1      37.831 -22.155 -11.866  0.00  0.00    -0.153 OA
ATOM      3  O   UNL     1      37.397 -24.490 -11.040  0.00  0.00    -0.153 OA
ENDROOT
BRANCH   1   5
ATOM      4  N   UNL     1      36.050 -22.443 -17.191  0.00  0.00    -0.242 NA
ATOM      5  C   UNL     1      36.142 -23.671 -13.156  0.00  0.00    +0.122 C 
ATOM      6  C   UNL     1      36.130 -23.257 -14.497  0.00  0.00    +0.022 C 
ATOM      7  C   UNL     1      34.938 -23.380 -15.242  0.00  0.00    +0.020 C 
ATOM      8  C   UNL     1      34.993 -24.197 -12.563  0.00  0.00    +0.020 C 
ATOM      9  C   UNL     1      33.788 -23.911 -14.636  0.00  0.00    +0.002 C 
ATOM     10  C   UNL     1      37.265 -22.726 -15.119  0.00  0.00    +0.022 C 
ATOM     11  C   UNL     1      33.818 -24.317 -13.302  0.00  0.00    +0.001 C 
ATOM     12  C   UNL     1      34.964 -22.959 -16.573  0.00  0.00    +0.099 C 
ATOM     13  C   UNL     1      37.172 -22.341 -16.448  0.00  0.00    +0.099 C 
ENDBRANCH   1   5
BRANCH   1  14
ATOM     14  N   UNL     1      38.793 -24.153 -13.177  0.00  0.00    -0.182 NA
ATOM     15  H   UNL     1      39.653 -23.663 -12.929  0.00  0.00    +0.149 HD
BRANCH  14  16
ATOM     16  C   UNL     1      39.112 -25.588 -13.192  0.00  0.00    +0.068 C 
BRANCH  16  17
ATOM     17  C   UNL     1      38.648 -26.193 -14.508  0.00  0.00    -0.063 C 
BRANCH  17  18
ATOM     18  N   UNL     1      37.439 -26.982 -14.304  0.00  0.00    +0.383 N 
ATOM     19  C   UNL     1      36.505 -26.797 -15.405  0.00  0.00    -0.106 C 
ATOM     20  H   UNL     1      36.993 -26.689 -13.435  0.00  0.00    -0.085 HD
ATOM     21  H   UNL     1      37.698 -27.968 -14.258  0.00  0.00    -0.085 HD
ENDBRANCH  17  18
ENDBRANCH  16  17
ENDBRANCH  14  16
ENDBRANCH   1  14
TORSDOF 5
ENDMDL
MODEL 7
REMARK VINA RESULT:      -7.7      4.158      8.821
REMARK  Name = 3540
REMARK  5 active torsions:
REMARK  status: ('A' for Active; 'I' for Inactive)
REMARK    1  A    between atoms: S_1  and  C_5
REMARK    2  A    between atoms: S_1  and  N_14
REMARK    3  A    between atoms: N_14  and  C_16
REMARK    4  A    between atoms: C_16  and  C_17
REMARK    5  A    between atoms: C_17  and  N_18
REMARK                            x       y       z     vdW  Elec       q    Type
REMARK                         _______ _______ _______ _____ _____    ______ ____
ROOT
ATOM      1  S   UNL     1      33.778 -22.608 -18.837  0.00  0.00    +0.060 S 
ATOM      2  O   UNL     1      33.956 -23.863 -19.550  0.00  0.00    -0.153 OA
ATOM      3  O   UNL     1      32.501 -22.308 -18.212  0.00  0.00    -0.153 OA
ENDROOT
BRANCH   1   5
ATOM      4  N   UNL     1      34.522 -24.047 -13.696  0.00  0.00    -0.242 NA
ATOM      5  C   UNL     1      35.011 -22.498 -17.590  0.00  0.00    +0.122 C 
ATOM      6  C   UNL     1      34.830 -23.019 -16.299  0.00  0.00    +0.022 C 
ATOM      7  C   UNL     1      35.870 -22.889 -15.355  0.00  0.00    +0.020 C 
ATOM      8  C   UNL     1      36.201 -21.858 -17.939  0.00  0.00    +0.020 C 
ATOM      9  C   UNL     1      37.064 -22.243 -15.716  0.00  0.00    +0.002 C 
ATOM     10  C   UNL     1      33.649 -23.666 -15.919  0.00  0.00    +0.022 C 
ATOM     11  C   UNL     1      37.226 -21.731 -17.004  0.00  0.00    +0.001 C 
ATOM     12  C   UNL     1      35.656 -23.419 -14.082  0.00  0.00    +0.099 C 
ATOM     13  C   UNL     1      33.549 -24.154 -14.625  0.00  0.00    +0.099 C 
ENDBRANCH   1   5
BRANCH   1  14
ATOM     14  N   UNL     1      34.202 -21.319 -19.874  0.00  0.00    -0.182 NA
ATOM     15  H   UNL     1      34.628 -21.736 -20.701  0.00  0.00    +0.149 HD
BRANCH  14  16
ATOM     16  C   UNL     1      33.168 -20.390 -20.353  0.00  0.00    +0.068 C 
BRANCH  16  17
ATOM     17  C   UNL     1      33.832 -19.229 -21.077  0.00  0.00    -0.063 C 
BRANCH  17  18
ATOM     18  N   UNL     1      35.247 -19.160 -20.733  0.00  0.00    +0.383 N 
ATOM     19  C   UNL     1      35.968 -18.306 -21.664  0.00  0.00    -0.106 C 
ATOM     20  H   UNL     1      35.643 -20.099 -20.765  0.00  0.00    -0.085 HD
ATOM     21  H   UNL     1      35.335 -18.768 -19.795  0.00  0.00    -0.085 HD
ENDBRANCH  17  18
ENDBRANCH  16  17
ENDBRANCH  14  16
ENDBRANCH   1  14
TORSDOF 5
ENDMDL
MODEL 8
REMARK VINA RESULT:      -7.6      3.665      6.737
REMARK  Name = 3540
REMARK  5 active torsions:
REMARK  status: ('A' for Active; 'I' for Inactive)
REMARK    1  A    between atoms: S_1  and  C_5
REMARK    2  A    between atoms: S_1  and  N_14
REMARK    3  A    between atoms: N_14  and  C_16
REMARK    4  A    between atoms: C_16  and  C_17
REMARK    5  A    between atoms: C_17  and  N_18
REMARK                            x       y       z     vdW  Elec       q    Type
REMARK                         _______ _______ _______ _____ _____    ______ ____
ROOT
ATOM      1  S   UNL     1      32.976 -13.456 -23.619  0.00  0.00    +0.060 S 
ATOM      2  O   UNL     1      32.580 -14.048 -24.887  0.00  0.00    -0.153 OA
ATOM      3  O   UNL     1      31.983 -12.789 -22.794  0.00  0.00    -0.153 OA
ENDROOT
BRANCH   1   5
ATOM      4  N   UNL     1      35.274 -18.296 -24.213  0.00  0.00    -0.242 NA
ATOM      5  C   UNL     1      33.725 -14.703 -22.634  0.00  0.00    +0.122 C 
ATOM      6  C   UNL     1      34.235 -15.893 -23.176  0.00  0.00    +0.022 C 
ATOM      7  C   UNL     1      34.820 -16.844 -22.315  0.00  0.00    +0.020 C 
ATOM      8  C   UNL     1      33.793 -14.461 -21.261  0.00  0.00    +0.020 C 
ATOM      9  C   UNL     1      34.884 -16.591 -20.935  0.00  0.00    +0.002 C 
ATOM     10  C   UNL     1      34.181 -16.164 -24.548  0.00  0.00    +0.022 C 
ATOM     11  C   UNL     1      34.372 -15.403 -20.413  0.00  0.00    +0.001 C 
ATOM     12  C   UNL     1      35.317 -18.015 -22.890  0.00  0.00    +0.099 C 
ATOM     13  C   UNL     1      34.707 -17.363 -25.006  0.00  0.00    +0.099 C 
ENDBRANCH   1   5
BRANCH   1  14
ATOM     14  N   UNL     1      34.278 -12.385 -23.891  0.00  0.00    -0.182 NA
ATOM     15  H   UNL     1      35.060 -12.951 -24.221  0.00  0.00    +0.149 HD
BRANCH  14  16
ATOM     16  C   UNL     1      34.130 -11.274 -24.843  0.00  0.00    +0.068 C 
BRANCH  16  17
ATOM     17  C   UNL     1      33.982  -9.970 -24.074  0.00  0.00    -0.063 C 
BRANCH  17  18
ATOM     18  N   UNL     1      32.602  -9.793 -23.638  0.00  0.00    +0.383 N 
ATOM     19  C   UNL     1      32.548  -9.296 -22.271  0.00  0.00    -0.106 C 
ATOM     20  H   UNL     1      32.120 -10.690 -23.686  0.00  0.00    -0.085 HD
ATOM     21  H   UNL     1      32.152  -9.113 -24.251  0.00  0.00    -0.085 HD
ENDBRANCH  17  18
ENDBRANCH  16  17
ENDBRANCH  14  16
ENDBRANCH   1  14
TORSDOF 5
ENDMDL
MODEL 9
REMARK VINA RESULT:      -7.5      2.968      6.873
REMARK  Name = 3540
REMARK  5 active torsions:
REMARK  status: ('A' for Active; 'I' for Inactive)
REMARK    1  A    between atoms: S_1  and  C_5
REMARK    2  A    between atoms: S_1  and  N_14
REMARK    3  A    between atoms: N_14  and  C_16
REMARK    4  A    between atoms: C_16  and  C_17
REMARK    5  A    between atoms: C_17  and  N_18
REMARK                            x       y       z     vdW  Elec       q    Type
REMARK                         _______ _______ _______ _____ _____    ______ ____
ROOT
ATOM      1  S   UNL     1      33.748 -14.477 -22.273  0.00  0.00    +0.060 S 
ATOM      2  O   UNL     1      32.309 -14.392 -22.081  0.00  0.00    -0.153 OA
ATOM      3  O   UNL     1      34.626 -14.565 -21.119  0.00  0.00    -0.153 OA
ENDROOT
BRANCH   1   5
ATOM      4  N   UNL     1      35.079 -19.679 -21.794  0.00  0.00    -0.242 NA
ATOM      5  C   UNL     1      34.089 -15.863 -23.298  0.00  0.00    +0.122 C 
ATOM      6  C   UNL     1      34.417 -17.126 -22.780  0.00  0.00    +0.022 C 
ATOM      7  C   UNL     1      34.678 -18.186 -23.672  0.00  0.00    +0.020 C 
ATOM      8  C   UNL     1      34.021 -15.656 -24.676  0.00  0.00    +0.020 C 
ATOM      9  C   UNL     1      34.607 -17.967 -25.057  0.00  0.00    +0.002 C 
ATOM     10  C   UNL     1      34.493 -17.365 -21.403  0.00  0.00    +0.022 C 
ATOM     11  C   UNL     1      34.280 -16.706 -25.555  0.00  0.00    +0.001 C 
ATOM     12  C   UNL     1      35.000 -19.428 -23.120  0.00  0.00    +0.099 C 
ATOM     13  C   UNL     1      34.823 -18.640 -20.970  0.00  0.00    +0.099 C 
ENDBRANCH   1   5
BRANCH   1  14
ATOM     14  N   UNL     1      34.252 -13.174 -23.254  0.00  0.00    -0.182 NA
ATOM     15  H   UNL     1      34.612 -13.579 -24.118  0.00  0.00    +0.149 HD
BRANCH  14  16
ATOM     16  C   UNL     1      33.292 -12.131 -23.643  0.00  0.00    +0.068 C 
BRANCH  16  17
ATOM     17  C   UNL     1      33.866 -11.324 -24.798  0.00  0.00    -0.063 C 
BRANCH  17  18
ATOM     18  N   UNL     1      35.013 -10.544 -24.350  0.00  0.00    +0.383 N 
ATOM     19  C   UNL     1      34.629  -9.169 -24.068  0.00  0.00    -0.106 C 
ATOM     20  H   UNL     1      35.725 -10.549 -25.080  0.00  0.00    -0.085 HD
ATOM     21  H   UNL     1      35.377 -10.963 -23.494  0.00  0.00    -0.085 HD
ENDBRANCH  17  18
ENDBRANCH  16  17
ENDBRANCH  14  16
ENDBRANCH   1  14
TORSDOF 5
ENDMDL
