MODEL 1
REMARK VINA RESULT:      -9.9      0.000      0.000
REMARK  Name = 12598
REMARK  7 active torsions:
REMARK  status: ('A' for Active; 'I' for Inactive)
REMARK    1  A    between atoms: N_2  and  C_20
REMARK    2  A    between atoms: C_9  and  C_16
REMARK    3  A    between atoms: C_16  and  C_17
REMARK    4  A    between atoms: C_17  and  C_18
REMARK    5  A    between atoms: C_20  and  C_21
REMARK    6  A    between atoms: C_21  and  C_22
REMARK    7  A    between atoms: C_22  and  N_23
REMARK                            x       y       z     vdW  Elec       q    Type
REMARK                         _______ _______ _______ _____ _____    ______ ____
ROOT
ATOM      1  S   UNL     1      33.260 -15.958 -26.146  0.00  0.00    -0.084 S 
ATOM      2  N   UNL     1      34.092 -14.731 -23.413  0.00  0.00    -0.286 N 
ATOM      3  C   UNL     1      34.371 -16.112 -23.578  0.00  0.00    +0.058 C 
ATOM      4  C   UNL     1      33.903 -13.806 -24.470  0.00  0.00    +0.058 C 
ATOM      5  C   UNL     1      34.061 -16.777 -24.782  0.00  0.00    +0.043 C 
ATOM      6  C   UNL     1      33.547 -14.242 -25.762  0.00  0.00    +0.043 C 
ATOM      7  C   UNL     1      34.998 -16.874 -22.568  0.00  0.00    +0.018 C 
ATOM      8  C   UNL     1      34.093 -12.418 -24.292  0.00  0.00    +0.015 C 
ATOM      9  C   UNL     1      35.284 -18.232 -22.735  0.00  0.00    +0.036 C 
ATOM     10  C   UNL     1      34.347 -18.144 -24.942  0.00  0.00    +0.008 C 
ATOM     11  C   UNL     1      33.368 -13.319 -26.809  0.00  0.00    +0.008 C 
ATOM     12  C   UNL     1      34.954 -18.869 -23.923  0.00  0.00    +0.003 C 
ATOM     13  C   UNL     1      33.919 -11.506 -25.337  0.00  0.00    +0.001 C 
ATOM     14  C   UNL     1      33.552 -11.958 -26.596  0.00  0.00    +0.001 C 
ENDROOT
BRANCH   9  16
ATOM     15  O   UNL     1      37.110 -18.718 -21.335  0.00  0.00    -0.291 OA
ATOM     16  C   UNL     1      35.935 -18.976 -21.669  0.00  0.00    +0.173 C 
BRANCH  16  17
ATOM     17  C   UNL     1      35.173 -20.097 -20.939  0.00  0.00    +0.069 C 
BRANCH  17  18
ATOM     18  C   UNL     1      33.696 -19.778 -20.707  0.00  0.00    +0.008 C 
ATOM     19  C   UNL     1      33.039 -20.804 -19.798  0.00  0.00    +0.000 C 
ENDBRANCH  17  18
ENDBRANCH  16  17
ENDBRANCH   9  16
BRANCH   2  20
ATOM     20  C   UNL     1      34.064 -14.207 -22.042  0.00  0.00    +0.093 C 
BRANCH  20  21
ATOM     21  C   UNL     1      32.667 -14.344 -21.437  0.00  0.00    -0.001 C 
BRANCH  21  22
ATOM     22  C   UNL     1      31.697 -13.219 -21.814  0.00  0.00    -0.076 C 
BRANCH  22  23
ATOM     23  N   UNL     1      32.156 -11.919 -21.330  0.00  0.00    +0.384 N 
ATOM     24  N   UNL     1      31.720  -9.209 -20.419  0.00  0.00    +0.383 N 
ATOM     25  C   UNL     1      31.777 -10.851 -22.265  0.00  0.00    -0.101 C 
ATOM     26  C   UNL     1      31.618 -11.641 -19.992  0.00  0.00    -0.101 C 
ATOM     27  C   UNL     1      32.255  -9.487 -21.758  0.00  0.00    -0.101 C 
ATOM     28  C   UNL     1      32.098 -10.276 -19.485  0.00  0.00    -0.101 C 
ATOM     29  C   UNL     1      32.180  -7.908 -19.936  0.00  0.00    -0.101 C 
ATOM     30  H   UNL     1      33.173 -11.946 -21.269  0.00  0.00    -0.080 HD
ATOM     31  H   UNL     1      30.702  -9.180 -20.480  0.00  0.00    -0.080 HD
ENDBRANCH  22  23
ENDBRANCH  21  22
ENDBRANCH  20  21
ENDBRANCH   2  20
TORSDOF 7
ENDMDL
MODEL 2
REMARK VINA RESULT:      -9.7      6.309     11.347
REMARK  Name = 12598
REMARK  7 active torsions:
REMARK  status: ('A' for Active; 'I' for Inactive)
REMARK    1  A    between atoms: N_2  and  C_20
REMARK    2  A    between atoms: C_9  and  C_16
REMARK    3  A    between atoms: C_16  and  C_17
REMARK    4  A    between atoms: C_17  and  C_18
REMARK    5  A    between atoms: C_20  and  C_21
REMARK    6  A    between atoms: C_21  and  C_22
REMARK    7  A    between atoms: C_22  and  N_23
REMARK                            x       y       z     vdW  Elec       q    Type
REMARK                         _______ _______ _______ _____ _____    ______ ____
ROOT
ATOM      1  S   UNL     1      33.748 -24.191 -13.561  0.00  0.00    -0.084 S 
ATOM      2  N   UNL     1      33.606 -23.385 -16.561  0.00  0.00    -0.286 N 
ATOM      3  C   UNL     1      32.362 -23.452 -15.882  0.00  0.00    +0.058 C 
ATOM      4  C   UNL     1      34.866 -23.211 -15.936  0.00  0.00    +0.058 C 
ATOM      5  C   UNL     1      32.298 -23.784 -14.514  0.00  0.00    +0.043 C 
ATOM      6  C   UNL     1      35.051 -23.518 -14.574  0.00  0.00    +0.043 C 
ATOM      7  C   UNL     1      31.141 -23.159 -16.528  0.00  0.00    +0.018 C 
ATOM      8  C   UNL     1      35.981 -22.692 -16.633  0.00  0.00    +0.015 C 
ATOM      9  C   UNL     1      29.917 -23.213 -15.857  0.00  0.00    +0.036 C 
ATOM     10  C   UNL     1      31.063 -23.842 -13.845  0.00  0.00    +0.008 C 
ATOM     11  C   UNL     1      36.302 -23.337 -13.958  0.00  0.00    +0.008 C 
ATOM     12  C   UNL     1      29.877 -23.559 -14.514  0.00  0.00    +0.003 C 
ATOM     13  C   UNL     1      37.221 -22.509 -16.014  0.00  0.00    +0.001 C 
ATOM     14  C   UNL     1      37.382 -22.836 -14.675  0.00  0.00    +0.001 C 
ENDROOT
BRANCH   9  16
ATOM     15  O   UNL     1      28.453 -23.382 -17.690  0.00  0.00    -0.291 OA
ATOM     16  C   UNL     1      28.685 -22.898 -16.562  0.00  0.00    +0.173 C 
BRANCH  16  17
ATOM     17  C   UNL     1      27.649 -21.959 -15.918  0.00  0.00    +0.069 C 
BRANCH  17  18
ATOM     18  C   UNL     1      26.258 -22.067 -16.541  0.00  0.00    +0.008 C 
ATOM     19  C   UNL     1      26.083 -21.088 -17.691  0.00  0.00    +0.000 C 
ENDBRANCH  17  18
ENDBRANCH  16  17
ENDBRANCH   9  16
BRANCH   2  20
ATOM     20  C   UNL     1      33.578 -23.431 -18.028  0.00  0.00    +0.093 C 
BRANCH  20  21
ATOM     21  C   UNL     1      33.629 -22.021 -18.615  0.00  0.00    -0.001 C 
BRANCH  21  22
ATOM     22  C   UNL     1      34.785 -21.778 -19.591  0.00  0.00    -0.076 C 
BRANCH  22  23
ATOM     23  N   UNL     1      34.868 -20.378 -20.002  0.00  0.00    +0.384 N 
ATOM     24  N   UNL     1      35.015 -18.280 -21.987  0.00  0.00    +0.383 N 
ATOM     25  C   UNL     1      36.102 -20.130 -20.759  0.00  0.00    -0.101 C 
ATOM     26  C   UNL     1      33.695 -19.998 -20.798  0.00  0.00    -0.101 C 
ATOM     27  C   UNL     1      36.189 -18.663 -21.193  0.00  0.00    -0.101 C 
ATOM     28  C   UNL     1      33.782 -18.530 -21.231  0.00  0.00    -0.101 C 
ATOM     29  C   UNL     1      35.099 -16.880 -22.397  0.00  0.00    -0.101 C 
ATOM     30  H   UNL     1      34.886 -19.804 -19.160  0.00  0.00    -0.080 HD
ATOM     31  H   UNL     1      34.997 -18.855 -22.829  0.00  0.00    -0.080 HD
ENDBRANCH  22  23
ENDBRANCH  21  22
ENDBRANCH  20  21
ENDBRANCH   2  20
TORSDOF 7
ENDMDL
MODEL 3
REMARK VINA RESULT:      -9.1      3.169      8.211
REMARK  Name = 12598
REMARK  7 active torsions:
REMARK  status: ('A' for Active; 'I' for Inactive)
REMARK    1  A    between atoms: N_2  and  C_20
REMARK    2  A    between atoms: C_9  and  C_16
REMARK    3  A    between atoms: C_16  and  C_17
REMARK    4  A    between atoms: C_17  and  C_18
REMARK    5  A    between atoms: C_20  and  C_21
REMARK    6  A    between atoms: C_21  and  C_22
REMARK    7  A    between atoms: C_22  and  N_23
REMARK                            x       y       z     vdW  Elec       q    Type
REMARK                         _______ _______ _______ _____ _____    ______ ____
ROOT
ATOM      1  S   UNL     1      35.262 -10.280 -25.527  0.00  0.00    -0.084 S 
ATOM      2  N   UNL     1      33.095 -11.558 -23.700  0.00  0.00    -0.286 N 
ATOM      3  C   UNL     1      33.422 -10.207 -23.415  0.00  0.00    +0.058 C 
ATOM      4  C   UNL     1      33.309 -12.203 -24.944  0.00  0.00    +0.058 C 
ATOM      5  C   UNL     1      34.373  -9.511 -24.187  0.00  0.00    +0.043 C 
ATOM      6  C   UNL     1      34.248 -11.705 -25.868  0.00  0.00    +0.043 C 
ATOM      7  C   UNL     1      32.791  -9.489 -22.375  0.00  0.00    +0.018 C 
ATOM      8  C   UNL     1      32.574 -13.345 -25.330  0.00  0.00    +0.015 C 
ATOM      9  C   UNL     1      33.104  -8.155 -22.102  0.00  0.00    +0.036 C 
ATOM     10  C   UNL     1      34.687  -8.171 -23.905  0.00  0.00    +0.008 C 
ATOM     11  C   UNL     1      34.452 -12.345 -27.104  0.00  0.00    +0.008 C 
ATOM     12  C   UNL     1      34.056  -7.496 -22.865  0.00  0.00    +0.003 C 
ATOM     13  C   UNL     1      32.776 -13.975 -26.562  0.00  0.00    +0.001 C 
ATOM     14  C   UNL     1      33.719 -13.475 -27.448  0.00  0.00    +0.001 C 
ENDROOT
BRANCH   9  16
ATOM     15  O   UNL     1      32.409  -7.923 -19.867  0.00  0.00    -0.291 OA
ATOM     16  C   UNL     1      32.425  -7.454 -21.024  0.00  0.00    +0.173 C 
BRANCH  16  17
ATOM     17  C   UNL     1      31.715  -6.117 -21.304  0.00  0.00    +0.069 C 
BRANCH  17  18
ATOM     18  C   UNL     1      30.753  -6.175 -22.491  0.00  0.00    +0.008 C 
ATOM     19  C   UNL     1      31.081  -5.115 -23.528  0.00  0.00    +0.000 C 
ENDBRANCH  17  18
ENDBRANCH  16  17
ENDBRANCH   9  16
BRANCH   2  20
ATOM     20  C   UNL     1      32.421 -12.327 -22.646  0.00  0.00    +0.093 C 
BRANCH  20  21
ATOM     21  C   UNL     1      33.400 -13.283 -21.964  0.00  0.00    -0.001 C 
BRANCH  21  22
ATOM     22  C   UNL     1      32.744 -14.502 -21.306  0.00  0.00    -0.076 C 
BRANCH  22  23
ATOM     23  N   UNL     1      33.399 -15.750 -21.693  0.00  0.00    +0.384 N 
ATOM     24  N   UNL     1      35.693 -17.310 -22.509  0.00  0.00    +0.383 N 
ATOM     25  C   UNL     1      33.943 -15.652 -23.054  0.00  0.00    -0.101 C 
ATOM     26  C   UNL     1      34.462 -16.098 -20.742  0.00  0.00    -0.101 C 
ATOM     27  C   UNL     1      34.632 -16.959 -23.461  0.00  0.00    -0.101 C 
ATOM     28  C   UNL     1      35.150 -17.406 -21.149  0.00  0.00    -0.101 C 
ATOM     29  C   UNL     1      36.346 -18.558 -22.898  0.00  0.00    -0.101 C 
ATOM     30  H   UNL     1      32.699 -16.490 -21.679  0.00  0.00    -0.080 HD
ATOM     31  H   UNL     1      36.394 -16.569 -22.524  0.00  0.00    -0.080 HD
ENDBRANCH  22  23
ENDBRANCH  21  22
ENDBRANCH  20  21
ENDBRANCH   2  20
TORSDOF 7
ENDMDL
MODEL 4
REMARK VINA RESULT:      -9.1      7.629     10.961
REMARK  Name = 12598
REMARK  7 active torsions:
REMARK  status: ('A' for Active; 'I' for Inactive)
REMARK    1  A    between atoms: N_2  and  C_20
REMARK    2  A    between atoms: C_9  and  C_16
REMARK    3  A    between atoms: C_16  and  C_17
REMARK    4  A    between atoms: C_17  and  C_18
REMARK    5  A    between atoms: C_20  and  C_21
REMARK    6  A    between atoms: C_21  and  C_22
REMARK    7  A    between atoms: C_22  and  N_23
REMARK                            x       y       z     vdW  Elec       q    Type
REMARK                         _______ _______ _______ _____ _____    ______ ____
ROOT
ATOM      1  S   UNL     1      36.849 -21.302 -19.130  0.00  0.00    -0.084 S 
ATOM      2  N   UNL     1      34.172 -22.469 -18.062  0.00  0.00    -0.286 N 
ATOM      3  C   UNL     1      35.276 -22.548 -17.174  0.00  0.00    +0.058 C 
ATOM      4  C   UNL     1      34.058 -21.556 -19.140  0.00  0.00    +0.058 C 
ATOM      5  C   UNL     1      36.537 -22.033 -17.535  0.00  0.00    +0.043 C 
ATOM      6  C   UNL     1      35.198 -20.942 -19.696  0.00  0.00    +0.043 C 
ATOM      7  C   UNL     1      35.159 -23.110 -15.884  0.00  0.00    +0.018 C 
ATOM      8  C   UNL     1      32.806 -21.193 -19.684  0.00  0.00    +0.015 C 
ATOM      9  C   UNL     1      36.242 -23.178 -15.005  0.00  0.00    +0.036 C 
ATOM     10  C   UNL     1      37.625 -22.109 -16.648  0.00  0.00    +0.008 C 
ATOM     11  C   UNL     1      35.078 -20.033 -20.762  0.00  0.00    +0.008 C 
ATOM     12  C   UNL     1      37.479 -22.680 -15.389  0.00  0.00    +0.003 C 
ATOM     13  C   UNL     1      32.692 -20.285 -20.739  0.00  0.00    +0.001 C 
ATOM     14  C   UNL     1      33.831 -19.706 -21.281  0.00  0.00    +0.001 C 
ENDROOT
BRANCH   9  16
ATOM     15  O   UNL     1      35.133 -24.548 -13.448  0.00  0.00    -0.291 OA
ATOM     16  C   UNL     1      36.074 -23.762 -13.684  0.00  0.00    +0.173 C 
BRANCH  16  17
ATOM     17  C   UNL     1      37.064 -23.412 -12.557  0.00  0.00    +0.069 C 
BRANCH  17  18
ATOM     18  C   UNL     1      37.805 -24.627 -12.000  0.00  0.00    +0.008 C 
ATOM     19  C   UNL     1      38.598 -25.342 -13.082  0.00  0.00    +0.000 C 
ENDBRANCH  17  18
ENDBRANCH  16  17
ENDBRANCH   9  16
BRANCH   2  20
ATOM     20  C   UNL     1      33.030 -23.354 -17.800  0.00  0.00    +0.093 C 
BRANCH  20  21
ATOM     21  C   UNL     1      32.237 -22.871 -16.586  0.00  0.00    -0.001 C 
BRANCH  21  22
ATOM     22  C   UNL     1      31.516 -23.981 -15.814  0.00  0.00    -0.076 C 
BRANCH  22  23
ATOM     23  N   UNL     1      30.083 -23.723 -15.698  0.00  0.00    +0.384 N 
ATOM     24  N   UNL     1      27.681 -22.217 -16.270  0.00  0.00    +0.383 N 
ATOM     25  C   UNL     1      29.837 -22.414 -15.077  0.00  0.00    -0.101 C 
ATOM     26  C   UNL     1      29.431 -23.796 -17.011  0.00  0.00    -0.101 C 
ATOM     27  C   UNL     1      28.334 -22.141 -14.957  0.00  0.00    -0.101 C 
ATOM     28  C   UNL     1      27.928 -23.524 -16.890  0.00  0.00    -0.101 C 
ATOM     29  C   UNL     1      26.248 -21.959 -16.152  0.00  0.00    -0.101 C 
ATOM     30  H   UNL     1      29.681 -24.443 -15.098  0.00  0.00    -0.080 HD
ATOM     31  H   UNL     1      28.083 -21.495 -16.869  0.00  0.00    -0.080 HD
ENDBRANCH  22  23
ENDBRANCH  21  22
ENDBRANCH  20  21
ENDBRANCH   2  20
TORSDOF 7
ENDMDL
MODEL 5
REMARK VINA RESULT:      -8.9      7.275     12.385
REMARK  Name = 12598
REMARK  7 active torsions:
REMARK  status: ('A' for Active; 'I' for Inactive)
REMARK    1  A    between atoms: N_2  and  C_20
REMARK    2  A    between atoms: C_9  and  C_16
REMARK    3  A    between atoms: C_16  and  C_17
REMARK    4  A    between atoms: C_17  and  C_18
REMARK    5  A    between atoms: C_20  and  C_21
REMARK    6  A    between atoms: C_21  and  C_22
REMARK    7  A    between atoms: C_22  and  N_23
REMARK                            x       y       z     vdW  Elec       q    Type
REMARK                         _______ _______ _______ _____ _____    ______ ____
ROOT
ATOM      1  S   UNL     1      37.931 -22.477 -16.105  0.00  0.00    -0.084 S 
ATOM      2  N   UNL     1      35.095 -23.751 -16.064  0.00  0.00    -0.286 N 
ATOM      3  C   UNL     1      35.327 -22.799 -17.090  0.00  0.00    +0.058 C 
ATOM      4  C   UNL     1      36.104 -24.474 -15.380  0.00  0.00    +0.058 C 
ATOM      5  C   UNL     1      36.581 -22.169 -17.227  0.00  0.00    +0.043 C 
ATOM      6  C   UNL     1      37.434 -24.012 -15.348  0.00  0.00    +0.043 C 
ATOM      7  C   UNL     1      34.335 -22.464 -18.038  0.00  0.00    +0.018 C 
ATOM      8  C   UNL     1      35.836 -25.701 -14.734  0.00  0.00    +0.015 C 
ATOM      9  C   UNL     1      34.568 -21.536 -19.056  0.00  0.00    +0.036 C 
ATOM     10  C   UNL     1      36.807 -21.233 -18.250  0.00  0.00    +0.008 C 
ATOM     11  C   UNL     1      38.432 -24.737 -14.673  0.00  0.00    +0.008 C 
ATOM     12  C   UNL     1      35.804 -20.916 -19.160  0.00  0.00    +0.003 C 
ATOM     13  C   UNL     1      36.833 -26.421 -14.069  0.00  0.00    +0.001 C 
ATOM     14  C   UNL     1      38.132 -25.936 -14.036  0.00  0.00    +0.001 C 
ENDROOT
BRANCH   9  16
ATOM     15  O   UNL     1      32.695 -22.096 -20.364  0.00  0.00    -0.291 OA
ATOM     16  C   UNL     1      33.518 -21.225 -20.012  0.00  0.00    +0.173 C 
BRANCH  16  17
ATOM     17  C   UNL     1      33.413 -19.807 -20.604  0.00  0.00    +0.069 C 
BRANCH  17  18
ATOM     18  C   UNL     1      34.292 -19.596 -21.837  0.00  0.00    +0.008 C 
ATOM     19  C   UNL     1      35.040 -18.275 -21.769  0.00  0.00    +0.000 C 
ENDBRANCH  17  18
ENDBRANCH  16  17
ENDBRANCH   9  16
BRANCH   2  20
ATOM     20  C   UNL     1      33.698 -24.060 -15.733  0.00  0.00    +0.093 C 
BRANCH  20  21
ATOM     21  C   UNL     1      33.380 -23.655 -14.294  0.00  0.00    -0.001 C 
BRANCH  21  22
ATOM     22  C   UNL     1      32.289 -24.495 -13.622  0.00  0.00    -0.076 C 
BRANCH  22  23
ATOM     23  N   UNL     1      30.950 -24.075 -14.028  0.00  0.00    +0.384 N 
ATOM     24  N   UNL     1      28.982 -23.286 -15.994  0.00  0.00    +0.383 N 
ATOM     25  C   UNL     1      30.987 -22.747 -14.653  0.00  0.00    -0.101 C 
ATOM     26  C   UNL     1      30.351 -25.055 -14.943  0.00  0.00    -0.101 C 
ATOM     27  C   UNL     1      29.583 -22.306 -15.081  0.00  0.00    -0.101 C 
ATOM     28  C   UNL     1      28.946 -24.614 -15.370  0.00  0.00    -0.101 C 
ATOM     29  C   UNL     1      27.642 -22.865 -16.398  0.00  0.00    -0.101 C 
ATOM     30  H   UNL     1      30.370 -24.020 -13.191  0.00  0.00    -0.080 HD
ATOM     31  H   UNL     1      29.561 -23.341 -16.832  0.00  0.00    -0.080 HD
ENDBRANCH  22  23
ENDBRANCH  21  22
ENDBRANCH  20  21
ENDBRANCH   2  20
TORSDOF 7
ENDMDL
MODEL 6
REMARK VINA RESULT:      -8.8      3.285      7.185
REMARK  Name = 12598
REMARK  7 active torsions:
REMARK  status: ('A' for Active; 'I' for Inactive)
REMARK    1  A    between atoms: N_2  and  C_20
REMARK    2  A    between atoms: C_9  and  C_16
REMARK    3  A    between atoms: C_16  and  C_17
REMARK    4  A    between atoms: C_17  and  C_18
REMARK    5  A    between atoms: C_20  and  C_21
REMARK    6  A    between atoms: C_21  and  C_22
REMARK    7  A    between atoms: C_22  and  N_23
REMARK                            x       y       z     vdW  Elec       q    Type
REMARK                         _______ _______ _______ _____ _____    ______ ____
ROOT
ATOM      1  S   UNL     1      31.927  -7.738 -19.980  0.00  0.00    -0.084 S 
ATOM      2  N   UNL     1      32.242  -8.928 -22.835  0.00  0.00    -0.286 N 
ATOM      3  C   UNL     1      32.153  -9.873 -21.781  0.00  0.00    +0.058 C 
ATOM      4  C   UNL     1      31.770  -7.593 -22.774  0.00  0.00    +0.058 C 
ATOM      5  C   UNL     1      31.986  -9.457 -20.445  0.00  0.00    +0.043 C 
ATOM      6  C   UNL     1      31.564  -6.951 -21.537  0.00  0.00    +0.043 C 
ATOM      7  C   UNL     1      32.193 -11.264 -22.019  0.00  0.00    +0.018 C 
ATOM      8  C   UNL     1      31.453  -6.858 -23.938  0.00  0.00    +0.015 C 
ATOM      9  C   UNL     1      32.093 -12.195 -20.982  0.00  0.00    +0.036 C 
ATOM     10  C   UNL     1      31.891 -10.399 -19.405  0.00  0.00    +0.008 C 
ATOM     11  C   UNL     1      31.089  -5.628 -21.482  0.00  0.00    +0.008 C 
ATOM     12  C   UNL     1      31.946 -11.762 -19.673  0.00  0.00    +0.003 C 
ATOM     13  C   UNL     1      30.976  -5.545 -23.878  0.00  0.00    +0.001 C 
ATOM     14  C   UNL     1      30.798  -4.929 -22.648  0.00  0.00    +0.001 C 
ENDROOT
BRANCH   9  16
ATOM     15  O   UNL     1      31.677 -14.065 -22.347  0.00  0.00    -0.291 OA
ATOM     16  C   UNL     1      32.135 -13.619 -21.275  0.00  0.00    +0.173 C 
BRANCH  16  17
ATOM     17  C   UNL     1      32.750 -14.595 -20.255  0.00  0.00    +0.069 C 
BRANCH  17  18
ATOM     18  C   UNL     1      34.224 -14.905 -20.522  0.00  0.00    +0.008 C 
ATOM     19  C   UNL     1      34.409 -16.315 -21.059  0.00  0.00    +0.000 C 
ENDBRANCH  17  18
ENDBRANCH  16  17
ENDBRANCH   9  16
BRANCH   2  20
ATOM     20  C   UNL     1      32.804  -9.390 -24.111  0.00  0.00    +0.093 C 
BRANCH  20  21
ATOM     21  C   UNL     1      34.330  -9.436 -24.044  0.00  0.00    -0.001 C 
BRANCH  21  22
ATOM     22  C   UNL     1      34.981 -10.417 -25.026  0.00  0.00    -0.076 C 
BRANCH  22  23
ATOM     23  N   UNL     1      34.067 -11.491 -25.410  0.00  0.00    +0.384 N 
ATOM     24  N   UNL     1      33.477 -14.196 -26.244  0.00  0.00    +0.383 N 
ATOM     25  C   UNL     1      34.342 -11.943 -26.780  0.00  0.00    -0.101 C 
ATOM     26  C   UNL     1      34.161 -12.616 -24.471  0.00  0.00    -0.101 C 
ATOM     27  C   UNL     1      33.386 -13.071 -27.184  0.00  0.00    -0.101 C 
ATOM     28  C   UNL     1      33.204 -13.743 -24.875  0.00  0.00    -0.101 C 
ATOM     29  C   UNL     1      32.563 -15.269 -26.630  0.00  0.00    -0.101 C 
ATOM     30  H   UNL     1      33.117 -11.123 -25.378  0.00  0.00    -0.080 HD
ATOM     31  H   UNL     1      34.428 -14.565 -26.277  0.00  0.00    -0.080 HD
ENDBRANCH  22  23
ENDBRANCH  21  22
ENDBRANCH  20  21
ENDBRANCH   2  20
TORSDOF 7
ENDMDL
MODEL 7
REMARK VINA RESULT:      -8.7      7.030     11.823
REMARK  Name = 12598
REMARK  7 active torsions:
REMARK  status: ('A' for Active; 'I' for Inactive)
REMARK    1  A    between atoms: N_2  and  C_20
REMARK    2  A    between atoms: C_9  and  C_16
REMARK    3  A    between atoms: C_16  and  C_17
REMARK    4  A    between atoms: C_17  and  C_18
REMARK    5  A    between atoms: C_20  and  C_21
REMARK    6  A    between atoms: C_21  and  C_22
REMARK    7  A    between atoms: C_22  and  N_23
REMARK                            x       y       z     vdW  Elec       q    Type
REMARK                         _______ _______ _______ _____ _____    ______ ____
ROOT
ATOM      1  S   UNL     1      32.540 -23.068 -13.089  0.00  0.00    -0.084 S 
ATOM      2  N   UNL     1      33.342 -23.493 -16.063  0.00  0.00    -0.286 N 
ATOM      3  C   UNL     1      34.259 -23.991 -15.102  0.00  0.00    +0.058 C 
ATOM      4  C   UNL     1      31.966 -23.247 -15.827  0.00  0.00    +0.058 C 
ATOM      5  C   UNL     1      33.996 -23.878 -13.722  0.00  0.00    +0.043 C 
ATOM      6  C   UNL     1      31.476 -23.061 -14.519  0.00  0.00    +0.043 C 
ATOM      7  C   UNL     1      35.451 -24.648 -15.475  0.00  0.00    +0.018 C 
ATOM      8  C   UNL     1      31.022 -23.210 -16.877  0.00  0.00    +0.015 C 
ATOM      9  C   UNL     1      36.348 -25.149 -14.528  0.00  0.00    +0.036 C 
ATOM     10  C   UNL     1      34.905 -24.380 -12.773  0.00  0.00    +0.008 C 
ATOM     11  C   UNL     1      30.109 -22.823 -14.290  0.00  0.00    +0.008 C 
ATOM     12  C   UNL     1      36.077 -25.011 -13.175  0.00  0.00    +0.003 C 
ATOM     13  C   UNL     1      29.664 -22.979 -16.642  0.00  0.00    +0.001 C 
ATOM     14  C   UNL     1      29.208 -22.782 -15.347  0.00  0.00    +0.001 C 
ENDROOT
BRANCH   9  16
ATOM     15  O   UNL     1      37.535 -27.013 -15.333  0.00  0.00    -0.291 OA
ATOM     16  C   UNL     1      37.563 -25.822 -14.960  0.00  0.00    +0.173 C 
BRANCH  16  17
ATOM     17  C   UNL     1      38.903 -25.064 -14.959  0.00  0.00    +0.069 C 
BRANCH  17  18
ATOM     18  C   UNL     1      39.816 -25.445 -13.793  0.00  0.00    +0.008 C 
ATOM     19  C   UNL     1      40.845 -26.484 -14.207  0.00  0.00    +0.000 C 
ENDBRANCH  17  18
ENDBRANCH  16  17
ENDBRANCH   9  16
BRANCH   2  20
ATOM     20  C   UNL     1      33.843 -23.283 -17.428  0.00  0.00    +0.093 C 
BRANCH  20  21
ATOM     21  C   UNL     1      34.923 -22.200 -17.447  0.00  0.00    -0.001 C 
BRANCH  21  22
ATOM     22  C   UNL     1      35.659 -22.059 -18.783  0.00  0.00    -0.076 C 
BRANCH  22  23
ATOM     23  N   UNL     1      35.384 -20.775 -19.425  0.00  0.00    +0.384 N 
ATOM     24  N   UNL     1      34.968 -19.085 -21.734  0.00  0.00    +0.383 N 
ATOM     25  C   UNL     1      36.503 -20.374 -20.287  0.00  0.00    -0.101 C 
ATOM     26  C   UNL     1      34.138 -20.834 -20.198  0.00  0.00    -0.101 C 
ATOM     27  C   UNL     1      36.216 -19.028 -20.962  0.00  0.00    -0.101 C 
ATOM     28  C   UNL     1      33.851 -19.487 -20.872  0.00  0.00    -0.101 C 
ATOM     29  C   UNL     1      34.695 -17.800 -22.374  0.00  0.00    -0.101 C 
ATOM     30  H   UNL     1      35.276 -20.074 -18.692  0.00  0.00    -0.080 HD
ATOM     31  H   UNL     1      35.077 -19.786 -22.467  0.00  0.00    -0.080 HD
ENDBRANCH  22  23
ENDBRANCH  21  22
ENDBRANCH  20  21
ENDBRANCH   2  20
TORSDOF 7
ENDMDL
MODEL 8
REMARK VINA RESULT:      -7.8      5.825     10.775
REMARK  Name = 12598
REMARK  7 active torsions:
REMARK  status: ('A' for Active; 'I' for Inactive)
REMARK    1  A    between atoms: N_2  and  C_20
REMARK    2  A    between atoms: C_9  and  C_16
REMARK    3  A    between atoms: C_16  and  C_17
REMARK    4  A    between atoms: C_17  and  C_18
REMARK    5  A    between atoms: C_20  and  C_21
REMARK    6  A    between atoms: C_21  and  C_22
REMARK    7  A    between atoms: C_22  and  N_23
REMARK                            x       y       z     vdW  Elec       q    Type
REMARK                         _______ _______ _______ _____ _____    ______ ____
ROOT
ATOM      1  S   UNL     1      31.094  -5.481 -24.050  0.00  0.00    -0.084 S 
ATOM      2  N   UNL     1      33.827  -6.964 -24.039  0.00  0.00    -0.286 N 
ATOM      3  C   UNL     1      33.637  -6.031 -25.091  0.00  0.00    +0.058 C 
ATOM      4  C   UNL     1      33.127  -6.956 -22.807  0.00  0.00    +0.058 C 
ATOM      5  C   UNL     1      32.448  -5.280 -25.190  0.00  0.00    +0.043 C 
ATOM      6  C   UNL     1      31.888  -6.296 -22.679  0.00  0.00    +0.043 C 
ATOM      7  C   UNL     1      34.633  -5.785 -26.061  0.00  0.00    +0.018 C 
ATOM      8  C   UNL     1      33.647  -7.572 -21.647  0.00  0.00    +0.015 C 
ATOM      9  C   UNL     1      34.451  -4.858 -27.090  0.00  0.00    +0.036 C 
ATOM     10  C   UNL     1      32.269  -4.352 -26.231  0.00  0.00    +0.008 C 
ATOM     11  C   UNL     1      31.201  -6.286 -21.452  0.00  0.00    +0.008 C 
ATOM     12  C   UNL     1      33.266  -4.143 -27.178  0.00  0.00    +0.003 C 
ATOM     13  C   UNL     1      32.963  -7.554 -20.428  0.00  0.00    +0.001 C 
ATOM     14  C   UNL     1      31.736  -6.913 -20.332  0.00  0.00    +0.001 C 
ENDROOT
BRANCH   9  16
ATOM     15  O   UNL     1      35.233  -4.361 -29.252  0.00  0.00    -0.291 OA
ATOM     16  C   UNL     1      35.507  -4.635 -28.065  0.00  0.00    +0.173 C 
BRANCH  16  17
ATOM     17  C   UNL     1      36.982  -4.737 -27.637  0.00  0.00    +0.069 C 
BRANCH  17  18
ATOM     18  C   UNL     1      37.956  -4.770 -28.815  0.00  0.00    +0.008 C 
ATOM     19  C   UNL     1      38.325  -6.195 -29.194  0.00  0.00    +0.000 C 
ENDBRANCH  17  18
ENDBRANCH  16  17
ENDBRANCH   9  16
BRANCH   2  20
ATOM     20  C   UNL     1      34.878  -7.974 -24.214  0.00  0.00    +0.093 C 
BRANCH  20  21
ATOM     21  C   UNL     1      34.299  -9.262 -24.801  0.00  0.00    -0.001 C 
BRANCH  21  22
ATOM     22  C   UNL     1      34.150 -10.409 -23.797  0.00  0.00    -0.076 C 
BRANCH  22  23
ATOM     23  N   UNL     1      34.182 -11.715 -24.451  0.00  0.00    +0.384 N 
ATOM     24  N   UNL     1      32.927 -14.029 -25.647  0.00  0.00    +0.383 N 
ATOM     25  C   UNL     1      33.507 -12.727 -23.628  0.00  0.00    -0.101 C 
ATOM     26  C   UNL     1      33.569 -11.647 -25.783  0.00  0.00    -0.101 C 
ATOM     27  C   UNL     1      33.538 -14.097 -24.314  0.00  0.00    -0.101 C 
ATOM     28  C   UNL     1      33.601 -13.017 -26.469  0.00  0.00    -0.101 C 
ATOM     29  C   UNL     1      32.960 -15.336 -26.300  0.00  0.00    -0.101 C 
ATOM     30  H   UNL     1      35.158 -11.989 -24.560  0.00  0.00    -0.080 HD
ATOM     31  H   UNL     1      31.950 -13.757 -25.538  0.00  0.00    -0.080 HD
ENDBRANCH  22  23
ENDBRANCH  21  22
ENDBRANCH  20  21
ENDBRANCH   2  20
TORSDOF 7
ENDMDL
MODEL 9
REMARK VINA RESULT:      -7.5      5.033      9.173
REMARK  Name = 12598
REMARK  7 active torsions:
REMARK  status: ('A' for Active; 'I' for Inactive)
REMARK    1  A    between atoms: N_2  and  C_20
REMARK    2  A    between atoms: C_9  and  C_16
REMARK    3  A    between atoms: C_16  and  C_17
REMARK    4  A    between atoms: C_17  and  C_18
REMARK    5  A    between atoms: C_20  and  C_21
REMARK    6  A    between atoms: C_21  and  C_22
REMARK    7  A    between atoms: C_22  and  N_23
REMARK                            x       y       z     vdW  Elec       q    Type
REMARK                         _______ _______ _______ _____ _____    ______ ____
ROOT
ATOM      1  S   UNL     1      31.430  -3.740 -23.695  0.00  0.00    -0.084 S 
ATOM      2  N   UNL     1      33.346  -6.080 -24.418  0.00  0.00    -0.286 N 
ATOM      3  C   UNL     1      32.592  -6.247 -23.228  0.00  0.00    +0.058 C 
ATOM      4  C   UNL     1      33.000  -5.215 -25.487  0.00  0.00    +0.058 C 
ATOM      5  C   UNL     1      31.672  -5.266 -22.807  0.00  0.00    +0.043 C 
ATOM      6  C   UNL     1      32.121  -4.132 -25.290  0.00  0.00    +0.043 C 
ATOM      7  C   UNL     1      32.698  -7.410 -22.433  0.00  0.00    +0.018 C 
ATOM      8  C   UNL     1      33.487  -5.415 -26.798  0.00  0.00    +0.015 C 
ATOM      9  C   UNL     1      31.947  -7.580 -21.268  0.00  0.00    +0.036 C 
ATOM     10  C   UNL     1      30.923  -5.441 -21.630  0.00  0.00    +0.008 C 
ATOM     11  C   UNL     1      31.776  -3.282 -26.356  0.00  0.00    +0.008 C 
ATOM     12  C   UNL     1      31.061  -6.593 -20.863  0.00  0.00    +0.003 C 
ATOM     13  C   UNL     1      33.137  -4.570 -27.854  0.00  0.00    +0.001 C 
ATOM     14  C   UNL     1      32.283  -3.500 -27.632  0.00  0.00    +0.001 C 
ENDROOT
BRANCH   9  16
ATOM     15  O   UNL     1      32.624  -8.770 -19.355  0.00  0.00    -0.291 OA
ATOM     16  C   UNL     1      32.086  -8.796 -20.482  0.00  0.00    +0.173 C 
BRANCH  16  17
ATOM     17  C   UNL     1      31.569 -10.134 -21.040  0.00  0.00    +0.069 C 
BRANCH  17  18
ATOM     18  C   UNL     1      31.520 -11.250 -19.995  0.00  0.00    +0.008 C 
ATOM     19  C   UNL     1      31.982 -12.577 -20.574  0.00  0.00    +0.000 C 
ENDBRANCH  17  18
ENDBRANCH  16  17
ENDBRANCH   9  16
BRANCH   2  20
ATOM     20  C   UNL     1      34.541  -6.917 -24.584  0.00  0.00    +0.093 C 
BRANCH  20  21
ATOM     21  C   UNL     1      34.153  -8.389 -24.734  0.00  0.00    -0.001 C 
BRANCH  21  22
ATOM     22  C   UNL     1      35.159  -9.376 -24.132  0.00  0.00    -0.076 C 
BRANCH  22  23
ATOM     23  N   UNL     1      34.897 -10.749 -24.557  0.00  0.00    +0.384 N 
ATOM     24  N   UNL     1      33.240 -12.815 -25.718  0.00  0.00    +0.383 N 
ATOM     25  C   UNL     1      33.754 -11.313 -23.825  0.00  0.00    -0.101 C 
ATOM     26  C   UNL     1      34.657 -10.811 -26.004  0.00  0.00    -0.101 C 
ATOM     27  C   UNL     1      33.477 -12.752 -24.271  0.00  0.00    -0.101 C 
ATOM     28  C   UNL     1      34.381 -12.251 -26.449  0.00  0.00    -0.101 C 
ATOM     29  C   UNL     1      32.979 -14.189 -26.142  0.00  0.00    -0.101 C 
ATOM     30  H   UNL     1      35.722 -11.308 -24.343  0.00  0.00    -0.080 HD
ATOM     31  H   UNL     1      32.413 -12.257 -25.932  0.00  0.00    -0.080 HD
ENDBRANCH  22  23
ENDBRANCH  21  22
ENDBRANCH  20  21
ENDBRANCH   2  20
TORSDOF 7
ENDMDL
