MODEL 1
REMARK VINA RESULT:      -5.4      0.000      0.000
REMARK  Name = 12473
REMARK  2 active torsions:
REMARK  status: ('A' for Active; 'I' for Inactive)
REMARK    1  A    between atoms: CA_2  and  C_8
REMARK    2  A    between atoms: C_8  and  O_9
REMARK                            x       y       z     vdW  Elec       q    Type
REMARK                         _______ _______ _______ _____ _____    ______ ____
ROOT
ATOM      1  N   PRO A   1      37.790 -25.782 -15.327  0.00  0.00    -0.307 N 
ATOM      2  CA  PRO A   1      38.873 -25.596 -14.509  0.00  0.00    +0.125 C 
ATOM      3  CB  PRO A   1      38.440 -25.692 -13.204  0.00  0.00    +0.023 C 
ATOM      4  CD  PRO A   1      36.671 -25.996 -14.565  0.00  0.00    +0.062 C 
ATOM      5  CG  PRO A   1      37.046 -25.944 -13.240  0.00  0.00    +0.017 C 
ATOM      6  H   PRO A   1      37.812 -25.766 -16.311  0.00  0.00    +0.152 HD
ENDROOT
BRANCH   2   8
ATOM      7  OXT PRO A   1      41.089 -24.700 -14.401  0.00  0.00    -0.244 OA
ATOM      8  C   PRO A   1      40.198 -25.352 -14.987  0.00  0.00    +0.352 C 
BRANCH   8   9
ATOM      9  O   PRO A   1      40.447 -25.914 -16.213  0.00  0.00    -0.476 OA
ATOM     10  H   PRO A   1      39.926 -26.631 -16.515  0.00  0.00    +0.295 HD
ENDBRANCH   8   9
ENDBRANCH   2   8
TORSDOF 2
ENDMDL
MODEL 2
REMARK VINA RESULT:      -5.2      7.943      8.600
REMARK  Name = 12473
REMARK  2 active torsions:
REMARK  status: ('A' for Active; 'I' for Inactive)
REMARK    1  A    between atoms: CA_2  and  C_8
REMARK    2  A    between atoms: C_8  and  O_9
REMARK                            x       y       z     vdW  Elec       q    Type
REMARK                         _______ _______ _______ _____ _____    ______ ____
ROOT
ATOM      1  N   PRO A   1      32.796 -20.947 -19.828  0.00  0.00    -0.307 N 
ATOM      2  CA  PRO A   1      34.096 -21.344 -19.659  0.00  0.00    +0.125 C 
ATOM      3  CB  PRO A   1      34.900 -20.467 -20.355  0.00  0.00    +0.023 C 
ATOM      4  CD  PRO A   1      32.756 -19.830 -20.620  0.00  0.00    +0.062 C 
ATOM      5  CG  PRO A   1      34.051 -19.509 -20.963  0.00  0.00    +0.017 C 
ATOM      6  H   PRO A   1      32.011 -21.395 -19.439  0.00  0.00    +0.152 HD
ENDROOT
BRANCH   2   8
ATOM      7  OXT PRO A   1      35.308 -22.484 -17.940  0.00  0.00    -0.244 OA
ATOM      8  C   PRO A   1      34.487 -22.478 -18.883  0.00  0.00    +0.352 C 
BRANCH   8   9
ATOM      9  O   PRO A   1      33.863 -23.639 -19.261  0.00  0.00    -0.476 OA
ATOM     10  H   PRO A   1      33.017 -23.850 -18.919  0.00  0.00    +0.295 HD
ENDBRANCH   8   9
ENDBRANCH   2   8
TORSDOF 2
ENDMDL
MODEL 3
REMARK VINA RESULT:      -5.1      9.484     10.412
REMARK  Name = 12473
REMARK  2 active torsions:
REMARK  status: ('A' for Active; 'I' for Inactive)
REMARK    1  A    between atoms: CA_2  and  C_8
REMARK    2  A    between atoms: C_8  and  O_9
REMARK                            x       y       z     vdW  Elec       q    Type
REMARK                         _______ _______ _______ _____ _____    ______ ____
ROOT
ATOM      1  N   PRO A   1      30.551 -22.712 -16.910  0.00  0.00    -0.307 N 
ATOM      2  CA  PRO A   1      29.329 -22.994 -16.359  0.00  0.00    +0.125 C 
ATOM      3  CB  PRO A   1      29.543 -23.561 -15.121  0.00  0.00    +0.023 C 
ATOM      4  CD  PRO A   1      31.542 -23.089 -16.042  0.00  0.00    +0.062 C 
ATOM      5  CG  PRO A   1      30.944 -23.621 -14.921  0.00  0.00    +0.017 C 
ATOM      6  H   PRO A   1      30.695 -22.301 -17.792  0.00  0.00    +0.152 HD
ENDROOT
BRANCH   2   8
ATOM      7  OXT PRO A   1      27.473 -21.632 -17.009  0.00  0.00    -0.244 OA
ATOM      8  C   PRO A   1      28.084 -22.722 -17.006  0.00  0.00    +0.352 C 
BRANCH   8   9
ATOM      9  O   PRO A   1      27.565 -23.805 -17.667  0.00  0.00    -0.476 OA
ATOM     10  H   PRO A   1      27.520 -23.806 -18.603  0.00  0.00    +0.295 HD
ENDBRANCH   8   9
ENDBRANCH   2   8
TORSDOF 2
ENDMDL
MODEL 4
REMARK VINA RESULT:      -5.1      3.822      4.517
REMARK  Name = 12473
REMARK  2 active torsions:
REMARK  status: ('A' for Active; 'I' for Inactive)
REMARK    1  A    between atoms: CA_2  and  C_8
REMARK    2  A    between atoms: C_8  and  O_9
REMARK                            x       y       z     vdW  Elec       q    Type
REMARK                         _______ _______ _______ _____ _____    ______ ____
ROOT
ATOM      1  N   PRO A   1      36.483 -25.969 -13.262  0.00  0.00    -0.307 N 
ATOM      2  CA  PRO A   1      36.639 -25.068 -12.242  0.00  0.00    +0.125 C 
ATOM      3  CB  PRO A   1      37.973 -24.726 -12.180  0.00  0.00    +0.023 C 
ATOM      4  CD  PRO A   1      37.696 -26.207 -13.853  0.00  0.00    +0.062 C 
ATOM      5  CG  PRO A   1      38.641 -25.448 -13.199  0.00  0.00    +0.017 C 
ATOM      6  H   PRO A   1      35.631 -26.381 -13.530  0.00  0.00    +0.152 HD
ENDROOT
BRANCH   2   8
ATOM      7  OXT PRO A   1      35.281 -25.003 -10.273  0.00  0.00    -0.244 OA
ATOM      8  C   PRO A   1      35.566 -24.601 -11.422  0.00  0.00    +0.352 C 
BRANCH   8   9
ATOM      9  O   PRO A   1      34.815 -23.618 -12.014  0.00  0.00    -0.476 OA
ATOM     10  H   PRO A   1      34.868 -22.736 -11.702  0.00  0.00    +0.295 HD
ENDBRANCH   8   9
ENDBRANCH   2   8
TORSDOF 2
ENDMDL
MODEL 5
REMARK VINA RESULT:      -5.0      8.398      9.143
REMARK  Name = 12473
REMARK  2 active torsions:
REMARK  status: ('A' for Active; 'I' for Inactive)
REMARK    1  A    between atoms: CA_2  and  C_8
REMARK    2  A    between atoms: C_8  and  O_9
REMARK                            x       y       z     vdW  Elec       q    Type
REMARK                         _______ _______ _______ _____ _____    ______ ____
ROOT
ATOM      1  N   PRO A   1      35.267 -20.397 -20.159  0.00  0.00    -0.307 N 
ATOM      2  CA  PRO A   1      34.013 -20.884 -19.900  0.00  0.00    +0.125 C 
ATOM      3  CB  PRO A   1      33.106 -20.097 -20.577  0.00  0.00    +0.023 C 
ATOM      4  CD  PRO A   1      35.175 -19.313 -20.992  0.00  0.00    +0.062 C 
ATOM      5  CG  PRO A   1      33.842 -19.103 -21.267  0.00  0.00    +0.017 C 
ATOM      6  H   PRO A   1      36.105 -20.770 -19.802  0.00  0.00    +0.152 HD
ENDROOT
BRANCH   2   8
ATOM      7  OXT PRO A   1      32.647 -22.355 -18.599  0.00  0.00    -0.244 OA
ATOM      8  C   PRO A   1      33.755 -22.015 -19.065  0.00  0.00    +0.352 C 
BRANCH   8   9
ATOM      9  O   PRO A   1      34.876 -22.755 -18.789  0.00  0.00    -0.476 OA
ATOM     10  H   PRO A   1      34.878 -23.679 -18.941  0.00  0.00    +0.295 HD
ENDBRANCH   8   9
ENDBRANCH   2   8
TORSDOF 2
ENDMDL
MODEL 6
REMARK VINA RESULT:      -4.9     11.606     12.034
REMARK  Name = 12473
REMARK  2 active torsions:
REMARK  status: ('A' for Active; 'I' for Inactive)
REMARK    1  A    between atoms: CA_2  and  C_8
REMARK    2  A    between atoms: C_8  and  O_9
REMARK                            x       y       z     vdW  Elec       q    Type
REMARK                         _______ _______ _______ _____ _____    ______ ____
ROOT
ATOM      1  N   PRO A   1      35.323 -16.901 -23.407  0.00  0.00    -0.307 N 
ATOM      2  CA  PRO A   1      35.229 -17.994 -22.586  0.00  0.00    +0.125 C 
ATOM      3  CB  PRO A   1      34.742 -19.044 -23.334  0.00  0.00    +0.023 C 
ATOM      4  CD  PRO A   1      34.904 -17.237 -24.667  0.00  0.00    +0.062 C 
ATOM      5  CG  PRO A   1      34.535 -18.564 -24.650  0.00  0.00    +0.017 C 
ATOM      6  H   PRO A   1      35.644 -16.012 -23.134  0.00  0.00    +0.152 HD
ENDROOT
BRANCH   2   8
ATOM      7  OXT PRO A   1      36.168 -18.903 -20.581  0.00  0.00    -0.244 OA
ATOM      8  C   PRO A   1      35.592 -17.984 -21.204  0.00  0.00    +0.352 C 
BRANCH   8   9
ATOM      9  O   PRO A   1      35.247 -16.825 -20.558  0.00  0.00    -0.476 OA
ATOM     10  H   PRO A   1      35.114 -16.037 -21.047  0.00  0.00    +0.295 HD
ENDBRANCH   8   9
ENDBRANCH   2   8
TORSDOF 2
ENDMDL
MODEL 7
REMARK VINA RESULT:      -4.8     13.735     14.226
REMARK  Name = 12473
REMARK  2 active torsions:
REMARK  status: ('A' for Active; 'I' for Inactive)
REMARK    1  A    between atoms: CA_2  and  C_8
REMARK    2  A    between atoms: C_8  and  O_9
REMARK                            x       y       z     vdW  Elec       q    Type
REMARK                         _______ _______ _______ _____ _____    ______ ____
ROOT
ATOM      1  N   PRO A   1      35.291 -16.922 -23.544  0.00  0.00    -0.307 N 
ATOM      2  CA  PRO A   1      34.453 -16.969 -24.626  0.00  0.00    +0.125 C 
ATOM      3  CB  PRO A   1      34.285 -18.292 -24.974  0.00  0.00    +0.023 C 
ATOM      4  CD  PRO A   1      35.660 -18.194 -23.194  0.00  0.00    +0.062 C 
ATOM      5  CG  PRO A   1      35.050 -19.067 -24.068  0.00  0.00    +0.017 C 
ATOM      6  H   PRO A   1      35.582 -16.101 -23.086  0.00  0.00    +0.152 HD
ENDROOT
BRANCH   2   8
ATOM      7  OXT PRO A   1      33.707 -15.633 -26.466  0.00  0.00    -0.244 OA
ATOM      8  C   PRO A   1      33.883 -15.812 -25.241  0.00  0.00    +0.352 C 
BRANCH   8   9
ATOM      9  O   PRO A   1      33.514 -14.843 -24.344  0.00  0.00    -0.476 OA
ATOM     10  H   PRO A   1      34.063 -14.096 -24.208  0.00  0.00    +0.295 HD
ENDBRANCH   8   9
ENDBRANCH   2   8
TORSDOF 2
ENDMDL
MODEL 8
REMARK VINA RESULT:      -4.8      9.139      9.669
REMARK  Name = 12473
REMARK  2 active torsions:
REMARK  status: ('A' for Active; 'I' for Inactive)
REMARK    1  A    between atoms: CA_2  and  C_8
REMARK    2  A    between atoms: C_8  and  O_9
REMARK                            x       y       z     vdW  Elec       q    Type
REMARK                         _______ _______ _______ _____ _____    ______ ____
ROOT
ATOM      1  N   PRO A   1      35.522 -20.534 -19.985  0.00  0.00    -0.307 N 
ATOM      2  CA  PRO A   1      34.765 -19.653 -20.713  0.00  0.00    +0.125 C 
ATOM      3  CB  PRO A   1      33.448 -20.046 -20.614  0.00  0.00    +0.023 C 
ATOM      4  CD  PRO A   1      34.707 -21.482 -19.422  0.00  0.00    +0.062 C 
ATOM      5  CG  PRO A   1      33.412 -21.203 -19.798  0.00  0.00    +0.017 C 
ATOM      6  H   PRO A   1      36.499 -20.492 -19.881  0.00  0.00    +0.152 HD
ENDROOT
BRANCH   2   8
ATOM      7  OXT PRO A   1      35.742 -18.552 -22.598  0.00  0.00    -0.244 OA
ATOM      8  C   PRO A   1      35.307 -18.540 -21.426  0.00  0.00    +0.352 C 
BRANCH   8   9
ATOM      9  O   PRO A   1      35.322 -17.380 -20.696  0.00  0.00    -0.476 OA
ATOM     10  H   PRO A   1      35.942 -16.707 -20.898  0.00  0.00    +0.295 HD
ENDBRANCH   8   9
ENDBRANCH   2   8
TORSDOF 2
ENDMDL
MODEL 9
REMARK VINA RESULT:      -4.8     18.466     18.783
REMARK  Name = 12473
REMARK  2 active torsions:
REMARK  status: ('A' for Active; 'I' for Inactive)
REMARK    1  A    between atoms: CA_2  and  C_8
REMARK    2  A    between atoms: C_8  and  O_9
REMARK                            x       y       z     vdW  Elec       q    Type
REMARK                         _______ _______ _______ _____ _____    ______ ____
ROOT
ATOM      1  N   PRO A   1      32.118  -9.670 -19.064  0.00  0.00    -0.307 N 
ATOM      2  CA  PRO A   1      32.194  -9.124 -20.318  0.00  0.00    +0.125 C 
ATOM      3  CB  PRO A   1      31.631 -10.018 -21.203  0.00  0.00    +0.023 C 
ATOM      4  CD  PRO A   1      31.516 -10.899 -19.134  0.00  0.00    +0.062 C 
ATOM      5  CG  PRO A   1      31.203 -11.141 -20.454  0.00  0.00    +0.017 C 
ATOM      6  H   PRO A   1      32.446  -9.245 -18.239  0.00  0.00    +0.152 HD
ENDROOT
BRANCH   2   8
ATOM      7  OXT PRO A   1      32.913  -7.326 -21.723  0.00  0.00    -0.244 OA
ATOM      8  C   PRO A   1      32.766  -7.844 -20.595  0.00  0.00    +0.352 C 
BRANCH   8   9
ATOM      9  O   PRO A   1      33.171  -7.173 -19.470  0.00  0.00    -0.476 OA
ATOM     10  H   PRO A   1      33.640  -6.366 -19.548  0.00  0.00    +0.295 HD
ENDBRANCH   8   9
ENDBRANCH   2   8
TORSDOF 2
ENDMDL
