MODEL 1
REMARK VINA RESULT:      -9.1      0.000      0.000
REMARK  Name = 4917
REMARK  4 active torsions:
REMARK  status: ('A' for Active; 'I' for Inactive)
REMARK    1  A    between atoms: N_3  and  C_16
REMARK    2  A    between atoms: C_16  and  C_17
REMARK    3  A    between atoms: C_17  and  C_18
REMARK    4  A    between atoms: C_18  and  N_19
REMARK                            x       y       z     vdW  Elec       q    Type
REMARK                         _______ _______ _______ _____ _____    ______ ____
ROOT
ATOM      1 CL   UNL     1      30.912  -4.402 -25.213  0.00  0.00    -0.082 Cl
ATOM      2  S   UNL     1      32.260  -7.489 -19.898  0.00  0.00    -0.084 S 
ATOM      3  N   UNL     1      32.024  -8.795 -22.709  0.00  0.00    -0.286 N 
ATOM      4  C   UNL     1      31.810  -7.395 -22.662  0.00  0.00    +0.058 C 
ATOM      5  C   UNL     1      31.888  -9.677 -21.607  0.00  0.00    +0.058 C 
ATOM      6  C   UNL     1      31.868  -6.692 -21.442  0.00  0.00    +0.043 C 
ATOM      7  C   UNL     1      31.953  -9.201 -20.283  0.00  0.00    +0.043 C 
ATOM      8  C   UNL     1      31.498  -6.647 -23.819  0.00  0.00    +0.027 C 
ATOM      9  C   UNL     1      31.649 -11.059 -21.780  0.00  0.00    +0.015 C 
ATOM     10  C   UNL     1      31.647  -5.303 -21.400  0.00  0.00    +0.009 C 
ATOM     11  C   UNL     1      31.812 -10.079 -19.194  0.00  0.00    +0.008 C 
ATOM     12  C   UNL     1      31.275  -5.267 -23.770  0.00  0.00    +0.059 C 
ATOM     13  C   UNL     1      31.503 -11.926 -20.695  0.00  0.00    +0.001 C 
ATOM     14  C   UNL     1      31.353  -4.595 -22.560  0.00  0.00    +0.012 C 
ATOM     15  C   UNL     1      31.588 -11.437 -19.399  0.00  0.00    +0.001 C 
ENDROOT
BRANCH   3  16
ATOM     16  C   UNL     1      32.343  -9.387 -24.014  0.00  0.00    +0.093 C 
BRANCH  16  17
ATOM     17  C   UNL     1      33.847  -9.299 -24.281  0.00  0.00    -0.001 C 
BRANCH  17  18
ATOM     18  C   UNL     1      34.553 -10.652 -24.169  0.00  0.00    -0.076 C 
BRANCH  18  19
ATOM     19  N   UNL     1      33.754 -11.735 -24.737  0.00  0.00    +0.384 N 
ATOM     20  N   UNL     1      33.438 -14.334 -25.964  0.00  0.00    +0.383 N 
ATOM     21  C   UNL     1      33.922 -12.970 -23.961  0.00  0.00    -0.101 C 
ATOM     22  C   UNL     1      34.108 -11.961 -26.144  0.00  0.00    -0.101 C 
ATOM     23  C   UNL     1      33.084 -14.107 -24.558  0.00  0.00    -0.101 C 
ATOM     24  C   UNL     1      33.272 -13.099 -26.741  0.00  0.00    -0.101 C 
ATOM     25  C   UNL     1      32.637 -15.416 -26.532  0.00  0.00    -0.101 C 
ATOM     26  H   UNL     1      32.773 -11.459 -24.693  0.00  0.00    -0.080 HD
ATOM     27  H   UNL     1      34.419 -14.612 -26.009  0.00  0.00    -0.080 HD
ENDBRANCH  18  19
ENDBRANCH  17  18
ENDBRANCH  16  17
ENDBRANCH   3  16
TORSDOF 4
ENDMDL
MODEL 2
REMARK VINA RESULT:      -9.0      3.918      6.016
REMARK  Name = 4917
REMARK  4 active torsions:
REMARK  status: ('A' for Active; 'I' for Inactive)
REMARK    1  A    between atoms: N_3  and  C_16
REMARK    2  A    between atoms: C_16  and  C_17
REMARK    3  A    between atoms: C_17  and  C_18
REMARK    4  A    between atoms: C_18  and  N_19
REMARK                            x       y       z     vdW  Elec       q    Type
REMARK                         _______ _______ _______ _____ _____    ______ ____
ROOT
ATOM      1 CL   UNL     1      32.986 -15.781 -26.613  0.00  0.00    -0.082 Cl
ATOM      2  S   UNL     1      33.383 -10.245 -23.648  0.00  0.00    -0.084 S 
ATOM      3  N   UNL     1      32.686 -12.953 -22.287  0.00  0.00    -0.286 N 
ATOM      4  C   UNL     1      32.932 -13.011 -23.682  0.00  0.00    +0.058 C 
ATOM      5  C   UNL     1      32.298 -11.789 -21.576  0.00  0.00    +0.058 C 
ATOM      6  C   UNL     1      33.235 -11.846 -24.415  0.00  0.00    +0.043 C 
ATOM      7  C   UNL     1      32.538 -10.503 -22.100  0.00  0.00    +0.043 C 
ATOM      8  C   UNL     1      32.852 -14.221 -24.405  0.00  0.00    +0.027 C 
ATOM      9  C   UNL     1      31.627 -11.859 -20.335  0.00  0.00    +0.015 C 
ATOM     10  C   UNL     1      33.470 -11.908 -25.800  0.00  0.00    +0.009 C 
ATOM     11  C   UNL     1      32.145  -9.353 -21.394  0.00  0.00    +0.008 C 
ATOM     12  C   UNL     1      33.082 -14.277 -25.783  0.00  0.00    +0.059 C 
ATOM     13  C   UNL     1      31.233 -10.713 -19.640  0.00  0.00    +0.001 C 
ATOM     14  C   UNL     1      33.394 -13.119 -26.480  0.00  0.00    +0.012 C 
ATOM     15  C   UNL     1      31.495  -9.457 -20.168  0.00  0.00    +0.001 C 
ENDROOT
BRANCH   3  16
ATOM     16  C   UNL     1      32.774 -14.209 -21.531  0.00  0.00    +0.093 C 
BRANCH  16  17
ATOM     17  C   UNL     1      34.202 -14.424 -21.027  0.00  0.00    -0.001 C 
BRANCH  17  18
ATOM     18  C   UNL     1      34.479 -15.872 -20.616  0.00  0.00    -0.076 C 
BRANCH  18  19
ATOM     19  N   UNL     1      34.271 -16.803 -21.722  0.00  0.00    +0.384 N 
ATOM     20  N   UNL     1      35.154 -18.829 -23.586  0.00  0.00    +0.383 N 
ATOM     21  C   UNL     1      34.505 -18.187 -21.291  0.00  0.00    -0.101 C 
ATOM     22  C   UNL     1      35.138 -16.467 -22.858  0.00  0.00    -0.101 C 
ATOM     23  C   UNL     1      34.287 -19.164 -22.451  0.00  0.00    -0.101 C 
ATOM     24  C   UNL     1      34.923 -17.445 -24.018  0.00  0.00    -0.101 C 
ATOM     25  C   UNL     1      34.944 -19.760 -24.693  0.00  0.00    -0.101 C 
ATOM     26  H   UNL     1      33.300 -16.721 -22.025  0.00  0.00    -0.080 HD
ATOM     27  H   UNL     1      36.125 -18.913 -23.285  0.00  0.00    -0.080 HD
ENDBRANCH  18  19
ENDBRANCH  17  18
ENDBRANCH  16  17
ENDBRANCH   3  16
TORSDOF 4
ENDMDL
MODEL 3
REMARK VINA RESULT:      -8.9     12.013     14.796
REMARK  Name = 4917
REMARK  4 active torsions:
REMARK  status: ('A' for Active; 'I' for Inactive)
REMARK    1  A    between atoms: N_3  and  C_16
REMARK    2  A    between atoms: C_16  and  C_17
REMARK    3  A    between atoms: C_17  and  C_18
REMARK    4  A    between atoms: C_18  and  N_19
REMARK                            x       y       z     vdW  Elec       q    Type
REMARK                         _______ _______ _______ _____ _____    ______ ____
ROOT
ATOM      1 CL   UNL     1      38.330 -22.786 -16.114  0.00  0.00    -0.082 Cl
ATOM      2  S   UNL     1      32.742 -24.213 -13.596  0.00  0.00    -0.084 S 
ATOM      3  N   UNL     1      33.211 -23.421 -16.566  0.00  0.00    -0.286 N 
ATOM      4  C   UNL     1      34.369 -23.458 -15.749  0.00  0.00    +0.058 C 
ATOM      5  C   UNL     1      31.884 -23.269 -16.091  0.00  0.00    +0.058 C 
ATOM      6  C   UNL     1      34.282 -23.781 -14.380  0.00  0.00    +0.043 C 
ATOM      7  C   UNL     1      31.550 -23.573 -14.757  0.00  0.00    +0.043 C 
ATOM      8  C   UNL     1      35.650 -23.142 -16.253  0.00  0.00    +0.027 C 
ATOM      9  C   UNL     1      30.846 -22.777 -16.914  0.00  0.00    +0.015 C 
ATOM     10  C   UNL     1      35.434 -23.808 -13.572  0.00  0.00    +0.009 C 
ATOM     11  C   UNL     1      30.234 -23.415 -14.289  0.00  0.00    +0.008 C 
ATOM     12  C   UNL     1      36.791 -23.166 -15.445  0.00  0.00    +0.059 C 
ATOM     13  C   UNL     1      29.541 -22.617 -16.443  0.00  0.00    +0.001 C 
ATOM     14  C   UNL     1      36.682 -23.503 -14.104  0.00  0.00    +0.012 C 
ATOM     15  C   UNL     1      29.233 -22.939 -15.129  0.00  0.00    +0.001 C 
ENDROOT
BRANCH   3  16
ATOM     16  C   UNL     1      33.407 -23.474 -18.020  0.00  0.00    +0.093 C 
BRANCH  16  17
ATOM     17  C   UNL     1      33.505 -22.058 -18.592  0.00  0.00    -0.001 C 
BRANCH  17  18
ATOM     18  C   UNL     1      34.771 -21.836 -19.424  0.00  0.00    -0.076 C 
BRANCH  18  19
ATOM     19  N   UNL     1      34.884 -20.456 -19.889  0.00  0.00    +0.384 N 
ATOM     20  N   UNL     1      35.114 -18.444 -21.952  0.00  0.00    +0.383 N 
ATOM     21  C   UNL     1      33.738 -20.094 -20.733  0.00  0.00    -0.101 C 
ATOM     22  C   UNL     1      36.142 -20.254 -20.619  0.00  0.00    -0.101 C 
ATOM     23  C   UNL     1      33.857 -18.646 -21.221  0.00  0.00    -0.101 C 
ATOM     24  C   UNL     1      36.261 -18.807 -21.110  0.00  0.00    -0.101 C 
ATOM     25  C   UNL     1      35.228 -17.062 -22.416  0.00  0.00    -0.101 C 
ATOM     26  H   UNL     1      34.886 -19.847 -19.071  0.00  0.00    -0.080 HD
ATOM     27  H   UNL     1      35.112 -19.051 -22.771  0.00  0.00    -0.080 HD
ENDBRANCH  18  19
ENDBRANCH  17  18
ENDBRANCH  16  17
ENDBRANCH   3  16
TORSDOF 4
ENDMDL
MODEL 4
REMARK VINA RESULT:      -8.8     14.208     16.539
REMARK  Name = 4917
REMARK  4 active torsions:
REMARK  status: ('A' for Active; 'I' for Inactive)
REMARK    1  A    between atoms: N_3  and  C_16
REMARK    2  A    between atoms: C_16  and  C_17
REMARK    3  A    between atoms: C_17  and  C_18
REMARK    4  A    between atoms: C_18  and  N_19
REMARK                            x       y       z     vdW  Elec       q    Type
REMARK                         _______ _______ _______ _____ _____    ______ ____
ROOT
ATOM      1 CL   UNL     1      33.328 -21.841 -19.586  0.00  0.00    -0.082 Cl
ATOM      2  S   UNL     1      37.751 -23.010 -15.266  0.00  0.00    -0.084 S 
ATOM      3  N   UNL     1      34.762 -23.833 -15.027  0.00  0.00    -0.286 N 
ATOM      4  C   UNL     1      35.119 -23.149 -16.217  0.00  0.00    +0.058 C 
ATOM      5  C   UNL     1      35.485 -23.778 -13.808  0.00  0.00    +0.058 C 
ATOM      6  C   UNL     1      36.439 -22.704 -16.431  0.00  0.00    +0.043 C 
ATOM      7  C   UNL     1      36.840 -23.396 -13.783  0.00  0.00    +0.043 C 
ATOM      8  C   UNL     1      34.171 -22.851 -17.221  0.00  0.00    +0.027 C 
ATOM      9  C   UNL     1      34.878 -24.066 -12.565  0.00  0.00    +0.015 C 
ATOM     10  C   UNL     1      36.785 -22.019 -17.609  0.00  0.00    +0.009 C 
ATOM     11  C   UNL     1      37.550 -23.336 -12.571  0.00  0.00    +0.008 C 
ATOM     12  C   UNL     1      34.520 -22.165 -18.388  0.00  0.00    +0.059 C 
ATOM     13  C   UNL     1      35.586 -24.001 -11.363  0.00  0.00    +0.001 C 
ATOM     14  C   UNL     1      35.829 -21.752 -18.584  0.00  0.00    +0.012 C 
ATOM     15  C   UNL     1      36.926 -23.639 -11.366  0.00  0.00    +0.001 C 
ENDROOT
BRANCH   3  16
ATOM     16  C   UNL     1      33.512 -24.602 -15.038  0.00  0.00    +0.093 C 
BRANCH  16  17
ATOM     17  C   UNL     1      32.422 -23.849 -14.273  0.00  0.00    -0.001 C 
BRANCH  17  18
ATOM     18  C   UNL     1      31.213 -24.725 -13.937  0.00  0.00    -0.076 C 
BRANCH  18  19
ATOM     19  N   UNL     1      29.995 -24.250 -14.589  0.00  0.00    +0.384 N 
ATOM     20  N   UNL     1      28.563 -22.943 -16.734  0.00  0.00    +0.383 N 
ATOM     21  C   UNL     1      29.813 -24.901 -15.892  0.00  0.00    -0.101 C 
ATOM     22  C   UNL     1      30.023 -22.790 -14.745  0.00  0.00    -0.101 C 
ATOM     23  C   UNL     1      28.536 -24.402 -16.577  0.00  0.00    -0.101 C 
ATOM     24  C   UNL     1      28.748 -22.290 -15.432  0.00  0.00    -0.101 C 
ATOM     25  C   UNL     1      27.344 -22.467 -17.385  0.00  0.00    -0.101 C 
ATOM     26  H   UNL     1      29.203 -24.494 -13.994  0.00  0.00    -0.080 HD
ATOM     27  H   UNL     1      29.354 -22.698 -17.330  0.00  0.00    -0.080 HD
ENDBRANCH  18  19
ENDBRANCH  17  18
ENDBRANCH  16  17
ENDBRANCH   3  16
TORSDOF 4
ENDMDL
MODEL 5
REMARK VINA RESULT:      -8.7      3.450      7.425
REMARK  Name = 4917
REMARK  4 active torsions:
REMARK  status: ('A' for Active; 'I' for Inactive)
REMARK    1  A    between atoms: N_3  and  C_16
REMARK    2  A    between atoms: C_16  and  C_17
REMARK    3  A    between atoms: C_17  and  C_18
REMARK    4  A    between atoms: C_18  and  N_19
REMARK                            x       y       z     vdW  Elec       q    Type
REMARK                         _______ _______ _______ _____ _____    ______ ____
ROOT
ATOM      1 CL   UNL     1      34.222  -9.779 -24.714  0.00  0.00    -0.082 Cl
ATOM      2  S   UNL     1      33.343 -15.899 -25.883  0.00  0.00    -0.084 S 
ATOM      3  N   UNL     1      34.205 -14.712 -23.142  0.00  0.00    -0.286 N 
ATOM      4  C   UNL     1      33.999 -13.772 -24.182  0.00  0.00    +0.058 C 
ATOM      5  C   UNL     1      34.488 -16.089 -23.333  0.00  0.00    +0.058 C 
ATOM      6  C   UNL     1      33.628 -14.189 -25.476  0.00  0.00    +0.043 C 
ATOM      7  C   UNL     1      34.167 -16.736 -24.542  0.00  0.00    +0.043 C 
ATOM      8  C   UNL     1      34.186 -12.386 -23.984  0.00  0.00    +0.027 C 
ATOM      9  C   UNL     1      35.132 -16.864 -22.343  0.00  0.00    +0.015 C 
ATOM     10  C   UNL     1      33.433 -13.252 -26.506  0.00  0.00    +0.009 C 
ATOM     11  C   UNL     1      34.456 -18.099 -24.729  0.00  0.00    +0.008 C 
ATOM     12  C   UNL     1      33.995 -11.459 -25.013  0.00  0.00    +0.059 C 
ATOM     13  C   UNL     1      35.422 -18.217 -22.536  0.00  0.00    +0.001 C 
ATOM     14  C   UNL     1      33.615 -11.892 -26.274  0.00  0.00    +0.012 C 
ATOM     15  C   UNL     1      35.081 -18.837 -23.729  0.00  0.00    +0.001 C 
ENDROOT
BRANCH   3  16
ATOM     16  C   UNL     1      34.193 -14.210 -21.762  0.00  0.00    +0.093 C 
BRANCH  16  17
ATOM     17  C   UNL     1      32.821 -14.446 -21.126  0.00  0.00    -0.001 C 
BRANCH  17  18
ATOM     18  C   UNL     1      31.783 -13.400 -21.539  0.00  0.00    -0.076 C 
BRANCH  18  19
ATOM     19  N   UNL     1      32.185 -12.049 -21.152  0.00  0.00    +0.384 N 
ATOM     20  N   UNL     1      31.631  -9.324 -20.362  0.00  0.00    +0.383 N 
ATOM     21  C   UNL     1      31.707 -11.729 -19.802  0.00  0.00    -0.101 C 
ATOM     22  C   UNL     1      31.689 -11.062 -22.119  0.00  0.00    -0.101 C 
ATOM     23  C   UNL     1      32.128 -10.312 -19.396  0.00  0.00    -0.101 C 
ATOM     24  C   UNL     1      32.107  -9.644 -21.713  0.00  0.00    -0.101 C 
ATOM     25  C   UNL     1      32.035  -7.973 -19.976  0.00  0.00    -0.101 C 
ATOM     26  H   UNL     1      33.204 -12.012 -21.150  0.00  0.00    -0.080 HD
ATOM     27  H   UNL     1      30.612  -9.359 -20.363  0.00  0.00    -0.080 HD
ENDBRANCH  18  19
ENDBRANCH  17  18
ENDBRANCH  16  17
ENDBRANCH   3  16
TORSDOF 4
ENDMDL
MODEL 6
REMARK VINA RESULT:      -8.3      3.141      6.992
REMARK  Name = 4917
REMARK  4 active torsions:
REMARK  status: ('A' for Active; 'I' for Inactive)
REMARK    1  A    between atoms: N_3  and  C_16
REMARK    2  A    between atoms: C_16  and  C_17
REMARK    3  A    between atoms: C_17  and  C_18
REMARK    4  A    between atoms: C_18  and  N_19
REMARK                            x       y       z     vdW  Elec       q    Type
REMARK                         _______ _______ _______ _____ _____    ______ ____
ROOT
ATOM      1 CL   UNL     1      30.535 -10.952 -20.932  0.00  0.00    -0.082 Cl
ATOM      2  S   UNL     1      34.454 -15.867 -21.226  0.00  0.00    -0.084 S 
ATOM      3  N   UNL     1      33.468 -14.222 -23.673  0.00  0.00    -0.286 N 
ATOM      4  C   UNL     1      32.980 -13.799 -22.411  0.00  0.00    +0.058 C 
ATOM      5  C   UNL     1      33.963 -15.519 -23.962  0.00  0.00    +0.058 C 
ATOM      6  C   UNL     1      33.338 -14.479 -21.229  0.00  0.00    +0.043 C 
ATOM      7  C   UNL     1      34.417 -16.370 -22.935  0.00  0.00    +0.043 C 
ATOM      8  C   UNL     1      32.094 -12.708 -22.280  0.00  0.00    +0.027 C 
ATOM      9  C   UNL     1      33.992 -16.033 -25.278  0.00  0.00    +0.015 C 
ATOM     10  C   UNL     1      32.844 -14.060 -19.981  0.00  0.00    +0.009 C 
ATOM     11  C   UNL     1      34.900 -17.657 -23.226  0.00  0.00    +0.008 C 
ATOM     12  C   UNL     1      31.602 -12.298 -21.037  0.00  0.00    +0.059 C 
ATOM     13  C   UNL     1      34.467 -17.315 -25.562  0.00  0.00    +0.001 C 
ATOM     14  C   UNL     1      31.981 -12.973 -19.886  0.00  0.00    +0.012 C 
ATOM     15  C   UNL     1      34.926 -18.128 -24.535  0.00  0.00    +0.001 C 
ENDROOT
BRANCH   3  16
ATOM     16  C   UNL     1      33.392 -13.265 -24.783  0.00  0.00    +0.093 C 
BRANCH  16  17
ATOM     17  C   UNL     1      34.289 -12.058 -24.503  0.00  0.00    -0.001 C 
BRANCH  17  18
ATOM     18  C   UNL     1      33.679 -10.737 -24.977  0.00  0.00    -0.076 C 
BRANCH  18  19
ATOM     19  N   UNL     1      33.458  -9.809 -23.870  0.00  0.00    +0.384 N 
ATOM     20  N   UNL     1      32.736  -7.233 -22.772  0.00  0.00    +0.383 N 
ATOM     21  C   UNL     1      32.061  -9.357 -23.839  0.00  0.00    -0.101 C 
ATOM     22  C   UNL     1      34.366  -8.659 -23.964  0.00  0.00    -0.101 C 
ATOM     23  C   UNL     1      31.829  -8.383 -22.678  0.00  0.00    -0.101 C 
ATOM     24  C   UNL     1      34.133  -7.684 -22.805  0.00  0.00    -0.101 C 
ATOM     25  C   UNL     1      32.516  -6.306 -21.664  0.00  0.00    -0.101 C 
ATOM     26  H   UNL     1      33.655 -10.303 -23.000  0.00  0.00    -0.080 HD
ATOM     27  H   UNL     1      32.539  -6.737 -23.641  0.00  0.00    -0.080 HD
ENDBRANCH  18  19
ENDBRANCH  17  18
ENDBRANCH  16  17
ENDBRANCH   3  16
TORSDOF 4
ENDMDL
MODEL 7
REMARK VINA RESULT:      -8.3     13.119     15.752
REMARK  Name = 4917
REMARK  4 active torsions:
REMARK  status: ('A' for Active; 'I' for Inactive)
REMARK    1  A    between atoms: N_3  and  C_16
REMARK    2  A    between atoms: C_16  and  C_17
REMARK    3  A    between atoms: C_17  and  C_18
REMARK    4  A    between atoms: C_18  and  N_19
REMARK                            x       y       z     vdW  Elec       q    Type
REMARK                         _______ _______ _______ _____ _____    ______ ____
ROOT
ATOM      1 CL   UNL     1      31.086 -22.739 -16.390  0.00  0.00    -0.082 Cl
ATOM      2  S   UNL     1      35.686 -24.891 -12.675  0.00  0.00    -0.084 S 
ATOM      3  N   UNL     1      36.112 -23.150 -15.215  0.00  0.00    -0.286 N 
ATOM      4  C   UNL     1      34.765 -23.457 -14.899  0.00  0.00    +0.058 C 
ATOM      5  C   UNL     1      37.240 -23.892 -14.781  0.00  0.00    +0.058 C 
ATOM      6  C   UNL     1      34.445 -24.258 -13.784  0.00  0.00    +0.043 C 
ATOM      7  C   UNL     1      37.166 -24.736 -13.656  0.00  0.00    +0.043 C 
ATOM      8  C   UNL     1      33.689 -23.009 -15.697  0.00  0.00    +0.027 C 
ATOM      9  C   UNL     1      38.473 -23.850 -15.470  0.00  0.00    +0.015 C 
ATOM     10  C   UNL     1      33.107 -24.567 -13.480  0.00  0.00    +0.009 C 
ATOM     11  C   UNL     1      38.286 -25.474 -13.234  0.00  0.00    +0.008 C 
ATOM     12  C   UNL     1      32.361 -23.323 -15.392  0.00  0.00    +0.059 C 
ATOM     13  C   UNL     1      39.581 -24.589 -15.050  0.00  0.00    +0.001 C 
ATOM     14  C   UNL     1      32.070 -24.099 -14.280  0.00  0.00    +0.012 C 
ATOM     15  C   UNL     1      39.489 -25.400 -13.928  0.00  0.00    +0.001 C 
ENDROOT
BRANCH   3  16
ATOM     16  C   UNL     1      36.354 -22.018 -16.118  0.00  0.00    +0.093 C 
BRANCH  16  17
ATOM     17  C   UNL     1      35.887 -22.362 -17.534  0.00  0.00    -0.001 C 
BRANCH  17  18
ATOM     18  C   UNL     1      36.766 -21.740 -18.621  0.00  0.00    -0.076 C 
BRANCH  18  19
ATOM     19  N   UNL     1      36.086 -20.649 -19.316  0.00  0.00    +0.384 N 
ATOM     20  N   UNL     1      35.004 -19.376 -21.675  0.00  0.00    +0.383 N 
ATOM     21  C   UNL     1      34.840 -21.121 -19.933  0.00  0.00    -0.101 C 
ATOM     22  C   UNL     1      36.964 -20.048 -20.328  0.00  0.00    -0.101 C 
ATOM     23  C   UNL     1      34.127 -19.977 -20.663  0.00  0.00    -0.101 C 
ATOM     24  C   UNL     1      36.251 -18.906 -21.059  0.00  0.00    -0.101 C 
ATOM     25  C   UNL     1      34.323 -18.284 -22.369  0.00  0.00    -0.101 C 
ATOM     26  H   UNL     1      35.853 -19.934 -18.627  0.00  0.00    -0.080 HD
ATOM     27  H   UNL     1      35.236 -20.090 -22.365  0.00  0.00    -0.080 HD
ENDBRANCH  18  19
ENDBRANCH  17  18
ENDBRANCH  16  17
ENDBRANCH   3  16
TORSDOF 4
ENDMDL
MODEL 8
REMARK VINA RESULT:      -8.2      3.170      7.171
REMARK  Name = 4917
REMARK  4 active torsions:
REMARK  status: ('A' for Active; 'I' for Inactive)
REMARK    1  A    between atoms: N_3  and  C_16
REMARK    2  A    between atoms: C_16  and  C_17
REMARK    3  A    between atoms: C_17  and  C_18
REMARK    4  A    between atoms: C_18  and  N_19
REMARK                            x       y       z     vdW  Elec       q    Type
REMARK                         _______ _______ _______ _____ _____    ______ ____
ROOT
ATOM      1 CL   UNL     1      34.221  -9.302 -24.255  0.00  0.00    -0.082 Cl
ATOM      2  S   UNL     1      33.344 -15.250 -26.111  0.00  0.00    -0.084 S 
ATOM      3  N   UNL     1      33.901 -14.358 -23.185  0.00  0.00    -0.286 N 
ATOM      4  C   UNL     1      33.842 -13.316 -24.145  0.00  0.00    +0.058 C 
ATOM      5  C   UNL     1      34.173 -15.719 -23.476  0.00  0.00    +0.058 C 
ATOM      6  C   UNL     1      33.619 -13.597 -25.508  0.00  0.00    +0.043 C 
ATOM      7  C   UNL     1      33.982 -16.238 -24.771  0.00  0.00    +0.043 C 
ATOM      8  C   UNL     1      34.037 -11.963 -23.793  0.00  0.00    +0.027 C 
ATOM      9  C   UNL     1      34.677 -16.606 -22.499  0.00  0.00    +0.015 C 
ATOM     10  C   UNL     1      33.569 -12.560 -26.458  0.00  0.00    +0.009 C 
ATOM     11  C   UNL     1      34.259 -17.586 -25.056  0.00  0.00    +0.008 C 
ATOM     12  C   UNL     1      33.991 -10.937 -24.741  0.00  0.00    +0.059 C 
ATOM     13  C   UNL     1      34.956 -17.944 -22.787  0.00  0.00    +0.001 C 
ATOM     14  C   UNL     1      33.754 -11.236 -26.075  0.00  0.00    +0.012 C 
ATOM     15  C   UNL     1      34.744 -18.437 -24.067  0.00  0.00    +0.001 C 
ENDROOT
BRANCH   3  16
ATOM     16  C   UNL     1      33.737 -13.987 -21.774  0.00  0.00    +0.093 C 
BRANCH  16  17
ATOM     17  C   UNL     1      32.259 -13.749 -21.459  0.00  0.00    -0.001 C 
BRANCH  17  18
ATOM     18  C   UNL     1      32.044 -12.935 -20.181  0.00  0.00    -0.076 C 
BRANCH  18  19
ATOM     19  N   UNL     1      31.615 -11.569 -20.469  0.00  0.00    +0.384 N 
ATOM     20  N   UNL     1      32.068  -8.866 -21.391  0.00  0.00    +0.383 N 
ATOM     21  C   UNL     1      31.763 -11.265 -21.898  0.00  0.00    -0.101 C 
ATOM     22  C   UNL     1      32.370 -10.604 -19.659  0.00  0.00    -0.101 C 
ATOM     23  C   UNL     1      31.314  -9.831 -22.199  0.00  0.00    -0.101 C 
ATOM     24  C   UNL     1      31.923  -9.170 -19.962  0.00  0.00    -0.101 C 
ATOM     25  C   UNL     1      31.637  -7.499 -21.678  0.00  0.00    -0.101 C 
ATOM     26  H   UNL     1      30.628 -11.490 -20.224  0.00  0.00    -0.080 HD
ATOM     27  H   UNL     1      33.055  -8.942 -21.636  0.00  0.00    -0.080 HD
ENDBRANCH  18  19
ENDBRANCH  17  18
ENDBRANCH  16  17
ENDBRANCH   3  16
TORSDOF 4
ENDMDL
MODEL 9
REMARK VINA RESULT:      -8.1      2.622      6.787
REMARK  Name = 4917
REMARK  4 active torsions:
REMARK  status: ('A' for Active; 'I' for Inactive)
REMARK    1  A    between atoms: N_3  and  C_16
REMARK    2  A    between atoms: C_16  and  C_17
REMARK    3  A    between atoms: C_17  and  C_18
REMARK    4  A    between atoms: C_18  and  N_19
REMARK                            x       y       z     vdW  Elec       q    Type
REMARK                         _______ _______ _______ _____ _____    ______ ____
ROOT
ATOM      1 CL   UNL     1      30.951 -10.058 -19.529  0.00  0.00    -0.082 Cl
ATOM      2  S   UNL     1      33.553 -14.705 -22.880  0.00  0.00    -0.084 S 
ATOM      3  N   UNL     1      33.022 -11.828 -23.932  0.00  0.00    -0.286 N 
ATOM      4  C   UNL     1      32.640 -12.072 -22.588  0.00  0.00    +0.058 C 
ATOM      5  C   UNL     1      33.186 -12.826 -24.926  0.00  0.00    +0.058 C 
ATOM      6  C   UNL     1      32.810 -13.343 -22.005  0.00  0.00    +0.043 C 
ATOM      7  C   UNL     1      33.409 -14.172 -24.574  0.00  0.00    +0.043 C 
ATOM      8  C   UNL     1      32.046 -11.072 -21.787  0.00  0.00    +0.027 C 
ATOM      9  C   UNL     1      33.101 -12.530 -26.304  0.00  0.00    +0.015 C 
ATOM     10  C   UNL     1      32.422 -13.582 -20.674  0.00  0.00    +0.009 C 
ATOM     11  C   UNL     1      33.566 -15.158 -25.563  0.00  0.00    +0.008 C 
ATOM     12  C   UNL     1      31.658 -11.316 -20.466  0.00  0.00    +0.059 C 
ATOM     13  C   UNL     1      33.252 -13.515 -27.284  0.00  0.00    +0.001 C 
ATOM     14  C   UNL     1      31.850 -12.571 -19.908  0.00  0.00    +0.012 C 
ATOM     15  C   UNL     1      33.488 -14.831 -26.913  0.00  0.00    +0.001 C 
ENDROOT
BRANCH   3  16
ATOM     16  C   UNL     1      33.192 -10.429 -24.344  0.00  0.00    +0.093 C 
BRANCH  16  17
ATOM     17  C   UNL     1      34.641  -9.988 -24.128  0.00  0.00    -0.001 C 
BRANCH  17  18
ATOM     18  C   UNL     1      34.768  -8.500 -23.791  0.00  0.00    -0.076 C 
BRANCH  18  19
ATOM     19  N   UNL     1      33.482  -7.910 -23.429  0.00  0.00    +0.384 N 
ATOM     20  N   UNL     1      31.830  -5.802 -22.341  0.00  0.00    +0.383 N 
ATOM     21  C   UNL     1      33.256  -6.660 -24.167  0.00  0.00    -0.101 C 
ATOM     22  C   UNL     1      33.406  -7.672 -21.982  0.00  0.00    -0.101 C 
ATOM     23  C   UNL     1      31.906  -6.040 -23.787  0.00  0.00    -0.101 C 
ATOM     24  C   UNL     1      32.058  -7.050 -21.602  0.00  0.00    -0.101 C 
ATOM     25  C   UNL     1      30.542  -5.212 -21.979  0.00  0.00    -0.101 C 
ATOM     26  H   UNL     1      32.749  -8.571 -23.685  0.00  0.00    -0.080 HD
ATOM     27  H   UNL     1      32.561  -5.139 -22.084  0.00  0.00    -0.080 HD
ENDBRANCH  18  19
ENDBRANCH  17  18
ENDBRANCH  16  17
ENDBRANCH   3  16
TORSDOF 4
ENDMDL
