MODEL 1
REMARK VINA RESULT:      -7.4      0.000      0.000
REMARK  Name = 16143
REMARK  7 active torsions:
REMARK  status: ('A' for Active; 'I' for Inactive)
REMARK    1  A    between atoms: C_1  and  C_9
REMARK    2  A    between atoms: C_6  and  O_7
REMARK    3  A    between atoms: C_9  and  C_10
REMARK    4  A    between atoms: C_10  and  C_11
REMARK    5  A    between atoms: C_11  and  C_12
REMARK    6  A    between atoms: C_12  and  C_13
REMARK    7  A    between atoms: C_13  and  C_14
REMARK                            x       y       z     vdW  Elec       q    Type
REMARK                         _______ _______ _______ _____ _____    ______ ____
ROOT
ATOM      1  C   UNL     1      34.940 -19.534 -21.176  0.00  0.00    -0.022 C 
ATOM      2  C   UNL     1      35.622 -20.506 -20.458  0.00  0.00    -0.001 C 
ATOM      3  C   UNL     1      33.560 -19.428 -21.108  0.00  0.00    -0.001 C 
ATOM      4  C   UNL     1      34.905 -21.392 -19.655  0.00  0.00    +0.036 C 
ATOM      5  C   UNL     1      32.844 -20.313 -20.304  0.00  0.00    +0.036 C 
ATOM      6  C   UNL     1      33.516 -21.296 -19.577  0.00  0.00    +0.134 C 
ENDROOT
BRANCH   6   7
ATOM      7  O   UNL     1      32.817 -22.160 -18.792  0.00  0.00    -0.506 OA
ATOM      8  H   UNL     1      33.082 -23.057 -18.732  0.00  0.00    +0.292 HD
ENDBRANCH   6   7
BRANCH   1   9
ATOM      9  C   UNL     1      35.716 -18.575 -22.045  0.00  0.00    +0.026 C 
BRANCH   9  10
ATOM     10  C   UNL     1      35.375 -18.673 -23.536  0.00  0.00    +0.005 C 
BRANCH  10  11
ATOM     11  C   UNL     1      34.841 -17.359 -24.116  0.00  0.00    +0.000 C 
BRANCH  11  12
ATOM     12  C   UNL     1      35.071 -16.194 -23.151  0.00  0.00    +0.000 C 
BRANCH  12  13
ATOM     13  C   UNL     1      33.775 -15.428 -22.885  0.00  0.00    +0.000 C 
BRANCH  13  14
ATOM     14  C   UNL     1      33.313 -15.601 -21.438  0.00  0.00    +0.000 C 
ATOM     15  C   UNL     1      34.463 -15.421 -20.461  0.00  0.00    +0.000 C 
ENDBRANCH  13  14
ENDBRANCH  12  13
ENDBRANCH  11  12
ENDBRANCH  10  11
ENDBRANCH   9  10
ENDBRANCH   1   9
TORSDOF 7
ENDMDL
MODEL 2
REMARK VINA RESULT:      -7.4      0.141      1.299
REMARK  Name = 16143
REMARK  7 active torsions:
REMARK  status: ('A' for Active; 'I' for Inactive)
REMARK    1  A    between atoms: C_1  and  C_9
REMARK    2  A    between atoms: C_6  and  O_7
REMARK    3  A    between atoms: C_9  and  C_10
REMARK    4  A    between atoms: C_10  and  C_11
REMARK    5  A    between atoms: C_11  and  C_12
REMARK    6  A    between atoms: C_12  and  C_13
REMARK    7  A    between atoms: C_13  and  C_14
REMARK                            x       y       z     vdW  Elec       q    Type
REMARK                         _______ _______ _______ _____ _____    ______ ____
ROOT
ATOM      1  C   UNL     1      34.992 -19.464 -21.207  0.00  0.00    -0.022 C 
ATOM      2  C   UNL     1      33.609 -19.356 -21.186  0.00  0.00    -0.001 C 
ATOM      3  C   UNL     1      35.647 -20.433 -20.463  0.00  0.00    -0.001 C 
ATOM      4  C   UNL     1      32.866 -20.236 -20.401  0.00  0.00    +0.036 C 
ATOM      5  C   UNL     1      34.903 -21.315 -19.679  0.00  0.00    +0.036 C 
ATOM      6  C   UNL     1      33.512 -21.216 -19.648  0.00  0.00    +0.134 C 
ENDROOT
BRANCH   6   7
ATOM      7  O   UNL     1      32.786 -22.076 -18.882  0.00  0.00    -0.506 OA
ATOM      8  H   UNL     1      32.456 -21.797 -18.050  0.00  0.00    +0.292 HD
ENDBRANCH   6   7
BRANCH   1   9
ATOM      9  C   UNL     1      35.796 -18.513 -22.057  0.00  0.00    +0.026 C 
BRANCH   9  10
ATOM     10  C   UNL     1      35.436 -18.554 -23.546  0.00  0.00    +0.005 C 
BRANCH  10  11
ATOM     11  C   UNL     1      34.911 -17.215 -24.073  0.00  0.00    +0.000 C 
BRANCH  11  12
ATOM     12  C   UNL     1      34.988 -16.128 -22.998  0.00  0.00    +0.000 C 
BRANCH  12  13
ATOM     13  C   UNL     1      33.638 -15.435 -22.811  0.00  0.00    +0.000 C 
BRANCH  13  14
ATOM     14  C   UNL     1      33.262 -15.340 -21.332  0.00  0.00    +0.000 C 
ATOM     15  C   UNL     1      34.487 -15.446 -20.438  0.00  0.00    +0.000 C 
ENDBRANCH  13  14
ENDBRANCH  12  13
ENDBRANCH  11  12
ENDBRANCH  10  11
ENDBRANCH   9  10
ENDBRANCH   1   9
TORSDOF 7
ENDMDL
MODEL 3
REMARK VINA RESULT:      -7.0      1.568      2.297
REMARK  Name = 16143
REMARK  7 active torsions:
REMARK  status: ('A' for Active; 'I' for Inactive)
REMARK    1  A    between atoms: C_1  and  C_9
REMARK    2  A    between atoms: C_6  and  O_7
REMARK    3  A    between atoms: C_9  and  C_10
REMARK    4  A    between atoms: C_10  and  C_11
REMARK    5  A    between atoms: C_11  and  C_12
REMARK    6  A    between atoms: C_12  and  C_13
REMARK    7  A    between atoms: C_13  and  C_14
REMARK                            x       y       z     vdW  Elec       q    Type
REMARK                         _______ _______ _______ _____ _____    ______ ____
ROOT
ATOM      1  C   UNL     1      34.677 -19.509 -20.894  0.00  0.00    -0.022 C 
ATOM      2  C   UNL     1      35.851 -20.119 -20.477  0.00  0.00    -0.001 C 
ATOM      3  C   UNL     1      33.438 -20.027 -20.552  0.00  0.00    -0.001 C 
ATOM      4  C   UNL     1      35.782 -21.274 -19.700  0.00  0.00    +0.036 C 
ATOM      5  C   UNL     1      33.370 -21.182 -19.774  0.00  0.00    +0.036 C 
ATOM      6  C   UNL     1      34.542 -21.807 -19.348  0.00  0.00    +0.134 C 
ENDROOT
BRANCH   6   7
ATOM      7  O   UNL     1      34.476 -22.934 -18.589  0.00  0.00    -0.506 OA
ATOM      8  H   UNL     1      33.808 -23.022 -17.938  0.00  0.00    +0.292 HD
ENDBRANCH   6   7
BRANCH   1   9
ATOM      9  C   UNL     1      34.751 -18.258 -21.734  0.00  0.00    +0.026 C 
BRANCH   9  10
ATOM     10  C   UNL     1      35.619 -18.403 -22.989  0.00  0.00    +0.005 C 
BRANCH  10  11
ATOM     11  C   UNL     1      34.902 -19.127 -24.133  0.00  0.00    +0.000 C 
BRANCH  11  12
ATOM     12  C   UNL     1      34.207 -18.135 -25.066  0.00  0.00    +0.000 C 
BRANCH  12  13
ATOM     13  C   UNL     1      34.858 -16.753 -24.995  0.00  0.00    +0.000 C 
BRANCH  13  14
ATOM     14  C   UNL     1      33.812 -15.653 -24.822  0.00  0.00    +0.000 C 
ATOM     15  C   UNL     1      33.084 -15.366 -26.126  0.00  0.00    +0.000 C 
ENDBRANCH  13  14
ENDBRANCH  12  13
ENDBRANCH  11  12
ENDBRANCH  10  11
ENDBRANCH   9  10
ENDBRANCH   1   9
TORSDOF 7
ENDMDL
MODEL 4
REMARK VINA RESULT:      -7.0      1.118      2.518
REMARK  Name = 16143
REMARK  7 active torsions:
REMARK  status: ('A' for Active; 'I' for Inactive)
REMARK    1  A    between atoms: C_1  and  C_9
REMARK    2  A    between atoms: C_6  and  O_7
REMARK    3  A    between atoms: C_9  and  C_10
REMARK    4  A    between atoms: C_10  and  C_11
REMARK    5  A    between atoms: C_11  and  C_12
REMARK    6  A    between atoms: C_12  and  C_13
REMARK    7  A    between atoms: C_13  and  C_14
REMARK                            x       y       z     vdW  Elec       q    Type
REMARK                         _______ _______ _______ _____ _____    ______ ____
ROOT
ATOM      1  C   UNL     1      34.493 -20.040 -20.762  0.00  0.00    -0.022 C 
ATOM      2  C   UNL     1      33.286 -20.515 -20.269  0.00  0.00    -0.001 C 
ATOM      3  C   UNL     1      35.700 -20.585 -20.354  0.00  0.00    -0.001 C 
ATOM      4  C   UNL     1      33.289 -21.560 -19.346  0.00  0.00    +0.036 C 
ATOM      5  C   UNL     1      35.702 -21.631 -19.431  0.00  0.00    +0.036 C 
ATOM      6  C   UNL     1      34.496 -22.118 -18.926  0.00  0.00    +0.134 C 
ENDROOT
BRANCH   6   7
ATOM      7  O   UNL     1      34.498 -23.138 -18.025  0.00  0.00    -0.506 OA
ATOM      8  H   UNL     1      34.837 -23.977 -18.269  0.00  0.00    +0.292 HD
ENDBRANCH   6   7
BRANCH   1   9
ATOM      9  C   UNL     1      34.490 -18.911 -21.762  0.00  0.00    +0.026 C 
BRANCH   9  10
ATOM     10  C   UNL     1      35.492 -17.796 -21.442  0.00  0.00    +0.005 C 
BRANCH  10  11
ATOM     11  C   UNL     1      34.819 -16.501 -20.976  0.00  0.00    +0.000 C 
BRANCH  11  12
ATOM     12  C   UNL     1      33.921 -15.919 -22.069  0.00  0.00    +0.000 C 
BRANCH  12  13
ATOM     13  C   UNL     1      34.737 -15.490 -23.289  0.00  0.00    +0.000 C 
BRANCH  13  14
ATOM     14  C   UNL     1      34.062 -15.923 -24.590  0.00  0.00    +0.000 C 
ATOM     15  C   UNL     1      34.566 -17.280 -25.055  0.00  0.00    +0.000 C 
ENDBRANCH  13  14
ENDBRANCH  12  13
ENDBRANCH  11  12
ENDBRANCH  10  11
ENDBRANCH   9  10
ENDBRANCH   1   9
TORSDOF 7
ENDMDL
MODEL 5
REMARK VINA RESULT:      -6.8      2.945      5.808
REMARK  Name = 16143
REMARK  7 active torsions:
REMARK  status: ('A' for Active; 'I' for Inactive)
REMARK    1  A    between atoms: C_1  and  C_9
REMARK    2  A    between atoms: C_6  and  O_7
REMARK    3  A    between atoms: C_9  and  C_10
REMARK    4  A    between atoms: C_10  and  C_11
REMARK    5  A    between atoms: C_11  and  C_12
REMARK    6  A    between atoms: C_12  and  C_13
REMARK    7  A    between atoms: C_13  and  C_14
REMARK                            x       y       z     vdW  Elec       q    Type
REMARK                         _______ _______ _______ _____ _____    ______ ____
ROOT
ATOM      1  C   UNL     1      34.231 -15.818 -21.763  0.00  0.00    -0.022 C 
ATOM      2  C   UNL     1      34.040 -15.291 -23.032  0.00  0.00    -0.001 C 
ATOM      3  C   UNL     1      33.552 -15.313 -20.666  0.00  0.00    -0.001 C 
ATOM      4  C   UNL     1      33.150 -14.232 -23.205  0.00  0.00    +0.036 C 
ATOM      5  C   UNL     1      32.660 -14.255 -20.840  0.00  0.00    +0.036 C 
ATOM      6  C   UNL     1      32.459 -13.714 -22.110  0.00  0.00    +0.134 C 
ENDROOT
BRANCH   6   7
ATOM      7  O   UNL     1      31.590 -12.681 -22.280  0.00  0.00    -0.506 OA
ATOM      8  H   UNL     1      30.698 -12.853 -22.511  0.00  0.00    +0.292 HD
ENDBRANCH   6   7
BRANCH   1   9
ATOM      9  C   UNL     1      35.194 -16.964 -21.576  0.00  0.00    +0.026 C 
BRANCH   9  10
ATOM     10  C   UNL     1      35.218 -17.952 -22.747  0.00  0.00    +0.005 C 
BRANCH  10  11
ATOM     11  C   UNL     1      34.497 -19.268 -22.436  0.00  0.00    +0.000 C 
BRANCH  11  12
ATOM     12  C   UNL     1      34.395 -19.500 -20.927  0.00  0.00    +0.000 C 
BRANCH  12  13
ATOM     13  C   UNL     1      33.064 -20.154 -20.554  0.00  0.00    +0.000 C 
BRANCH  13  14
ATOM     14  C   UNL     1      33.260 -21.265 -19.522  0.00  0.00    +0.000 C 
ATOM     15  C   UNL     1      34.718 -21.683 -19.423  0.00  0.00    +0.000 C 
ENDBRANCH  13  14
ENDBRANCH  12  13
ENDBRANCH  11  12
ENDBRANCH  10  11
ENDBRANCH   9  10
ENDBRANCH   1   9
TORSDOF 7
ENDMDL
MODEL 6
REMARK VINA RESULT:      -6.6      2.964      5.994
REMARK  Name = 16143
REMARK  7 active torsions:
REMARK  status: ('A' for Active; 'I' for Inactive)
REMARK    1  A    between atoms: C_1  and  C_9
REMARK    2  A    between atoms: C_6  and  O_7
REMARK    3  A    between atoms: C_9  and  C_10
REMARK    4  A    between atoms: C_10  and  C_11
REMARK    5  A    between atoms: C_11  and  C_12
REMARK    6  A    between atoms: C_12  and  C_13
REMARK    7  A    between atoms: C_13  and  C_14
REMARK                            x       y       z     vdW  Elec       q    Type
REMARK                         _______ _______ _______ _____ _____    ______ ____
ROOT
ATOM      1  C   UNL     1      34.745 -17.325 -23.772  0.00  0.00    -0.022 C 
ATOM      2  C   UNL     1      34.438 -17.176 -25.116  0.00  0.00    -0.001 C 
ATOM      3  C   UNL     1      34.466 -16.322 -22.856  0.00  0.00    -0.001 C 
ATOM      4  C   UNL     1      33.839 -15.995 -25.554  0.00  0.00    +0.036 C 
ATOM      5  C   UNL     1      33.866 -15.142 -23.294  0.00  0.00    +0.036 C 
ATOM      6  C   UNL     1      33.553 -14.978 -24.643  0.00  0.00    +0.134 C 
ENDROOT
BRANCH   6   7
ATOM      7  O   UNL     1      32.968 -13.826 -25.071  0.00  0.00    -0.506 OA
ATOM      8  H   UNL     1      32.846 -13.675 -25.988  0.00  0.00    +0.292 HD
ENDBRANCH   6   7
BRANCH   1   9
ATOM      9  C   UNL     1      35.392 -18.602 -23.298  0.00  0.00    +0.026 C 
BRANCH   9  10
ATOM     10  C   UNL     1      35.899 -18.543 -21.853  0.00  0.00    +0.005 C 
BRANCH  10  11
ATOM     11  C   UNL     1      35.275 -19.615 -20.954  0.00  0.00    +0.000 C 
BRANCH  11  12
ATOM     12  C   UNL     1      33.754 -19.658 -21.117  0.00  0.00    +0.000 C 
BRANCH  12  13
ATOM     13  C   UNL     1      33.107 -20.560 -20.065  0.00  0.00    +0.000 C 
BRANCH  13  14
ATOM     14  C   UNL     1      34.116 -21.551 -19.486  0.00  0.00    +0.000 C 
ATOM     15  C   UNL     1      33.463 -22.491 -18.485  0.00  0.00    +0.000 C 
ENDBRANCH  13  14
ENDBRANCH  12  13
ENDBRANCH  11  12
ENDBRANCH  10  11
ENDBRANCH   9  10
ENDBRANCH   1   9
TORSDOF 7
ENDMDL
MODEL 7
REMARK VINA RESULT:      -6.6      3.035      6.117
REMARK  Name = 16143
REMARK  7 active torsions:
REMARK  status: ('A' for Active; 'I' for Inactive)
REMARK    1  A    between atoms: C_1  and  C_9
REMARK    2  A    between atoms: C_6  and  O_7
REMARK    3  A    between atoms: C_9  and  C_10
REMARK    4  A    between atoms: C_10  and  C_11
REMARK    5  A    between atoms: C_11  and  C_12
REMARK    6  A    between atoms: C_12  and  C_13
REMARK    7  A    between atoms: C_13  and  C_14
REMARK                            x       y       z     vdW  Elec       q    Type
REMARK                         _______ _______ _______ _____ _____    ______ ____
ROOT
ATOM      1  C   UNL     1      34.501 -16.089 -22.881  0.00  0.00    -0.022 C 
ATOM      2  C   UNL     1      33.713 -14.983 -23.166  0.00  0.00    -0.001 C 
ATOM      3  C   UNL     1      34.903 -16.961 -23.881  0.00  0.00    -0.001 C 
ATOM      4  C   UNL     1      33.317 -14.746 -24.482  0.00  0.00    +0.036 C 
ATOM      5  C   UNL     1      34.508 -16.722 -25.197  0.00  0.00    +0.036 C 
ATOM      6  C   UNL     1      33.714 -15.615 -25.498  0.00  0.00    +0.134 C 
ENDROOT
BRANCH   6   7
ATOM      7  O   UNL     1      33.328 -15.383 -26.782  0.00  0.00    -0.506 OA
ATOM      8  H   UNL     1      33.743 -15.842 -27.486  0.00  0.00    +0.292 HD
ENDBRANCH   6   7
BRANCH   1   9
ATOM      9  C   UNL     1      34.930 -16.345 -21.458  0.00  0.00    +0.026 C 
BRANCH   9  10
ATOM     10  C   UNL     1      35.021 -17.832 -21.095  0.00  0.00    +0.005 C 
BRANCH  10  11
ATOM     11  C   UNL     1      33.653 -18.515 -21.023  0.00  0.00    +0.000 C 
BRANCH  11  12
ATOM     12  C   UNL     1      33.788 -20.037 -21.112  0.00  0.00    +0.000 C 
BRANCH  12  13
ATOM     13  C   UNL     1      33.184 -20.721 -19.885  0.00  0.00    +0.000 C 
BRANCH  13  14
ATOM     14  C   UNL     1      34.101 -21.822 -19.353  0.00  0.00    +0.000 C 
ATOM     15  C   UNL     1      35.565 -21.421 -19.447  0.00  0.00    +0.000 C 
ENDBRANCH  13  14
ENDBRANCH  12  13
ENDBRANCH  11  12
ENDBRANCH  10  11
ENDBRANCH   9  10
ENDBRANCH   1   9
TORSDOF 7
ENDMDL
MODEL 8
REMARK VINA RESULT:      -6.5      1.748      2.659
REMARK  Name = 16143
REMARK  7 active torsions:
REMARK  status: ('A' for Active; 'I' for Inactive)
REMARK    1  A    between atoms: C_1  and  C_9
REMARK    2  A    between atoms: C_6  and  O_7
REMARK    3  A    between atoms: C_9  and  C_10
REMARK    4  A    between atoms: C_10  and  C_11
REMARK    5  A    between atoms: C_11  and  C_12
REMARK    6  A    between atoms: C_12  and  C_13
REMARK    7  A    between atoms: C_13  and  C_14
REMARK                            x       y       z     vdW  Elec       q    Type
REMARK                         _______ _______ _______ _____ _____    ______ ____
ROOT
ATOM      1  C   UNL     1      35.003 -18.661 -23.126  0.00  0.00    -0.022 C 
ATOM      2  C   UNL     1      34.206 -19.382 -22.250  0.00  0.00    -0.001 C 
ATOM      3  C   UNL     1      36.323 -18.368 -22.821  0.00  0.00    -0.001 C 
ATOM      4  C   UNL     1      34.742 -19.818 -21.039  0.00  0.00    +0.036 C 
ATOM      5  C   UNL     1      36.859 -18.806 -21.610  0.00  0.00    +0.036 C 
ATOM      6  C   UNL     1      36.068 -19.530 -20.718  0.00  0.00    +0.134 C 
ENDROOT
BRANCH   6   7
ATOM      7  O   UNL     1      36.591 -19.957 -19.536  0.00  0.00    -0.506 OA
ATOM      8  H   UNL     1      36.743 -19.344 -18.843  0.00  0.00    +0.292 HD
ENDBRANCH   6   7
BRANCH   1   9
ATOM      9  C   UNL     1      34.424 -18.191 -24.437  0.00  0.00    +0.026 C 
BRANCH   9  10
ATOM     10  C   UNL     1      34.892 -16.793 -24.856  0.00  0.00    +0.005 C 
BRANCH  10  11
ATOM     11  C   UNL     1      33.887 -15.693 -24.498  0.00  0.00    +0.000 C 
BRANCH  11  12
ATOM     12  C   UNL     1      34.237 -15.038 -23.160  0.00  0.00    +0.000 C 
BRANCH  12  13
ATOM     13  C   UNL     1      33.002 -14.904 -22.268  0.00  0.00    +0.000 C 
BRANCH  13  14
ATOM     14  C   UNL     1      33.352 -15.122 -20.796  0.00  0.00    +0.000 C 
ATOM     15  C   UNL     1      34.656 -15.887 -20.641  0.00  0.00    +0.000 C 
ENDBRANCH  13  14
ENDBRANCH  12  13
ENDBRANCH  11  12
ENDBRANCH  10  11
ENDBRANCH   9  10
ENDBRANCH   1   9
TORSDOF 7
ENDMDL
MODEL 9
REMARK VINA RESULT:      -6.4      3.520      7.131
REMARK  Name = 16143
REMARK  7 active torsions:
REMARK  status: ('A' for Active; 'I' for Inactive)
REMARK    1  A    between atoms: C_1  and  C_9
REMARK    2  A    between atoms: C_6  and  O_7
REMARK    3  A    between atoms: C_9  and  C_10
REMARK    4  A    between atoms: C_10  and  C_11
REMARK    5  A    between atoms: C_11  and  C_12
REMARK    6  A    between atoms: C_12  and  C_13
REMARK    7  A    between atoms: C_13  and  C_14
REMARK                            x       y       z     vdW  Elec       q    Type
REMARK                         _______ _______ _______ _____ _____    ______ ____
ROOT
ATOM      1  C   UNL     1      34.175 -21.471 -19.574  0.00  0.00    -0.022 C 
ATOM      2  C   UNL     1      32.996 -20.828 -19.919  0.00  0.00    -0.001 C 
ATOM      3  C   UNL     1      35.404 -21.000 -20.010  0.00  0.00    -0.001 C 
ATOM      4  C   UNL     1      33.048 -19.689 -20.722  0.00  0.00    +0.036 C 
ATOM      5  C   UNL     1      35.455 -19.860 -20.812  0.00  0.00    +0.036 C 
ATOM      6  C   UNL     1      34.277 -19.205 -21.168  0.00  0.00    +0.134 C 
ENDROOT
BRANCH   6   7
ATOM      7  O   UNL     1      34.327 -18.093 -21.951  0.00  0.00    -0.506 OA
ATOM      8  H   UNL     1      34.058 -18.139 -22.848  0.00  0.00    +0.292 HD
ENDBRANCH   6   7
BRANCH   1   9
ATOM      9  C   UNL     1      34.120 -22.702 -18.704  0.00  0.00    +0.026 C 
BRANCH   9  10
ATOM     10  C   UNL     1      32.893 -22.759 -17.787  0.00  0.00    +0.005 C 
BRANCH  10  11
ATOM     11  C   UNL     1      33.212 -23.313 -16.394  0.00  0.00    +0.000 C 
BRANCH  11  12
ATOM     12  C   UNL     1      31.940 -23.492 -15.564  0.00  0.00    +0.000 C 
BRANCH  12  13
ATOM     13  C   UNL     1      30.715 -22.944 -16.300  0.00  0.00    +0.000 C 
BRANCH  13  14
ATOM     14  C   UNL     1      29.467 -23.773 -15.996  0.00  0.00    +0.000 C 
ATOM     15  C   UNL     1      28.318 -23.410 -16.923  0.00  0.00    +0.000 C 
ENDBRANCH  13  14
ENDBRANCH  12  13
ENDBRANCH  11  12
ENDBRANCH  10  11
ENDBRANCH   9  10
ENDBRANCH   1   9
TORSDOF 7
ENDMDL
