MODEL 1
REMARK VINA RESULT:      -7.7      0.000      0.000
REMARK  Name = 6089
REMARK  3 active torsions:
REMARK  status: ('A' for Active; 'I' for Inactive)
REMARK    1  A    between atoms: C_2  and  C_11
REMARK    2  A    between atoms: C_11  and  C_12
REMARK    3  A    between atoms: C_12  and  N_13
REMARK                            x       y       z     vdW  Elec       q    Type
REMARK                         _______ _______ _______ _____ _____    ______ ____
ROOT
ATOM      1  N   UNL     1      36.860 -20.032 -20.186  0.00  0.00    -0.312 N 
ATOM      2  C   UNL     1      35.268 -18.970 -21.310  0.00  0.00    -0.008 C 
ATOM      3  C   UNL     1      34.662 -20.019 -20.566  0.00  0.00    +0.011 C 
ATOM      4  C   UNL     1      35.681 -20.670 -19.869  0.00  0.00    +0.048 C 
ATOM      5  C   UNL     1      36.620 -19.003 -21.056  0.00  0.00    +0.057 C 
ATOM      6  C   UNL     1      33.338 -20.481 -20.417  0.00  0.00    +0.001 C 
ATOM      7  C   UNL     1      35.444 -21.764 -19.028  0.00  0.00    +0.015 C 
ATOM      8  C   UNL     1      33.085 -21.572 -19.579  0.00  0.00    +0.000 C 
ATOM      9  C   UNL     1      34.123 -22.203 -18.896  0.00  0.00    +0.001 C 
ATOM     10  H   UNL     1      37.747 -20.280 -19.837  0.00  0.00    +0.152 HD
ENDROOT
BRANCH   2  11
ATOM     11  C   UNL     1      34.581 -18.011 -22.199  0.00  0.00    +0.005 C 
BRANCH  11  12
ATOM     12  C   UNL     1      35.207 -17.941 -23.605  0.00  0.00    -0.073 C 
BRANCH  12  13
ATOM     13  N   UNL     1      35.196 -16.583 -24.138  0.00  0.00    +0.384 N 
ATOM     14  C   UNL     1      34.805 -15.627 -23.101  0.00  0.00    -0.101 C 
ATOM     15  C   UNL     1      34.294 -16.487 -25.285  0.00  0.00    -0.101 C 
ATOM     16  H   UNL     1      36.141 -16.355 -24.449  0.00  0.00    -0.080 HD
ENDBRANCH  12  13
ENDBRANCH  11  12
ENDBRANCH   2  11
TORSDOF 3
ENDMDL
MODEL 2
REMARK VINA RESULT:      -7.6      1.369      2.065
REMARK  Name = 6089
REMARK  3 active torsions:
REMARK  status: ('A' for Active; 'I' for Inactive)
REMARK    1  A    between atoms: C_2  and  C_11
REMARK    2  A    between atoms: C_11  and  C_12
REMARK    3  A    between atoms: C_12  and  N_13
REMARK                            x       y       z     vdW  Elec       q    Type
REMARK                         _______ _______ _______ _____ _____    ______ ____
ROOT
ATOM      1  N   UNL     1      32.684 -20.378 -20.604  0.00  0.00    -0.312 N 
ATOM      2  C   UNL     1      34.606 -19.476 -21.253  0.00  0.00    -0.008 C 
ATOM      3  C   UNL     1      34.886 -20.451 -20.256  0.00  0.00    +0.011 C 
ATOM      4  C   UNL     1      33.664 -21.002 -19.866  0.00  0.00    +0.048 C 
ATOM      5  C   UNL     1      33.243 -19.454 -21.445  0.00  0.00    +0.057 C 
ATOM      6  C   UNL     1      36.066 -20.920 -19.644  0.00  0.00    +0.001 C 
ATOM      7  C   UNL     1      33.562 -22.001 -18.891  0.00  0.00    +0.015 C 
ATOM      8  C   UNL     1      35.980 -21.919 -18.669  0.00  0.00    +0.000 C 
ATOM      9  C   UNL     1      34.746 -22.451 -18.299  0.00  0.00    +0.001 C 
ATOM     10  H   UNL     1      31.720 -20.567 -20.538  0.00  0.00    +0.152 HD
ENDROOT
BRANCH   2  11
ATOM     11  C   UNL     1      35.591 -18.633 -21.960  0.00  0.00    +0.005 C 
BRANCH  11  12
ATOM     12  C   UNL     1      35.309 -18.519 -23.470  0.00  0.00    -0.073 C 
BRANCH  12  13
ATOM     13  N   UNL     1      35.453 -17.148 -23.948  0.00  0.00    +0.384 N 
ATOM     14  C   UNL     1      35.019 -16.198 -22.922  0.00  0.00    -0.101 C 
ATOM     15  C   UNL     1      34.691 -16.949 -25.180  0.00  0.00    -0.101 C 
ATOM     16  H   UNL     1      36.440 -16.981 -24.146  0.00  0.00    -0.080 HD
ENDBRANCH  12  13
ENDBRANCH  11  12
ENDBRANCH   2  11
TORSDOF 3
ENDMDL
MODEL 3
REMARK VINA RESULT:      -7.2      1.377      5.704
REMARK  Name = 6089
REMARK  3 active torsions:
REMARK  status: ('A' for Active; 'I' for Inactive)
REMARK    1  A    between atoms: C_2  and  C_11
REMARK    2  A    between atoms: C_11  and  C_12
REMARK    3  A    between atoms: C_12  and  N_13
REMARK                            x       y       z     vdW  Elec       q    Type
REMARK                         _______ _______ _______ _____ _____    ______ ____
ROOT
ATOM      1  N   UNL     1      35.325 -17.324 -24.023  0.00  0.00    -0.312 N 
ATOM      2  C   UNL     1      35.482 -18.305 -22.039  0.00  0.00    -0.008 C 
ATOM      3  C   UNL     1      35.047 -16.966 -21.840  0.00  0.00    +0.011 C 
ATOM      4  C   UNL     1      34.956 -16.372 -23.100  0.00  0.00    +0.048 C 
ATOM      5  C   UNL     1      35.645 -18.495 -23.392  0.00  0.00    +0.057 C 
ATOM      6  C   UNL     1      34.721 -16.197 -20.704  0.00  0.00    +0.001 C 
ATOM      7  C   UNL     1      34.555 -15.043 -23.283  0.00  0.00    +0.015 C 
ATOM      8  C   UNL     1      34.317 -14.868 -20.871  0.00  0.00    +0.000 C 
ATOM      9  C   UNL     1      34.236 -14.302 -22.142  0.00  0.00    +0.001 C 
ATOM     10  H   UNL     1      35.355 -17.184 -24.998  0.00  0.00    +0.152 HD
ENDROOT
BRANCH   2  11
ATOM     11  C   UNL     1      35.720 -19.318 -20.991  0.00  0.00    +0.005 C 
BRANCH  11  12
ATOM     12  C   UNL     1      34.451 -20.107 -20.619  0.00  0.00    -0.073 C 
BRANCH  12  13
ATOM     13  N   UNL     1      34.771 -21.394 -20.010  0.00  0.00    +0.384 N 
ATOM     14  C   UNL     1      33.664 -21.854 -19.170  0.00  0.00    -0.101 C 
ATOM     15  C   UNL     1      36.001 -21.302 -19.225  0.00  0.00    -0.101 C 
ATOM     16  H   UNL     1      34.914 -22.074 -20.758  0.00  0.00    -0.080 HD
ENDBRANCH  12  13
ENDBRANCH  11  12
ENDBRANCH   2  11
TORSDOF 3
ENDMDL
MODEL 4
REMARK VINA RESULT:      -7.2      1.877      5.708
REMARK  Name = 6089
REMARK  3 active torsions:
REMARK  status: ('A' for Active; 'I' for Inactive)
REMARK    1  A    between atoms: C_2  and  C_11
REMARK    2  A    between atoms: C_11  and  C_12
REMARK    3  A    between atoms: C_12  and  N_13
REMARK                            x       y       z     vdW  Elec       q    Type
REMARK                         _______ _______ _______ _____ _____    ______ ____
ROOT
ATOM      1  N   UNL     1      33.942 -15.558 -24.542  0.00  0.00    -0.312 N 
ATOM      2  C   UNL     1      34.899 -17.017 -23.172  0.00  0.00    -0.008 C 
ATOM      3  C   UNL     1      34.186 -16.071 -22.386  0.00  0.00    +0.011 C 
ATOM      4  C   UNL     1      33.593 -15.166 -23.269  0.00  0.00    +0.048 C 
ATOM      5  C   UNL     1      34.731 -16.675 -24.494  0.00  0.00    +0.057 C 
ATOM      6  C   UNL     1      33.985 -15.895 -21.001  0.00  0.00    +0.001 C 
ATOM      7  C   UNL     1      32.809 -14.091 -22.837  0.00  0.00    +0.015 C 
ATOM      8  C   UNL     1      33.202 -14.825 -20.555  0.00  0.00    +0.000 C 
ATOM      9  C   UNL     1      32.624 -13.938 -21.460  0.00  0.00    +0.001 C 
ATOM     10  H   UNL     1      33.664 -15.101 -25.369  0.00  0.00    +0.152 HD
ENDROOT
BRANCH   2  11
ATOM     11  C   UNL     1      35.684 -18.164 -22.671  0.00  0.00    +0.005 C 
BRANCH  11  12
ATOM     12  C   UNL     1      34.818 -19.405 -22.384  0.00  0.00    -0.073 C 
BRANCH  12  13
ATOM     13  N   UNL     1      34.486 -19.520 -20.968  0.00  0.00    +0.384 N 
ATOM     14  C   UNL     1      35.317 -20.539 -20.326  0.00  0.00    -0.101 C 
ATOM     15  C   UNL     1      33.068 -19.836 -20.795  0.00  0.00    -0.101 C 
ATOM     16  H   UNL     1      34.674 -18.621 -20.522  0.00  0.00    -0.080 HD
ENDBRANCH  12  13
ENDBRANCH  11  12
ENDBRANCH   2  11
TORSDOF 3
ENDMDL
MODEL 5
REMARK VINA RESULT:      -7.1      1.397      5.669
REMARK  Name = 6089
REMARK  3 active torsions:
REMARK  status: ('A' for Active; 'I' for Inactive)
REMARK    1  A    between atoms: C_2  and  C_11
REMARK    2  A    between atoms: C_11  and  C_12
REMARK    3  A    between atoms: C_12  and  N_13
REMARK                            x       y       z     vdW  Elec       q    Type
REMARK                         _______ _______ _______ _____ _____    ______ ____
ROOT
ATOM      1  N   UNL     1      34.874 -16.292 -21.753  0.00  0.00    -0.312 N 
ATOM      2  C   UNL     1      35.275 -18.458 -21.481  0.00  0.00    -0.008 C 
ATOM      3  C   UNL     1      34.945 -18.235 -22.846  0.00  0.00    +0.011 C 
ATOM      4  C   UNL     1      34.698 -16.868 -22.991  0.00  0.00    +0.048 C 
ATOM      5  C   UNL     1      35.223 -17.244 -20.834  0.00  0.00    +0.057 C 
ATOM      6  C   UNL     1      34.831 -19.067 -23.978  0.00  0.00    +0.001 C 
ATOM      7  C   UNL     1      34.341 -16.290 -24.215  0.00  0.00    +0.015 C 
ATOM      8  C   UNL     1      34.476 -18.504 -25.208  0.00  0.00    +0.000 C 
ATOM      9  C   UNL     1      34.235 -17.136 -25.323  0.00  0.00    +0.001 C 
ATOM     10  H   UNL     1      34.765 -15.333 -21.557  0.00  0.00    +0.152 HD
ENDROOT
BRANCH   2  11
ATOM     11  C   UNL     1      35.614 -19.753 -20.857  0.00  0.00    +0.005 C 
BRANCH  11  12
ATOM     12  C   UNL     1      34.394 -20.457 -20.235  0.00  0.00    -0.073 C 
BRANCH  12  13
ATOM     13  N   UNL     1      34.750 -21.748 -19.655  0.00  0.00    +0.384 N 
ATOM     14  C   UNL     1      33.646 -22.270 -18.848  0.00  0.00    -0.101 C 
ATOM     15  C   UNL     1      35.962 -21.632 -18.844  0.00  0.00    -0.101 C 
ATOM     16  H   UNL     1      34.931 -22.401 -20.417  0.00  0.00    -0.080 HD
ENDBRANCH  12  13
ENDBRANCH  11  12
ENDBRANCH   2  11
TORSDOF 3
ENDMDL
MODEL 6
REMARK VINA RESULT:      -7.1      3.122      4.682
REMARK  Name = 6089
REMARK  3 active torsions:
REMARK  status: ('A' for Active; 'I' for Inactive)
REMARK    1  A    between atoms: C_2  and  C_11
REMARK    2  A    between atoms: C_11  and  C_12
REMARK    3  A    between atoms: C_12  and  N_13
REMARK                            x       y       z     vdW  Elec       q    Type
REMARK                         _______ _______ _______ _____ _____    ______ ____
ROOT
ATOM      1  N   UNL     1      35.144 -17.707 -20.966  0.00  0.00    -0.312 N 
ATOM      2  C   UNL     1      34.519 -15.776 -21.863  0.00  0.00    -0.008 C 
ATOM      3  C   UNL     1      34.569 -16.751 -22.897  0.00  0.00    +0.011 C 
ATOM      4  C   UNL     1      34.963 -17.954 -22.309  0.00  0.00    +0.048 C 
ATOM      5  C   UNL     1      34.878 -16.394 -20.687  0.00  0.00    +0.057 C 
ATOM      6  C   UNL     1      34.315 -16.726 -24.284  0.00  0.00    +0.001 C 
ATOM      7  C   UNL     1      35.118 -19.138 -23.039  0.00  0.00    +0.015 C 
ATOM      8  C   UNL     1      34.465 -17.902 -25.026  0.00  0.00    +0.000 C 
ATOM      9  C   UNL     1      34.861 -19.089 -24.412  0.00  0.00    +0.001 C 
ATOM     10  H   UNL     1      35.424 -18.378 -20.302  0.00  0.00    +0.152 HD
ENDROOT
BRANCH   2  11
ATOM     11  C   UNL     1      34.150 -14.353 -22.012  0.00  0.00    +0.005 C 
BRANCH  11  12
ATOM     12  C   UNL     1      32.636 -14.108 -21.878  0.00  0.00    -0.073 C 
BRANCH  12  13
ATOM     13  N   UNL     1      32.153 -13.142 -22.858  0.00  0.00    +0.384 N 
ATOM     14  C   UNL     1      33.149 -12.935 -23.910  0.00  0.00    -0.101 C 
ATOM     15  C   UNL     1      31.825 -11.871 -22.211  0.00  0.00    -0.101 C 
ATOM     16  H   UNL     1      31.305 -13.516 -23.285  0.00  0.00    -0.080 HD
ENDBRANCH  12  13
ENDBRANCH  11  12
ENDBRANCH   2  11
TORSDOF 3
ENDMDL
MODEL 7
REMARK VINA RESULT:      -7.1      3.072      4.859
REMARK  Name = 6089
REMARK  3 active torsions:
REMARK  status: ('A' for Active; 'I' for Inactive)
REMARK    1  A    between atoms: C_2  and  C_11
REMARK    2  A    between atoms: C_11  and  C_12
REMARK    3  A    between atoms: C_12  and  N_13
REMARK                            x       y       z     vdW  Elec       q    Type
REMARK                         _______ _______ _______ _____ _____    ______ ____
ROOT
ATOM      1  N   UNL     1      34.633 -15.652 -20.744  0.00  0.00    -0.312 N 
ATOM      2  C   UNL     1      34.272 -14.963 -22.823  0.00  0.00    -0.008 C 
ATOM      3  C   UNL     1      34.668 -16.328 -22.870  0.00  0.00    +0.011 C 
ATOM      4  C   UNL     1      34.888 -16.737 -21.553  0.00  0.00    +0.048 C 
ATOM      5  C   UNL     1      34.261 -14.576 -21.502  0.00  0.00    +0.057 C 
ATOM      6  C   UNL     1      34.861 -17.260 -23.910  0.00  0.00    +0.001 C 
ATOM      7  C   UNL     1      35.294 -18.035 -21.223  0.00  0.00    +0.015 C 
ATOM      8  C   UNL     1      35.265 -18.561 -23.595  0.00  0.00    +0.000 C 
ATOM      9  C   UNL     1      35.478 -18.942 -22.271  0.00  0.00    +0.001 C 
ATOM     10  H   UNL     1      34.708 -15.651 -19.762  0.00  0.00    +0.152 HD
ENDROOT
BRANCH   2  11
ATOM     11  C   UNL     1      33.933 -14.105 -23.976  0.00  0.00    +0.005 C 
BRANCH  11  12
ATOM     12  C   UNL     1      33.560 -12.668 -23.566  0.00  0.00    -0.073 C 
BRANCH  12  13
ATOM     13  N   UNL     1      34.246 -11.674 -24.385  0.00  0.00    +0.384 N 
ATOM     14  C   UNL     1      33.915 -10.321 -23.937  0.00  0.00    -0.101 C 
ATOM     15  C   UNL     1      33.900 -11.841 -25.797  0.00  0.00    -0.101 C 
ATOM     16  H   UNL     1      35.252 -11.813 -24.280  0.00  0.00    -0.080 HD
ENDBRANCH  12  13
ENDBRANCH  11  12
ENDBRANCH   2  11
TORSDOF 3
ENDMDL
MODEL 8
REMARK VINA RESULT:      -7.0      2.870      4.825
REMARK  Name = 6089
REMARK  3 active torsions:
REMARK  status: ('A' for Active; 'I' for Inactive)
REMARK    1  A    between atoms: C_2  and  C_11
REMARK    2  A    between atoms: C_11  and  C_12
REMARK    3  A    between atoms: C_12  and  N_13
REMARK                            x       y       z     vdW  Elec       q    Type
REMARK                         _______ _______ _______ _____ _____    ______ ____
ROOT
ATOM      1  N   UNL     1      34.445 -17.300 -25.143  0.00  0.00    -0.312 N 
ATOM      2  C   UNL     1      34.297 -15.572 -23.758  0.00  0.00    -0.008 C 
ATOM      3  C   UNL     1      34.611 -16.729 -22.993  0.00  0.00    +0.011 C 
ATOM      4  C   UNL     1      34.699 -17.800 -23.886  0.00  0.00    +0.048 C 
ATOM      5  C   UNL     1      34.201 -15.955 -25.076  0.00  0.00    +0.057 C 
ATOM      6  C   UNL     1      34.830 -16.972 -21.622  0.00  0.00    +0.001 C 
ATOM      7  C   UNL     1      34.995 -19.105 -23.475  0.00  0.00    +0.015 C 
ATOM      8  C   UNL     1      35.128 -18.270 -21.197  0.00  0.00    +0.000 C 
ATOM      9  C   UNL     1      35.209 -19.320 -22.110  0.00  0.00    +0.001 C 
ATOM     10  H   UNL     1      34.439 -17.833 -25.971  0.00  0.00    +0.152 HD
ENDROOT
BRANCH   2  11
ATOM     11  C   UNL     1      34.105 -14.202 -23.241  0.00  0.00    +0.005 C 
BRANCH  11  12
ATOM     12  C   UNL     1      32.711 -13.630 -23.561  0.00  0.00    -0.073 C 
BRANCH  12  13
ATOM     13  N   UNL     1      31.980 -13.271 -22.350  0.00  0.00    +0.384 N 
ATOM     14  C   UNL     1      31.879 -11.817 -22.223  0.00  0.00    -0.101 C 
ATOM     15  C   UNL     1      32.628 -13.842 -21.169  0.00  0.00    -0.101 C 
ATOM     16  H   UNL     1      31.038 -13.656 -22.421  0.00  0.00    -0.080 HD
ENDBRANCH  12  13
ENDBRANCH  11  12
ENDBRANCH   2  11
TORSDOF 3
ENDMDL
MODEL 9
REMARK VINA RESULT:      -7.0      2.873      4.820
REMARK  Name = 6089
REMARK  3 active torsions:
REMARK  status: ('A' for Active; 'I' for Inactive)
REMARK    1  A    between atoms: C_2  and  C_11
REMARK    2  A    between atoms: C_11  and  C_12
REMARK    3  A    between atoms: C_12  and  N_13
REMARK                            x       y       z     vdW  Elec       q    Type
REMARK                         _______ _______ _______ _____ _____    ______ ____
ROOT
ATOM      1  N   UNL     1      34.390 -17.294 -25.122  0.00  0.00    -0.312 N 
ATOM      2  C   UNL     1      34.323 -15.547 -23.755  0.00  0.00    -0.008 C 
ATOM      3  C   UNL     1      34.639 -16.701 -22.986  0.00  0.00    +0.011 C 
ATOM      4  C   UNL     1      34.676 -17.784 -23.868  0.00  0.00    +0.048 C 
ATOM      5  C   UNL     1      34.175 -15.943 -25.065  0.00  0.00    +0.057 C 
ATOM      6  C   UNL     1      34.899 -16.931 -21.620  0.00  0.00    +0.001 C 
ATOM      7  C   UNL     1      34.959 -19.089 -23.450  0.00  0.00    +0.015 C 
ATOM      8  C   UNL     1      35.185 -18.230 -21.188  0.00  0.00    +0.000 C 
ATOM      9  C   UNL     1      35.214 -19.292 -22.091  0.00  0.00    +0.001 C 
ATOM     10  H   UNL     1      34.346 -17.836 -25.943  0.00  0.00    +0.152 HD
ENDROOT
BRANCH   2  11
ATOM     11  C   UNL     1      34.176 -14.167 -23.250  0.00  0.00    +0.005 C 
BRANCH  11  12
ATOM     12  C   UNL     1      33.443 -13.240 -24.238  0.00  0.00    -0.073 C 
BRANCH  12  13
ATOM     13  N   UNL     1      34.095 -11.940 -24.350  0.00  0.00    +0.384 N 
ATOM     14  C   UNL     1      33.348 -10.925 -23.607  0.00  0.00    -0.101 C 
ATOM     15  C   UNL     1      34.227 -11.549 -25.754  0.00  0.00    -0.101 C 
ATOM     16  H   UNL     1      35.029 -12.016 -23.946  0.00  0.00    -0.080 HD
ENDBRANCH  12  13
ENDBRANCH  11  12
ENDBRANCH   2  11
TORSDOF 3
ENDMDL
