MODEL 1
REMARK VINA RESULT:     -10.5      0.000      0.000
REMARK  Name = 969472
REMARK  2 active torsions:
REMARK  status: ('A' for Active; 'I' for Inactive)
REMARK    1  A    between atoms: C_7  and  O_18
REMARK    2  A    between atoms: O_18  and  C_26
REMARK                            x       y       z     vdW  Elec       q    Type
REMARK                         _______ _______ _______ _____ _____    ______ ____
ROOT
ATOM      1 CL   UNL     1      28.503 -22.878 -15.758  0.00  0.00    -0.081 Cl
ATOM      2  O   UNL     1      34.032 -24.666 -12.369  0.00  0.00    -0.268 OA
ATOM      3  N   UNL     1      34.139 -23.932 -14.630  0.00  0.00    -0.200 N 
ATOM      4  N   UNL     1      37.679 -24.314 -15.287  0.00  0.00    -0.239 NA
ATOM      5  N   UNL     1      36.897 -25.070 -12.647  0.00  0.00    -0.236 NA
ATOM      6  N   UNL     1      31.883 -23.909 -13.919  0.00  0.00    -0.228 NA
ATOM      7  C   UNL     1      35.227 -23.728 -15.597  0.00  0.00    +0.299 C 
ATOM      8  C   UNL     1      36.421 -24.228 -14.847  0.00  0.00    +0.141 C 
ATOM      9  C   UNL     1      36.063 -24.594 -13.574  0.00  0.00    +0.154 C 
ATOM     10  C   UNL     1      34.629 -24.412 -13.399  0.00  0.00    +0.276 C 
ATOM     11  C   UNL     1      32.797 -23.682 -14.896  0.00  0.00    +0.141 C 
ATOM     12  C   UNL     1      32.463 -23.210 -16.159  0.00  0.00    +0.036 C 
ATOM     13  C   UNL     1      38.555 -24.793 -14.369  0.00  0.00    +0.119 C 
ATOM     14  C   UNL     1      38.173 -25.161 -13.082  0.00  0.00    +0.120 C 
ATOM     15  C   UNL     1      31.124 -22.956 -16.435  0.00  0.00    +0.016 C 
ATOM     16  C   UNL     1      30.591 -23.651 -14.224  0.00  0.00    +0.112 C 
ATOM     17  C   UNL     1      30.164 -23.179 -15.454  0.00  0.00    +0.077 C 
ENDROOT
BRANCH   7  18
ATOM     18  O   UNL     1      35.389 -22.335 -15.888  0.00  0.00    -0.412 OA
BRANCH  18  26
ATOM     19  O   UNL     1      37.541 -21.857 -16.495  0.00  0.00    -0.226 OA
ATOM     20  N   UNL     1      35.860 -21.897 -18.099  0.00  0.00    -0.250 N 
ATOM     21  N   UNL     1      34.865 -20.915 -20.594  0.00  0.00    +0.388 N 
ATOM     22  C   UNL     1      34.452 -22.087 -18.457  0.00  0.00    +0.074 C 
ATOM     23  C   UNL     1      36.765 -21.702 -19.228  0.00  0.00    +0.074 C 
ATOM     24  C   UNL     1      33.979 -21.001 -19.423  0.00  0.00    -0.055 C 
ATOM     25  C   UNL     1      36.244 -20.622 -20.175  0.00  0.00    -0.055 C 
ATOM     26  C   UNL     1      36.360 -22.017 -16.800  0.00  0.00    +0.406 C 
ATOM     27  C   UNL     1      34.385 -19.899 -21.529  0.00  0.00    -0.101 C 
ATOM     28  H   UNL     1      34.858 -21.818 -21.070  0.00  0.00    -0.080 HD
ENDBRANCH  18  26
ENDBRANCH   7  18
TORSDOF 2
ENDMDL
MODEL 2
REMARK VINA RESULT:     -10.5      1.947      5.482
REMARK  Name = 969472
REMARK  2 active torsions:
REMARK  status: ('A' for Active; 'I' for Inactive)
REMARK    1  A    between atoms: C_7  and  O_18
REMARK    2  A    between atoms: O_18  and  C_26
REMARK                            x       y       z     vdW  Elec       q    Type
REMARK                         _______ _______ _______ _____ _____    ______ ____
ROOT
ATOM      1 CL   UNL     1      28.132 -25.446 -14.242  0.00  0.00    -0.081 Cl
ATOM      2  O   UNL     1      32.727 -22.939 -18.467  0.00  0.00    -0.268 OA
ATOM      3  N   UNL     1      33.245 -23.397 -16.190  0.00  0.00    -0.200 N 
ATOM      4  N   UNL     1      36.674 -22.241 -16.044  0.00  0.00    -0.239 NA
ATOM      5  N   UNL     1      35.452 -21.937 -18.606  0.00  0.00    -0.236 NA
ATOM      6  N   UNL     1      30.981 -23.950 -16.590  0.00  0.00    -0.228 NA
ATOM      7  C   UNL     1      34.456 -23.276 -15.364  0.00  0.00    +0.299 C 
ATOM      8  C   UNL     1      35.421 -22.626 -16.304  0.00  0.00    +0.141 C 
ATOM      9  C   UNL     1      34.851 -22.474 -17.542  0.00  0.00    +0.154 C 
ATOM     10  C   UNL     1      33.478 -22.958 -17.509  0.00  0.00    +0.276 C 
ATOM     11  C   UNL     1      32.027 -23.884 -15.729  0.00  0.00    +0.141 C 
ATOM     12  C   UNL     1      31.949 -24.281 -14.400  0.00  0.00    +0.036 C 
ATOM     13  C   UNL     1      37.317 -21.694 -17.104  0.00  0.00    +0.119 C 
ATOM     14  C   UNL     1      36.720 -21.546 -18.353  0.00  0.00    +0.120 C 
ATOM     15  C   UNL     1      30.735 -24.770 -13.928  0.00  0.00    +0.016 C 
ATOM     16  C   UNL     1      29.817 -24.430 -16.096  0.00  0.00    +0.112 C 
ATOM     17  C   UNL     1      29.645 -24.849 -14.787  0.00  0.00    +0.077 C 
ENDROOT
BRANCH   7  18
ATOM     18  O   UNL     1      34.944 -24.569 -14.991  0.00  0.00    -0.412 OA
BRANCH  18  26
ATOM     19  O   UNL     1      35.107 -24.112 -12.757  0.00  0.00    -0.226 OA
ATOM     20  N   UNL     1      36.718 -25.424 -13.797  0.00  0.00    -0.250 N 
ATOM     21  N   UNL     1      39.434 -26.315 -13.882  0.00  0.00    +0.388 N 
ATOM     22  C   UNL     1      37.244 -26.068 -15.003  0.00  0.00    +0.074 C 
ATOM     23  C   UNL     1      37.427 -25.748 -12.562  0.00  0.00    +0.074 C 
ATOM     24  C   UNL     1      38.757 -25.877 -15.113  0.00  0.00    -0.055 C 
ATOM     25  C   UNL     1      38.934 -25.560 -12.724  0.00  0.00    -0.055 C 
ATOM     26  C   UNL     1      35.551 -24.656 -13.766  0.00  0.00    +0.406 C 
ATOM     27  C   UNL     1      40.882 -26.161 -14.009  0.00  0.00    -0.101 C 
ATOM     28  H   UNL     1      39.228 -27.304 -13.736  0.00  0.00    -0.080 HD
ENDBRANCH  18  26
ENDBRANCH   7  18
TORSDOF 2
ENDMDL
MODEL 3
REMARK VINA RESULT:     -10.2      2.491      6.182
REMARK  Name = 969472
REMARK  2 active torsions:
REMARK  status: ('A' for Active; 'I' for Inactive)
REMARK    1  A    between atoms: C_7  and  O_18
REMARK    2  A    between atoms: O_18  and  C_26
REMARK                            x       y       z     vdW  Elec       q    Type
REMARK                         _______ _______ _______ _____ _____    ______ ____
ROOT
ATOM      1 CL   UNL     1      34.945 -19.784 -22.004  0.00  0.00    -0.081 Cl
ATOM      2  O   UNL     1      30.620 -22.085 -17.393  0.00  0.00    -0.268 OA
ATOM      3  N   UNL     1      32.932 -22.641 -17.321  0.00  0.00    -0.200 N 
ATOM      4  N   UNL     1      32.992 -24.866 -14.464  0.00  0.00    -0.239 NA
ATOM      5  N   UNL     1      30.402 -23.837 -15.085  0.00  0.00    -0.236 NA
ATOM      6  N   UNL     1      32.534 -21.253 -19.194  0.00  0.00    -0.228 NA
ATOM      7  C   UNL     1      33.772 -23.442 -16.417  0.00  0.00    +0.299 C 
ATOM      8  C   UNL     1      32.767 -24.015 -15.469  0.00  0.00    +0.141 C 
ATOM      9  C   UNL     1      31.516 -23.530 -15.752  0.00  0.00    +0.154 C 
ATOM     10  C   UNL     1      31.584 -22.651 -16.912  0.00  0.00    +0.276 C 
ATOM     11  C   UNL     1      33.409 -21.961 -18.436  0.00  0.00    +0.141 C 
ATOM     12  C   UNL     1      34.767 -22.044 -18.715  0.00  0.00    +0.036 C 
ATOM     13  C   UNL     1      31.881 -25.199 -13.762  0.00  0.00    +0.119 C 
ATOM     14  C   UNL     1      30.619 -24.697 -14.065  0.00  0.00    +0.120 C 
ATOM     15  C   UNL     1      35.254 -21.366 -19.828  0.00  0.00    +0.016 C 
ATOM     16  C   UNL     1      33.043 -20.608 -20.267  0.00  0.00    +0.112 C 
ATOM     17  C   UNL     1      34.382 -20.633 -20.623  0.00  0.00    +0.077 C 
ENDROOT
BRANCH   7  18
ATOM     18  O   UNL     1      34.685 -22.603 -15.702  0.00  0.00    -0.412 OA
BRANCH  18  26
ATOM     19  O   UNL     1      36.662 -22.824 -16.828  0.00  0.00    -0.226 OA
ATOM     20  N   UNL     1      36.529 -23.414 -14.584  0.00  0.00    -0.250 N 
ATOM     21  N   UNL     1      37.484 -25.058 -12.448  0.00  0.00    +0.388 N 
ATOM     22  C   UNL     1      35.748 -23.548 -13.352  0.00  0.00    +0.074 C 
ATOM     23  C   UNL     1      37.957 -23.686 -14.445  0.00  0.00    +0.074 C 
ATOM     24  C   UNL     1      36.039 -24.878 -12.659  0.00  0.00    -0.055 C 
ATOM     25  C   UNL     1      38.199 -25.015 -13.732  0.00  0.00    -0.055 C 
ATOM     26  C   UNL     1      36.011 -22.937 -15.791  0.00  0.00    +0.406 C 
ATOM     27  C   UNL     1      37.750 -26.316 -11.753  0.00  0.00    -0.101 C 
ATOM     28  H   UNL     1      37.821 -24.292 -11.865  0.00  0.00    -0.080 HD
ENDBRANCH  18  26
ENDBRANCH   7  18
TORSDOF 2
ENDMDL
MODEL 4
REMARK VINA RESULT:     -10.1      2.474      6.262
REMARK  Name = 969472
REMARK  2 active torsions:
REMARK  status: ('A' for Active; 'I' for Inactive)
REMARK    1  A    between atoms: C_7  and  O_18
REMARK    2  A    between atoms: O_18  and  C_26
REMARK                            x       y       z     vdW  Elec       q    Type
REMARK                         _______ _______ _______ _____ _____    ______ ____
ROOT
ATOM      1 CL   UNL     1      35.703 -20.478 -21.101  0.00  0.00    -0.081 Cl
ATOM      2  O   UNL     1      30.490 -22.302 -17.261  0.00  0.00    -0.268 OA
ATOM      3  N   UNL     1      32.707 -23.013 -16.772  0.00  0.00    -0.200 N 
ATOM      4  N   UNL     1      32.108 -25.128 -13.893  0.00  0.00    -0.239 NA
ATOM      5  N   UNL     1      29.747 -23.948 -14.983  0.00  0.00    -0.236 NA
ATOM      6  N   UNL     1      32.742 -21.672 -18.719  0.00  0.00    -0.228 NA
ATOM      7  C   UNL     1      33.317 -23.835 -15.715  0.00  0.00    +0.299 C 
ATOM      8  C   UNL     1      32.124 -24.302 -14.944  0.00  0.00    +0.141 C 
ATOM      9  C   UNL     1      30.980 -23.743 -15.453  0.00  0.00    +0.154 C 
ATOM     10  C   UNL     1      31.311 -22.915 -16.604  0.00  0.00    +0.276 C 
ATOM     11  C   UNL     1      33.418 -22.409 -17.803  0.00  0.00    +0.141 C 
ATOM     12  C   UNL     1      34.794 -22.596 -17.838  0.00  0.00    +0.036 C 
ATOM     13  C   UNL     1      30.872 -25.357 -13.388  0.00  0.00    +0.119 C 
ATOM     14  C   UNL     1      29.721 -24.782 -13.919  0.00  0.00    +0.120 C 
ATOM     15  C   UNL     1      35.515 -21.995 -18.866  0.00  0.00    +0.016 C 
ATOM     16  C   UNL     1      33.475 -21.104 -19.703  0.00  0.00    +0.112 C 
ATOM     17  C   UNL     1      34.849 -21.234 -19.819  0.00  0.00    +0.077 C 
ENDROOT
BRANCH   7  18
ATOM     18  O   UNL     1      34.153 -23.034 -14.872  0.00  0.00    -0.412 OA
BRANCH  18  26
ATOM     19  O   UNL     1      34.049 -23.497 -12.636  0.00  0.00    -0.226 OA
ATOM     20  N   UNL     1      35.751 -24.401 -13.934  0.00  0.00    -0.250 N 
ATOM     21  N   UNL     1      38.440 -25.365 -14.079  0.00  0.00    +0.388 N 
ATOM     22  C   UNL     1      36.409 -24.558 -15.234  0.00  0.00    +0.074 C 
ATOM     23  C   UNL     1      36.297 -25.227 -12.861  0.00  0.00    +0.074 C 
ATOM     24  C   UNL     1      37.927 -24.439 -15.099  0.00  0.00    -0.055 C 
ATOM     25  C   UNL     1      37.816 -25.091 -12.775  0.00  0.00    -0.055 C 
ATOM     26  C   UNL     1      34.604 -23.632 -13.725  0.00  0.00    +0.406 C 
ATOM     27  C   UNL     1      39.895 -25.270 -13.981  0.00  0.00    -0.101 C 
ATOM     28  H   UNL     1      38.198 -26.317 -14.357  0.00  0.00    -0.080 HD
ENDBRANCH  18  26
ENDBRANCH   7  18
TORSDOF 2
ENDMDL
MODEL 5
REMARK VINA RESULT:     -10.0      2.605      4.904
REMARK  Name = 969472
REMARK  2 active torsions:
REMARK  status: ('A' for Active; 'I' for Inactive)
REMARK    1  A    between atoms: C_7  and  O_18
REMARK    2  A    between atoms: O_18  and  C_26
REMARK                            x       y       z     vdW  Elec       q    Type
REMARK                         _______ _______ _______ _____ _____    ______ ____
ROOT
ATOM      1 CL   UNL     1      38.478 -24.308 -11.623  0.00  0.00    -0.081 Cl
ATOM      2  O   UNL     1      31.957 -25.070 -13.092  0.00  0.00    -0.268 OA
ATOM      3  N   UNL     1      33.402 -23.771 -14.466  0.00  0.00    -0.200 N 
ATOM      4  N   UNL     1      31.051 -22.555 -16.939  0.00  0.00    -0.239 NA
ATOM      5  N   UNL     1      29.879 -24.223 -14.938  0.00  0.00    -0.236 NA
ATOM      6  N   UNL     1      34.642 -24.632 -12.647  0.00  0.00    -0.228 NA
ATOM      7  C   UNL     1      33.228 -23.007 -15.712  0.00  0.00    +0.299 C 
ATOM      8  C   UNL     1      31.756 -23.116 -15.952  0.00  0.00    +0.141 C 
ATOM      9  C   UNL     1      31.177 -23.916 -15.000  0.00  0.00    +0.154 C 
ATOM     10  C   UNL     1      32.189 -24.355 -14.049  0.00  0.00    +0.276 C 
ATOM     11  C   UNL     1      34.608 -23.900 -13.787  0.00  0.00    +0.141 C 
ATOM     12  C   UNL     1      35.723 -23.265 -14.321  0.00  0.00    +0.036 C 
ATOM     13  C   UNL     1      29.727 -22.848 -16.909  0.00  0.00    +0.119 C 
ATOM     14  C   UNL     1      29.157 -23.661 -15.933  0.00  0.00    +0.120 C 
ATOM     15  C   UNL     1      36.936 -23.388 -13.650  0.00  0.00    +0.016 C 
ATOM     16  C   UNL     1      35.837 -24.730 -12.022  0.00  0.00    +0.112 C 
ATOM     17  C   UNL     1      37.001 -24.133 -12.478  0.00  0.00    +0.077 C 
ENDROOT
BRANCH   7  18
ATOM     18  O   UNL     1      33.939 -23.630 -16.787  0.00  0.00    -0.412 OA
BRANCH  18  26
ATOM     19  O   UNL     1      36.081 -22.838 -16.694  0.00  0.00    -0.226 OA
ATOM     20  N   UNL     1      34.743 -22.361 -18.533  0.00  0.00    -0.250 N 
ATOM     21  N   UNL     1      34.099 -20.564 -20.662  0.00  0.00    +0.388 N 
ATOM     22  C   UNL     1      33.463 -22.479 -19.235  0.00  0.00    +0.074 C 
ATOM     23  C   UNL     1      35.805 -21.702 -19.288  0.00  0.00    +0.074 C 
ATOM     24  C   UNL     1      33.034 -21.136 -19.826  0.00  0.00    -0.055 C 
ATOM     25  C   UNL     1      35.326 -20.375 -19.874  0.00  0.00    -0.055 C 
ATOM     26  C   UNL     1      35.009 -22.936 -17.287  0.00  0.00    +0.406 C 
ATOM     27  C   UNL     1      33.667 -19.297 -21.251  0.00  0.00    -0.101 C 
ATOM     28  H   UNL     1      34.300 -21.218 -21.420  0.00  0.00    -0.080 HD
ENDBRANCH  18  26
ENDBRANCH   7  18
TORSDOF 2
ENDMDL
MODEL 6
REMARK VINA RESULT:      -9.4      2.339      5.373
REMARK  Name = 969472
REMARK  2 active torsions:
REMARK  status: ('A' for Active; 'I' for Inactive)
REMARK    1  A    between atoms: C_7  and  O_18
REMARK    2  A    between atoms: O_18  and  C_26
REMARK                            x       y       z     vdW  Elec       q    Type
REMARK                         _______ _______ _______ _____ _____    ______ ____
ROOT
ATOM      1 CL   UNL     1      35.014 -20.865 -21.182  0.00  0.00    -0.081 Cl
ATOM      2  O   UNL     1      38.123 -22.941 -15.589  0.00  0.00    -0.268 OA
ATOM      3  N   UNL     1      35.749 -22.867 -15.742  0.00  0.00    -0.200 N 
ATOM      4  N   UNL     1      34.835 -23.916 -12.399  0.00  0.00    -0.239 NA
ATOM      5  N   UNL     1      37.651 -23.793 -12.851  0.00  0.00    -0.236 NA
ATOM      6  N   UNL     1      36.675 -22.110 -17.782  0.00  0.00    -0.228 NA
ATOM      7  C   UNL     1      34.646 -23.209 -14.831  0.00  0.00    +0.299 C 
ATOM      8  C   UNL     1      35.370 -23.569 -13.573  0.00  0.00    +0.141 C 
ATOM      9  C   UNL     1      36.726 -23.517 -13.772  0.00  0.00    +0.154 C 
ATOM     10  C   UNL     1      37.002 -23.085 -15.136  0.00  0.00    +0.276 C 
ATOM     11  C   UNL     1      35.577 -22.390 -17.037  0.00  0.00    +0.141 C 
ATOM     12  C   UNL     1      34.277 -22.225 -17.500  0.00  0.00    +0.036 C 
ATOM     13  C   UNL     1      35.747 -24.206 -11.438  0.00  0.00    +0.119 C 
ATOM     14  C   UNL     1      37.120 -24.145 -11.659  0.00  0.00    +0.120 C 
ATOM     15  C   UNL     1      34.094 -21.749 -18.794  0.00  0.00    +0.016 C 
ATOM     16  C   UNL     1      36.458 -21.649 -19.035  0.00  0.00    +0.112 C 
ATOM     17  C   UNL     1      35.200 -21.454 -19.582  0.00  0.00    +0.077 C 
ENDROOT
BRANCH   7  18
ATOM     18  O   UNL     1      33.927 -24.349 -15.316  0.00  0.00    -0.412 OA
BRANCH  18  26
ATOM     19  O   UNL     1      32.792 -25.626 -13.797  0.00  0.00    -0.226 OA
ATOM     20  N   UNL     1      31.703 -23.904 -14.916  0.00  0.00    -0.250 N 
ATOM     21  N   UNL     1      29.257 -22.863 -15.970  0.00  0.00    +0.388 N 
ATOM     22  C   UNL     1      31.727 -22.807 -15.885  0.00  0.00    +0.074 C 
ATOM     23  C   UNL     1      30.460 -24.038 -14.162  0.00  0.00    +0.074 C 
ATOM     24  C   UNL     1      30.487 -22.835 -16.778  0.00  0.00    -0.055 C 
ATOM     25  C   UNL     1      29.248 -24.043 -15.092  0.00  0.00    -0.055 C 
ATOM     26  C   UNL     1      32.808 -24.703 -14.610  0.00  0.00    +0.406 C 
ATOM     27  C   UNL     1      28.076 -22.854 -16.831  0.00  0.00    -0.101 C 
ATOM     28  H   UNL     1      29.236 -22.027 -15.387  0.00  0.00    -0.080 HD
ENDBRANCH  18  26
ENDBRANCH   7  18
TORSDOF 2
ENDMDL
MODEL 7
REMARK VINA RESULT:      -9.3      2.772      5.170
REMARK  Name = 969472
REMARK  2 active torsions:
REMARK  status: ('A' for Active; 'I' for Inactive)
REMARK    1  A    between atoms: C_7  and  O_18
REMARK    2  A    between atoms: O_18  and  C_26
REMARK                            x       y       z     vdW  Elec       q    Type
REMARK                         _______ _______ _______ _____ _____    ______ ____
ROOT
ATOM      1 CL   UNL     1      40.673 -25.405 -13.911  0.00  0.00    -0.081 Cl
ATOM      2  O   UNL     1      34.159 -25.102 -12.259  0.00  0.00    -0.268 OA
ATOM      3  N   UNL     1      34.986 -24.108 -14.256  0.00  0.00    -0.200 N 
ATOM      4  N   UNL     1      31.961 -22.590 -15.546  0.00  0.00    -0.239 NA
ATOM      5  N   UNL     1      31.607 -23.974 -13.073  0.00  0.00    -0.236 NA
ATOM      6  N   UNL     1      36.785 -25.110 -13.094  0.00  0.00    -0.228 NA
ATOM      7  C   UNL     1      34.374 -23.365 -15.368  0.00  0.00    +0.299 C 
ATOM      8  C   UNL     1      32.953 -23.231 -14.921  0.00  0.00    +0.141 C 
ATOM      9  C   UNL     1      32.764 -23.892 -13.734  0.00  0.00    +0.154 C 
ATOM     10  C   UNL     1      34.026 -24.466 -13.289  0.00  0.00    +0.276 C 
ATOM     11  C   UNL     1      36.339 -24.417 -14.171  0.00  0.00    +0.141 C 
ATOM     12  C   UNL     1      37.167 -23.996 -15.205  0.00  0.00    +0.036 C 
ATOM     13  C   UNL     1      30.769 -22.654 -14.904  0.00  0.00    +0.119 C 
ATOM     14  C   UNL     1      30.597 -23.329 -13.699  0.00  0.00    +0.120 C 
ATOM     15  C   UNL     1      38.522 -24.301 -15.131  0.00  0.00    +0.016 C 
ATOM     16  C   UNL     1      38.108 -25.388 -13.056  0.00  0.00    +0.112 C 
ATOM     17  C   UNL     1      39.008 -25.010 -14.038  0.00  0.00    +0.077 C 
ENDROOT
BRANCH   7  18
ATOM     18  O   UNL     1      34.428 -24.131 -16.577  0.00  0.00    -0.412 OA
BRANCH  18  26
ATOM     19  O   UNL     1      32.845 -24.033 -18.223  0.00  0.00    -0.226 OA
ATOM     20  N   UNL     1      34.502 -22.409 -18.104  0.00  0.00    -0.250 N 
ATOM     21  N   UNL     1      36.149 -20.520 -19.482  0.00  0.00    +0.388 N 
ATOM     22  C   UNL     1      35.692 -21.856 -17.453  0.00  0.00    +0.074 C 
ATOM     23  C   UNL     1      33.945 -21.588 -19.176  0.00  0.00    +0.074 C 
ATOM     24  C   UNL     1      36.736 -21.429 -18.485  0.00  0.00    -0.055 C 
ATOM     25  C   UNL     1      35.025 -21.171 -20.172  0.00  0.00    -0.055 C 
ATOM     26  C   UNL     1      33.843 -23.565 -17.678  0.00  0.00    +0.406 C 
ATOM     27  C   UNL     1      37.162 -20.090 -20.444  0.00  0.00    -0.101 C 
ATOM     28  H   UNL     1      35.796 -19.695 -18.997  0.00  0.00    -0.080 HD
ENDBRANCH  18  26
ENDBRANCH   7  18
TORSDOF 2
ENDMDL
MODEL 8
REMARK VINA RESULT:      -9.1      2.696      6.569
REMARK  Name = 969472
REMARK  2 active torsions:
REMARK  status: ('A' for Active; 'I' for Inactive)
REMARK    1  A    between atoms: C_7  and  O_18
REMARK    2  A    between atoms: O_18  and  C_26
REMARK                            x       y       z     vdW  Elec       q    Type
REMARK                         _______ _______ _______ _____ _____    ______ ____
ROOT
ATOM      1 CL   UNL     1      38.691 -25.942 -11.960  0.00  0.00    -0.081 Cl
ATOM      2  O   UNL     1      37.446 -21.867 -17.165  0.00  0.00    -0.268 OA
ATOM      3  N   UNL     1      35.758 -23.274 -16.252  0.00  0.00    -0.200 N 
ATOM      4  N   UNL     1      33.005 -22.550 -18.491  0.00  0.00    -0.239 NA
ATOM      5  N   UNL     1      35.404 -21.124 -19.096  0.00  0.00    -0.236 NA
ATOM      6  N   UNL     1      37.769 -23.607 -15.052  0.00  0.00    -0.228 NA
ATOM      7  C   UNL     1      34.337 -23.509 -16.552  0.00  0.00    +0.299 C 
ATOM      8  C   UNL     1      34.124 -22.666 -17.770  0.00  0.00    +0.141 C 
ATOM      9  C   UNL     1      35.267 -21.972 -18.074  0.00  0.00    +0.154 C 
ATOM     10  C   UNL     1      36.318 -22.325 -17.131  0.00  0.00    +0.276 C 
ATOM     11  C   UNL     1      36.459 -23.908 -15.232  0.00  0.00    +0.141 C 
ATOM     12  C   UNL     1      35.771 -24.823 -14.445  0.00  0.00    +0.036 C 
ATOM     13  C   UNL     1      33.107 -21.693 -19.536  0.00  0.00    +0.119 C 
ATOM     14  C   UNL     1      34.277 -20.998 -19.831  0.00  0.00    +0.120 C 
ATOM     15  C   UNL     1      36.461 -25.462 -13.420  0.00  0.00    +0.016 C 
ATOM     16  C   UNL     1      38.408 -24.248 -14.048  0.00  0.00    +0.112 C 
ATOM     17  C   UNL     1      37.806 -25.174 -13.212  0.00  0.00    +0.077 C 
ENDROOT
BRANCH   7  18
ATOM     18  O   UNL     1      33.511 -23.031 -15.485  0.00  0.00    -0.412 OA
BRANCH  18  26
ATOM     19  O   UNL     1      32.988 -24.946 -14.352  0.00  0.00    -0.226 OA
ATOM     20  N   UNL     1      31.296 -23.575 -15.165  0.00  0.00    -0.250 N 
ATOM     21  N   UNL     1      28.623 -23.349 -16.156  0.00  0.00    +0.388 N 
ATOM     22  C   UNL     1      30.876 -22.368 -15.881  0.00  0.00    +0.074 C 
ATOM     23  C   UNL     1      30.215 -24.338 -14.548  0.00  0.00    +0.074 C 
ATOM     24  C   UNL     1      29.732 -22.674 -16.848  0.00  0.00    -0.055 C 
ATOM     25  C   UNL     1      29.088 -24.604 -15.544  0.00  0.00    -0.055 C 
ATOM     26  C   UNL     1      32.630 -23.934 -14.952  0.00  0.00    +0.406 C 
ATOM     27  C   UNL     1      27.520 -23.606 -17.080  0.00  0.00    -0.101 C 
ATOM     28  H   UNL     1      28.285 -22.736 -15.414  0.00  0.00    -0.080 HD
ENDBRANCH  18  26
ENDBRANCH   7  18
TORSDOF 2
ENDMDL
MODEL 9
REMARK VINA RESULT:      -8.3     12.878     16.611
REMARK  Name = 969472
REMARK  2 active torsions:
REMARK  status: ('A' for Active; 'I' for Inactive)
REMARK    1  A    between atoms: C_7  and  O_18
REMARK    2  A    between atoms: O_18  and  C_26
REMARK                            x       y       z     vdW  Elec       q    Type
REMARK                         _______ _______ _______ _____ _____    ______ ____
ROOT
ATOM      1 CL   UNL     1      33.420 -15.358 -25.901  0.00  0.00    -0.081 Cl
ATOM      2  O   UNL     1      31.448 -11.492 -20.761  0.00  0.00    -0.268 OA
ATOM      3  N   UNL     1      32.692 -10.603 -22.584  0.00  0.00    -0.200 N 
ATOM      4  N   UNL     1      33.096  -7.170 -21.502  0.00  0.00    -0.239 NA
ATOM      5  N   UNL     1      31.642  -8.806 -19.668  0.00  0.00    -0.236 NA
ATOM      6  N   UNL     1      32.352 -12.916 -22.940  0.00  0.00    -0.228 NA
ATOM      7  C   UNL     1      33.194  -9.265 -22.935  0.00  0.00    +0.299 C 
ATOM      8  C   UNL     1      32.826  -8.459 -21.730  0.00  0.00    +0.141 C 
ATOM      9  C   UNL     1      32.125  -9.229 -20.838  0.00  0.00    +0.154 C 
ATOM     10  C   UNL     1      32.013 -10.589 -21.349  0.00  0.00    +0.276 C 
ATOM     11  C   UNL     1      32.864 -11.736 -23.371  0.00  0.00    +0.141 C 
ATOM     12  C   UNL     1      33.557 -11.595 -24.567  0.00  0.00    +0.036 C 
ATOM     13  C   UNL     1      32.618  -6.705 -20.322  0.00  0.00    +0.119 C 
ATOM     14  C   UNL     1      31.909  -7.503 -19.428  0.00  0.00    +0.120 C 
ATOM     15  C   UNL     1      33.734 -12.722 -25.363  0.00  0.00    +0.016 C 
ATOM     16  C   UNL     1      32.544 -13.990 -23.740  0.00  0.00    +0.112 C 
ATOM     17  C   UNL     1      33.221 -13.946 -24.947  0.00  0.00    +0.077 C 
ENDROOT
BRANCH   7  18
ATOM     18  O   UNL     1      32.508  -8.755 -24.084  0.00  0.00    -0.412 OA
BRANCH  18  26
ATOM     19  O   UNL     1      30.436  -8.113 -23.363  0.00  0.00    -0.226 OA
ATOM     20  N   UNL     1      31.920  -6.531 -24.196  0.00  0.00    -0.250 N 
ATOM     21  N   UNL     1      32.303  -4.033 -25.534  0.00  0.00    +0.388 N 
ATOM     22  C   UNL     1      33.226  -6.194 -24.766  0.00  0.00    +0.074 C 
ATOM     23  C   UNL     1      31.068  -5.388 -23.881  0.00  0.00    +0.074 C 
ATOM     24  C   UNL     1      33.081  -5.216 -25.933  0.00  0.00    -0.055 C 
ATOM     25  C   UNL     1      30.966  -4.431 -25.067  0.00  0.00    -0.055 C 
ATOM     26  C   UNL     1      31.532  -7.825 -23.842  0.00  0.00    +0.406 C 
ATOM     27  C   UNL     1      32.199  -3.088 -26.645  0.00  0.00    -0.101 C 
ATOM     28  H   UNL     1      32.789  -3.572 -24.765  0.00  0.00    -0.080 HD
ENDBRANCH  18  26
ENDBRANCH   7  18
TORSDOF 2
ENDMDL
