MODEL 1
REMARK VINA RESULT:      -9.0      0.000      0.000
REMARK  Name = 6918141
REMARK  14 active torsions:
REMARK  status: ('A' for Active; 'I' for Inactive)
REMARK    1  A    between atoms: C_2  and  C_30
REMARK    2  A    between atoms: C_11  and  C_12
REMARK    3  A    between atoms: C_16  and  O_20
REMARK    4  A    between atoms: C_17  and  O_22
REMARK    5  A    between atoms: C_18  and  O_24
REMARK    6  A    between atoms: O_24  and  C_25
REMARK    7  A    between atoms: C_25  and  C_26
REMARK    8  A    between atoms: C_26  and  C_27
REMARK    9  A    between atoms: C_27  and  O_28
REMARK   10  A    between atoms: C_30  and  C_32
REMARK   11  A    between atoms: C_32  and  C_33
REMARK   12  A    between atoms: C_33  and  C_34
REMARK   13  A    between atoms: C_34  and  C_35
REMARK   14  A    between atoms: C_35  and  O_38
REMARK                            x       y       z     vdW  Elec       q    Type
REMARK                         _______ _______ _______ _____ _____    ______ ____
ROOT
ATOM      1  C   UNL     1      33.815 -15.852 -22.746  0.00  0.00    +0.003 C 
ATOM      2  C   UNL     1      33.173 -16.936 -21.841  0.00  0.00    +0.000 C 
ATOM      3  C   UNL     1      32.764 -14.727 -22.581  0.00  0.00    +0.018 C 
ATOM      4  C   UNL     1      32.670 -16.150 -20.612  0.00  0.00    +0.000 C 
ATOM      5  C   UNL     1      32.503 -14.691 -21.071  0.00  0.00    +0.004 C 
ATOM      6  C   UNL     1      33.919 -16.261 -24.235  0.00  0.00    +0.001 C 
ATOM      7  C   UNL     1      33.154 -13.479 -23.329  0.00  0.00    -0.045 C 
ATOM      8  C   UNL     1      35.222 -15.450 -22.231  0.00  0.00    +0.000 C 
ATOM      9  C   UNL     1      33.491 -15.147 -25.210  0.00  0.00    +0.004 C 
ATOM     10  C   UNL     1      33.753 -13.724 -24.698  0.00  0.00    +0.022 C 
ATOM     11  C   UNL     1      32.989 -12.234 -22.858  0.00  0.00    -0.009 C 
ENDROOT
BRANCH  11  12
ATOM     12  C   UNL     1      33.361 -11.054 -23.598  0.00  0.00    -0.005 C 
ATOM     13  C   UNL     1      32.808  -9.849 -23.389  0.00  0.00    -0.021 C 
ATOM     14  C   UNL     1      33.256  -8.627 -24.154  0.00  0.00    +0.058 C 
ATOM     15  C   UNL     1      31.771  -9.615 -22.385  0.00  0.00    +0.003 C 
ATOM     16  C   UNL     1      33.568  -7.457 -23.217  0.00  0.00    +0.145 C 
ATOM     17  C   UNL     1      31.977  -8.413 -21.484  0.00  0.00    +0.162 C 
ATOM     18  C   UNL     1      32.402  -7.158 -22.264  0.00  0.00    +0.173 C 
ATOM     19  C   UNL     1      30.669 -10.376 -22.297  0.00  0.00    -0.002 C 
BRANCH  16  20
ATOM     20  O   UNL     1      33.860  -6.291 -23.980  0.00  0.00    -0.382 OA
ATOM     21  H   UNL     1      33.987  -5.536 -23.382  0.00  0.00    +0.210 HD
ENDBRANCH  16  20
BRANCH  17  22
ATOM     22  O   UNL     1      32.989  -8.746 -20.534  0.00  0.00    -0.377 OA
ATOM     23  H   UNL     1      33.249  -7.949 -20.045  0.00  0.00    +0.211 HD
ENDBRANCH  17  22
BRANCH  18  24
ATOM     24  O   UNL     1      31.281  -6.637 -22.980  0.00  0.00    -0.351 OA
BRANCH  24  25
ATOM     25  C   UNL     1      30.776  -5.464 -22.362  0.00  0.00    +0.145 C 
BRANCH  25  26
ATOM     26  C   UNL     1      31.213  -4.239 -23.149  0.00  0.00    +0.064 C 
BRANCH  26  27
ATOM     27  C   UNL     1      30.869  -4.356 -24.625  0.00  0.00    +0.140 C 
BRANCH  27  28
ATOM     28  O   UNL     1      32.002  -4.856 -25.322  0.00  0.00    -0.382 OA
ATOM     29  H   UNL     1      32.444  -4.127 -25.786  0.00  0.00    +0.210 HD
ENDBRANCH  27  28
ENDBRANCH  26  27
ENDBRANCH  25  26
ENDBRANCH  24  25
ENDBRANCH  18  24
ENDBRANCH  11  12
BRANCH   2  30
ATOM     30  C   UNL     1      34.056 -18.118 -21.466  0.00  0.00    +0.000 C 
ATOM     31  C   UNL     1      34.659 -18.762 -22.718  0.00  0.00    +0.000 C 
BRANCH  30  32
ATOM     32  C   UNL     1      33.327 -19.155 -20.586  0.00  0.00    +0.000 C 
BRANCH  32  33
ATOM     33  C   UNL     1      34.082 -20.472 -20.365  0.00  0.00    +0.002 C 
BRANCH  33  34
ATOM     34  C   UNL     1      33.236 -21.454 -19.546  0.00  0.00    +0.027 C 
BRANCH  34  35
ATOM     35  C   UNL     1      34.026 -22.543 -18.792  0.00  0.00    +0.088 C 
ATOM     36  C   UNL     1      33.295 -23.039 -17.543  0.00  0.00    +0.029 C 
ATOM     37  C   UNL     1      35.441 -22.088 -18.432  0.00  0.00    +0.029 C 
BRANCH  35  38
ATOM     38  O   UNL     1      34.170 -23.659 -19.682  0.00  0.00    -0.387 OA
ATOM     39  H   UNL     1      34.920 -23.504 -20.278  0.00  0.00    +0.210 HD
ENDBRANCH  35  38
ENDBRANCH  34  35
ENDBRANCH  33  34
ENDBRANCH  32  33
ENDBRANCH  30  32
ENDBRANCH   2  30
TORSDOF 14
ENDMDL
MODEL 2
REMARK VINA RESULT:      -8.0      3.873      7.932
REMARK  Name = 6918141
REMARK  14 active torsions:
REMARK  status: ('A' for Active; 'I' for Inactive)
REMARK    1  A    between atoms: C_2  and  C_30
REMARK    2  A    between atoms: C_11  and  C_12
REMARK    3  A    between atoms: C_16  and  O_20
REMARK    4  A    between atoms: C_17  and  O_22
REMARK    5  A    between atoms: C_18  and  O_24
REMARK    6  A    between atoms: O_24  and  C_25
REMARK    7  A    between atoms: C_25  and  C_26
REMARK    8  A    between atoms: C_26  and  C_27
REMARK    9  A    between atoms: C_27  and  O_28
REMARK   10  A    between atoms: C_30  and  C_32
REMARK   11  A    between atoms: C_32  and  C_33
REMARK   12  A    between atoms: C_33  and  C_34
REMARK   13  A    between atoms: C_34  and  C_35
REMARK   14  A    between atoms: C_35  and  O_38
REMARK                            x       y       z     vdW  Elec       q    Type
REMARK                         _______ _______ _______ _____ _____    ______ ____
ROOT
ATOM      1  C   UNL     1      34.342 -21.931 -18.961  0.00  0.00    +0.003 C 
ATOM      2  C   UNL     1      35.128 -22.133 -17.640  0.00  0.00    +0.000 C 
ATOM      3  C   UNL     1      35.084 -20.687 -19.510  0.00  0.00    +0.018 C 
ATOM      4  C   UNL     1      36.599 -21.885 -18.035  0.00  0.00    +0.000 C 
ATOM      5  C   UNL     1      36.564 -21.029 -19.312  0.00  0.00    +0.004 C 
ATOM      6  C   UNL     1      32.844 -21.601 -18.755  0.00  0.00    +0.001 C 
ATOM      7  C   UNL     1      34.559 -20.270 -20.860  0.00  0.00    -0.045 C 
ATOM      8  C   UNL     1      34.466 -23.170 -19.885  0.00  0.00    +0.000 C 
ATOM      9  C   UNL     1      32.337 -20.455 -19.650  0.00  0.00    +0.004 C 
ATOM     10  C   UNL     1      33.053 -20.346 -21.003  0.00  0.00    +0.022 C 
ATOM     11  C   UNL     1      35.331 -19.850 -21.873  0.00  0.00    -0.009 C 
ENDROOT
BRANCH  11  12
ATOM     12  C   UNL     1      34.804 -19.446 -23.152  0.00  0.00    -0.005 C 
ATOM     13  C   UNL     1      34.351 -18.207 -23.404  0.00  0.00    -0.021 C 
ATOM     14  C   UNL     1      33.849 -17.809 -24.771  0.00  0.00    +0.058 C 
ATOM     15  C   UNL     1      34.350 -17.144 -22.401  0.00  0.00    +0.003 C 
ATOM     16  C   UNL     1      34.501 -16.512 -25.257  0.00  0.00    +0.145 C 
ATOM     17  C   UNL     1      34.900 -15.805 -22.851  0.00  0.00    +0.162 C 
ATOM     18  C   UNL     1      34.364 -15.381 -24.228  0.00  0.00    +0.173 C 
ATOM     19  C   UNL     1      33.839 -17.314 -21.171  0.00  0.00    -0.002 C 
BRANCH  16  20
ATOM     20  O   UNL     1      33.908 -16.103 -26.485  0.00  0.00    -0.382 OA
ATOM     21  H   UNL     1      32.986 -16.403 -26.515  0.00  0.00    +0.210 HD
ENDBRANCH  16  20
BRANCH  17  22
ATOM     22  O   UNL     1      36.322 -15.912 -22.907  0.00  0.00    -0.377 OA
ATOM     23  H   UNL     1      36.612 -16.658 -22.358  0.00  0.00    +0.211 HD
ENDBRANCH  17  22
BRANCH  18  24
ATOM     24  O   UNL     1      33.003 -14.967 -24.106  0.00  0.00    -0.351 OA
BRANCH  24  25
ATOM     25  C   UNL     1      32.910 -13.647 -23.592  0.00  0.00    +0.145 C 
BRANCH  25  26
ATOM     26  C   UNL     1      33.723 -12.699 -24.459  0.00  0.00    +0.064 C 
BRANCH  26  27
ATOM     27  C   UNL     1      33.599 -11.256 -23.998  0.00  0.00    +0.140 C 
BRANCH  27  28
ATOM     28  O   UNL     1      34.853 -10.611 -24.169  0.00  0.00    -0.382 OA
ATOM     29  H   UNL     1      35.565 -11.269 -24.122  0.00  0.00    +0.210 HD
ENDBRANCH  27  28
ENDBRANCH  26  27
ENDBRANCH  25  26
ENDBRANCH  24  25
ENDBRANCH  18  24
ENDBRANCH  11  12
BRANCH   2  30
ATOM     30  C   UNL     1      34.923 -23.462 -16.924  0.00  0.00    +0.000 C 
ATOM     31  C   UNL     1      33.478 -23.597 -16.435  0.00  0.00    +0.000 C 
BRANCH  30  32
ATOM     32  C   UNL     1      35.935 -23.689 -15.782  0.00  0.00    +0.000 C 
BRANCH  32  33
ATOM     33  C   UNL     1      35.524 -24.740 -14.743  0.00  0.00    +0.002 C 
BRANCH  33  34
ATOM     34  C   UNL     1      36.422 -24.660 -13.503  0.00  0.00    +0.027 C 
BRANCH  34  35
ATOM     35  C   UNL     1      37.332 -25.882 -13.262  0.00  0.00    +0.088 C 
ATOM     36  C   UNL     1      38.800 -25.493 -13.071  0.00  0.00    +0.029 C 
ATOM     37  C   UNL     1      37.201 -26.930 -14.368  0.00  0.00    +0.029 C 
BRANCH  35  38
ATOM     38  O   UNL     1      36.889 -26.511 -12.051  0.00  0.00    -0.387 OA
ATOM     39  H   UNL     1      36.043 -26.958 -12.209  0.00  0.00    +0.210 HD
ENDBRANCH  35  38
ENDBRANCH  34  35
ENDBRANCH  33  34
ENDBRANCH  32  33
ENDBRANCH  30  32
ENDBRANCH   2  30
TORSDOF 14
ENDMDL
MODEL 3
REMARK VINA RESULT:      -7.9      1.246      1.481
REMARK  Name = 6918141
REMARK  14 active torsions:
REMARK  status: ('A' for Active; 'I' for Inactive)
REMARK    1  A    between atoms: C_2  and  C_30
REMARK    2  A    between atoms: C_11  and  C_12
REMARK    3  A    between atoms: C_16  and  O_20
REMARK    4  A    between atoms: C_17  and  O_22
REMARK    5  A    between atoms: C_18  and  O_24
REMARK    6  A    between atoms: O_24  and  C_25
REMARK    7  A    between atoms: C_25  and  C_26
REMARK    8  A    between atoms: C_26  and  C_27
REMARK    9  A    between atoms: C_27  and  O_28
REMARK   10  A    between atoms: C_30  and  C_32
REMARK   11  A    between atoms: C_32  and  C_33
REMARK   12  A    between atoms: C_33  and  C_34
REMARK   13  A    between atoms: C_34  and  C_35
REMARK   14  A    between atoms: C_35  and  O_38
REMARK                            x       y       z     vdW  Elec       q    Type
REMARK                         _______ _______ _______ _____ _____    ______ ____
ROOT
ATOM      1  C   UNL     1      33.816 -15.630 -22.810  0.00  0.00    +0.003 C 
ATOM      2  C   UNL     1      33.223 -16.677 -21.833  0.00  0.00    +0.000 C 
ATOM      3  C   UNL     1      32.792 -14.485 -22.609  0.00  0.00    +0.018 C 
ATOM      4  C   UNL     1      32.813 -15.849 -20.597  0.00  0.00    +0.000 C 
ATOM      5  C   UNL     1      32.634 -14.402 -21.087  0.00  0.00    +0.004 C 
ATOM      6  C   UNL     1      33.814 -16.082 -24.290  0.00  0.00    +0.001 C 
ATOM      7  C   UNL     1      33.147 -13.265 -23.418  0.00  0.00    -0.045 C 
ATOM      8  C   UNL     1      35.259 -15.233 -22.403  0.00  0.00    +0.000 C 
ATOM      9  C   UNL     1      33.336 -14.991 -25.267  0.00  0.00    +0.004 C 
ATOM     10  C   UNL     1      33.650 -13.558 -24.816  0.00  0.00    +0.022 C 
ATOM     11  C   UNL     1      33.031 -12.005 -22.974  0.00  0.00    -0.009 C 
ENDROOT
BRANCH  11  12
ATOM     12  C   UNL     1      33.366 -10.852 -23.772  0.00  0.00    -0.005 C 
ATOM     13  C   UNL     1      32.818  -9.641 -23.584  0.00  0.00    -0.021 C 
ATOM     14  C   UNL     1      33.230  -8.447 -24.412  0.00  0.00    +0.058 C 
ATOM     15  C   UNL     1      31.825  -9.372 -22.546  0.00  0.00    +0.003 C 
ATOM     16  C   UNL     1      33.578  -7.243 -23.533  0.00  0.00    +0.145 C 
ATOM     17  C   UNL     1      32.065  -8.138 -21.700  0.00  0.00    +0.162 C 
ATOM     18  C   UNL     1      32.452  -6.912 -22.543  0.00  0.00    +0.173 C 
ATOM     19  C   UNL     1      30.730 -10.131 -22.383  0.00  0.00    -0.002 C 
BRANCH  16  20
ATOM     20  O   UNL     1      33.832  -6.105 -24.350  0.00  0.00    -0.382 OA
ATOM     21  H   UNL     1      34.440  -6.350 -25.065  0.00  0.00    +0.210 HD
ENDBRANCH  16  20
BRANCH  17  22
ATOM     22  O   UNL     1      33.117  -8.434 -20.782  0.00  0.00    -0.377 OA
ATOM     23  H   UNL     1      32.908  -9.252 -20.303  0.00  0.00    +0.211 HD
ENDBRANCH  17  22
BRANCH  18  24
ATOM     24  O   UNL     1      31.300  -6.420 -23.229  0.00  0.00    -0.351 OA
BRANCH  24  25
ATOM     25  C   UNL     1      30.915  -5.145 -22.738  0.00  0.00    +0.145 C 
BRANCH  25  26
ATOM     26  C   UNL     1      31.474  -4.056 -23.639  0.00  0.00    +0.064 C 
BRANCH  26  27
ATOM     27  C   UNL     1      30.809  -2.712 -23.391  0.00  0.00    +0.140 C 
BRANCH  27  28
ATOM     28  O   UNL     1      30.159  -2.749 -22.128  0.00  0.00    -0.382 OA
ATOM     29  H   UNL     1      30.457  -2.000 -21.588  0.00  0.00    +0.210 HD
ENDBRANCH  27  28
ENDBRANCH  26  27
ENDBRANCH  25  26
ENDBRANCH  24  25
ENDBRANCH  18  24
ENDBRANCH  11  12
BRANCH   2  30
ATOM     30  C   UNL     1      34.114 -17.861 -21.483  0.00  0.00    +0.000 C 
ATOM     31  C   UNL     1      34.763 -18.443 -22.743  0.00  0.00    +0.000 C 
BRANCH  30  32
ATOM     32  C   UNL     1      33.378 -18.946 -20.669  0.00  0.00    +0.000 C 
BRANCH  32  33
ATOM     33  C   UNL     1      33.874 -20.380 -20.889  0.00  0.00    +0.002 C 
BRANCH  33  34
ATOM     34  C   UNL     1      34.438 -20.967 -19.590  0.00  0.00    +0.027 C 
BRANCH  34  35
ATOM     35  C   UNL     1      35.973 -21.111 -19.538  0.00  0.00    +0.088 C 
ATOM     36  C   UNL     1      36.521 -21.965 -20.683  0.00  0.00    +0.029 C 
ATOM     37  C   UNL     1      36.459 -21.652 -18.193  0.00  0.00    +0.029 C 
BRANCH  35  38
ATOM     38  O   UNL     1      36.530 -19.795 -19.674  0.00  0.00    -0.387 OA
ATOM     39  H   UNL     1      37.284 -19.824 -20.283  0.00  0.00    +0.210 HD
ENDBRANCH  35  38
ENDBRANCH  34  35
ENDBRANCH  33  34
ENDBRANCH  32  33
ENDBRANCH  30  32
ENDBRANCH   2  30
TORSDOF 14
ENDMDL
MODEL 4
REMARK VINA RESULT:      -7.6      2.793     12.017
REMARK  Name = 6918141
REMARK  14 active torsions:
REMARK  status: ('A' for Active; 'I' for Inactive)
REMARK    1  A    between atoms: C_2  and  C_30
REMARK    2  A    between atoms: C_11  and  C_12
REMARK    3  A    between atoms: C_16  and  O_20
REMARK    4  A    between atoms: C_17  and  O_22
REMARK    5  A    between atoms: C_18  and  O_24
REMARK    6  A    between atoms: O_24  and  C_25
REMARK    7  A    between atoms: C_25  and  C_26
REMARK    8  A    between atoms: C_26  and  C_27
REMARK    9  A    between atoms: C_27  and  O_28
REMARK   10  A    between atoms: C_30  and  C_32
REMARK   11  A    between atoms: C_32  and  C_33
REMARK   12  A    between atoms: C_33  and  C_34
REMARK   13  A    between atoms: C_34  and  C_35
REMARK   14  A    between atoms: C_35  and  O_38
REMARK                            x       y       z     vdW  Elec       q    Type
REMARK                         _______ _______ _______ _____ _____    ______ ____
ROOT
ATOM      1  C   UNL     1      32.891  -8.344 -23.343  0.00  0.00    +0.003 C 
ATOM      2  C   UNL     1      32.473  -7.372 -22.209  0.00  0.00    +0.000 C 
ATOM      3  C   UNL     1      33.133  -9.624 -22.504  0.00  0.00    +0.018 C 
ATOM      4  C   UNL     1      31.550  -8.220 -21.307  0.00  0.00    +0.000 C 
ATOM      5  C   UNL     1      31.913  -9.690 -21.580  0.00  0.00    +0.004 C 
ATOM      6  C   UNL     1      34.196  -7.936 -24.068  0.00  0.00    +0.001 C 
ATOM      7  C   UNL     1      33.514 -10.798 -23.368  0.00  0.00    -0.045 C 
ATOM      8  C   UNL     1      31.759  -8.509 -24.389  0.00  0.00    +0.000 C 
ATOM      9  C   UNL     1      35.163  -9.112 -24.303  0.00  0.00    +0.004 C 
ATOM     10  C   UNL     1      34.473 -10.469 -24.494  0.00  0.00    +0.022 C 
ATOM     11  C   UNL     1      33.070 -12.049 -23.180  0.00  0.00    -0.009 C 
ENDROOT
BRANCH  11  12
ATOM     12  C   UNL     1      33.459 -13.159 -24.014  0.00  0.00    -0.005 C 
ATOM     13  C   UNL     1      33.991 -14.293 -23.531  0.00  0.00    -0.021 C 
ATOM     14  C   UNL     1      34.343 -15.451 -24.433  0.00  0.00    +0.058 C 
ATOM     15  C   UNL     1      34.228 -14.513 -22.105  0.00  0.00    +0.003 C 
ATOM     16  C   UNL     1      33.760 -16.769 -23.915  0.00  0.00    +0.145 C 
ATOM     17  C   UNL     1      33.755 -15.842 -21.550  0.00  0.00    +0.162 C 
ATOM     18  C   UNL     1      34.140 -17.027 -22.450  0.00  0.00    +0.173 C 
ATOM     19  C   UNL     1      34.880 -13.625 -21.337  0.00  0.00    -0.002 C 
BRANCH  16  20
ATOM     20  O   UNL     1      34.221 -17.851 -24.716  0.00  0.00    -0.382 OA
ATOM     21  H   UNL     1      33.484 -18.456 -24.896  0.00  0.00    +0.210 HD
ENDBRANCH  16  20
BRANCH  17  22
ATOM     22  O   UNL     1      32.334 -15.783 -21.425  0.00  0.00    -0.377 OA
ATOM     23  H   UNL     1      32.001 -14.997 -21.886  0.00  0.00    +0.211 HD
ENDBRANCH  17  22
BRANCH  18  24
ATOM     24  O   UNL     1      35.540 -17.286 -22.327  0.00  0.00    -0.351 OA
BRANCH  24  25
ATOM     25  C   UNL     1      35.800 -18.228 -21.298  0.00  0.00    +0.145 C 
BRANCH  25  26
ATOM     26  C   UNL     1      34.854 -19.411 -21.432  0.00  0.00    +0.064 C 
BRANCH  26  27
ATOM     27  C   UNL     1      35.165 -20.507 -20.425  0.00  0.00    +0.140 C 
BRANCH  27  28
ATOM     28  O   UNL     1      36.337 -20.151 -19.707  0.00  0.00    -0.382 OA
ATOM     29  H   UNL     1      36.593 -19.242 -19.933  0.00  0.00    +0.210 HD
ENDBRANCH  27  28
ENDBRANCH  26  27
ENDBRANCH  25  26
ENDBRANCH  24  25
ENDBRANCH  18  24
ENDBRANCH  11  12
BRANCH   2  30
ATOM     30  C   UNL     1      31.834  -6.059 -22.641  0.00  0.00    +0.000 C 
ATOM     31  C   UNL     1      30.604  -5.747 -21.784  0.00  0.00    +0.000 C 
BRANCH  30  32
ATOM     32  C   UNL     1      31.505  -6.020 -24.148  0.00  0.00    +0.000 C 
BRANCH  32  33
ATOM     33  C   UNL     1      31.997  -4.772 -24.892  0.00  0.00    +0.002 C 
BRANCH  33  34
ATOM     34  C   UNL     1      32.930  -5.159 -26.046  0.00  0.00    +0.027 C 
BRANCH  34  35
ATOM     35  C   UNL     1      33.226  -4.038 -27.064  0.00  0.00    +0.088 C 
ATOM     36  C   UNL     1      32.601  -2.700 -26.662  0.00  0.00    +0.029 C 
ATOM     37  C   UNL     1      32.800  -4.417 -28.483  0.00  0.00    +0.029 C 
BRANCH  35  38
ATOM     38  O   UNL     1      34.649  -3.859 -27.099  0.00  0.00    -0.387 OA
ATOM     39  H   UNL     1      35.042  -4.232 -26.295  0.00  0.00    +0.210 HD
ENDBRANCH  35  38
ENDBRANCH  34  35
ENDBRANCH  33  34
ENDBRANCH  32  33
ENDBRANCH  30  32
ENDBRANCH   2  30
TORSDOF 14
ENDMDL
MODEL 5
REMARK VINA RESULT:      -6.6      3.771     12.389
REMARK  Name = 6918141
REMARK  14 active torsions:
REMARK  status: ('A' for Active; 'I' for Inactive)
REMARK    1  A    between atoms: C_2  and  C_30
REMARK    2  A    between atoms: C_11  and  C_12
REMARK    3  A    between atoms: C_16  and  O_20
REMARK    4  A    between atoms: C_17  and  O_22
REMARK    5  A    between atoms: C_18  and  O_24
REMARK    6  A    between atoms: O_24  and  C_25
REMARK    7  A    between atoms: C_25  and  C_26
REMARK    8  A    between atoms: C_26  and  C_27
REMARK    9  A    between atoms: C_27  and  O_28
REMARK   10  A    between atoms: C_30  and  C_32
REMARK   11  A    between atoms: C_32  and  C_33
REMARK   12  A    between atoms: C_33  and  C_34
REMARK   13  A    between atoms: C_34  and  C_35
REMARK   14  A    between atoms: C_35  and  O_38
REMARK                            x       y       z     vdW  Elec       q    Type
REMARK                         _______ _______ _______ _____ _____    ______ ____
ROOT
ATOM      1  C   UNL     1      34.606 -17.533 -23.413  0.00  0.00    +0.003 C 
ATOM      2  C   UNL     1      33.904 -17.531 -24.796  0.00  0.00    +0.000 C 
ATOM      3  C   UNL     1      34.280 -18.979 -22.965  0.00  0.00    +0.018 C 
ATOM      4  C   UNL     1      34.247 -18.911 -25.395  0.00  0.00    +0.000 C 
ATOM      5  C   UNL     1      34.591 -19.824 -24.205  0.00  0.00    +0.004 C 
ATOM      6  C   UNL     1      34.007 -16.523 -22.406  0.00  0.00    +0.001 C 
ATOM      7  C   UNL     1      34.897 -19.307 -21.630  0.00  0.00    -0.045 C 
ATOM      8  C   UNL     1      36.127 -17.268 -23.553  0.00  0.00    +0.000 C 
ATOM      9  C   UNL     1      33.807 -17.106 -20.993  0.00  0.00    +0.004 C 
ATOM     10  C   UNL     1      34.823 -18.191 -20.609  0.00  0.00    +0.022 C 
ATOM     11  C   UNL     1      35.466 -20.483 -21.330  0.00  0.00    -0.009 C 
ENDROOT
BRANCH  11  12
ATOM     12  C   UNL     1      36.041 -20.776 -20.041  0.00  0.00    -0.005 C 
ATOM     13  C   UNL     1      35.350 -21.342 -19.038  0.00  0.00    -0.021 C 
ATOM     14  C   UNL     1      36.000 -21.675 -17.716  0.00  0.00    +0.058 C 
ATOM     15  C   UNL     1      33.943 -21.718 -19.157  0.00  0.00    +0.003 C 
ATOM     16  C   UNL     1      35.717 -23.120 -17.296  0.00  0.00    +0.145 C 
ATOM     17  C   UNL     1      33.582 -23.107 -18.671  0.00  0.00    +0.162 C 
ATOM     18  C   UNL     1      34.215 -23.438 -17.310  0.00  0.00    +0.173 C 
ATOM     19  C   UNL     1      33.006 -20.870 -19.612  0.00  0.00    -0.002 C 
BRANCH  16  20
ATOM     20  O   UNL     1      36.234 -23.355 -15.991  0.00  0.00    -0.382 OA
ATOM     21  H   UNL     1      36.775 -24.160 -15.997  0.00  0.00    +0.210 HD
ENDBRANCH  16  20
BRANCH  17  22
ATOM     22  O   UNL     1      34.037 -24.045 -19.646  0.00  0.00    -0.377 OA
ATOM     23  H   UNL     1      33.566 -24.886 -19.531  0.00  0.00    +0.211 HD
ENDBRANCH  17  22
BRANCH  18  24
ATOM     24  O   UNL     1      33.535 -22.721 -16.278  0.00  0.00    -0.351 OA
BRANCH  24  25
ATOM     25  C   UNL     1      32.391 -23.429 -15.828  0.00  0.00    +0.145 C 
BRANCH  25  26
ATOM     26  C   UNL     1      32.303 -23.354 -14.312  0.00  0.00    +0.064 C 
BRANCH  26  27
ATOM     27  C   UNL     1      33.377 -24.191 -13.635  0.00  0.00    +0.140 C 
BRANCH  27  28
ATOM     28  O   UNL     1      34.566 -23.420 -13.537  0.00  0.00    -0.382 OA
ATOM     29  H   UNL     1      34.848 -23.377 -12.610  0.00  0.00    +0.210 HD
ENDBRANCH  27  28
ENDBRANCH  26  27
ENDBRANCH  25  26
ENDBRANCH  24  25
ENDBRANCH  18  24
ENDBRANCH  11  12
BRANCH   2  30
ATOM     30  C   UNL     1      34.248 -16.379 -25.731  0.00  0.00    +0.000 C 
ATOM     31  C   UNL     1      35.353 -15.505 -25.131  0.00  0.00    +0.000 C 
BRANCH  30  32
ATOM     32  C   UNL     1      33.014 -15.543 -26.130  0.00  0.00    +0.000 C 
BRANCH  32  33
ATOM     33  C   UNL     1      33.082 -14.056 -25.758  0.00  0.00    +0.002 C 
BRANCH  33  34
ATOM     34  C   UNL     1      32.550 -13.825 -24.339  0.00  0.00    +0.027 C 
BRANCH  34  35
ATOM     35  C   UNL     1      33.214 -12.671 -23.560  0.00  0.00    +0.088 C 
ATOM     36  C   UNL     1      32.262 -12.018 -22.555  0.00  0.00    +0.029 C 
ATOM     37  C   UNL     1      33.811 -11.613 -24.489  0.00  0.00    +0.029 C 
BRANCH  35  38
ATOM     38  O   UNL     1      34.309 -13.230 -22.820  0.00  0.00    -0.387 OA
ATOM     39  H   UNL     1      34.107 -14.150 -22.589  0.00  0.00    +0.210 HD
ENDBRANCH  35  38
ENDBRANCH  34  35
ENDBRANCH  33  34
ENDBRANCH  32  33
ENDBRANCH  30  32
ENDBRANCH   2  30
TORSDOF 14
ENDMDL
MODEL 6
REMARK VINA RESULT:      -6.4      4.897     14.603
REMARK  Name = 6918141
REMARK  14 active torsions:
REMARK  status: ('A' for Active; 'I' for Inactive)
REMARK    1  A    between atoms: C_2  and  C_30
REMARK    2  A    between atoms: C_11  and  C_12
REMARK    3  A    between atoms: C_16  and  O_20
REMARK    4  A    between atoms: C_17  and  O_22
REMARK    5  A    between atoms: C_18  and  O_24
REMARK    6  A    between atoms: O_24  and  C_25
REMARK    7  A    between atoms: C_25  and  C_26
REMARK    8  A    between atoms: C_26  and  C_27
REMARK    9  A    between atoms: C_27  and  O_28
REMARK   10  A    between atoms: C_30  and  C_32
REMARK   11  A    between atoms: C_32  and  C_33
REMARK   12  A    between atoms: C_33  and  C_34
REMARK   13  A    between atoms: C_34  and  C_35
REMARK   14  A    between atoms: C_35  and  O_38
REMARK                            x       y       z     vdW  Elec       q    Type
REMARK                         _______ _______ _______ _____ _____    ______ ____
ROOT
ATOM      1  C   UNL     1      34.666 -21.060 -20.173  0.00  0.00    +0.003 C 
ATOM      2  C   UNL     1      35.594 -20.289 -21.146  0.00  0.00    +0.000 C 
ATOM      3  C   UNL     1      35.727 -21.597 -19.180  0.00  0.00    +0.018 C 
ATOM      4  C   UNL     1      36.607 -19.583 -20.220  0.00  0.00    +0.000 C 
ATOM      5  C   UNL     1      36.614 -20.379 -18.904  0.00  0.00    +0.004 C 
ATOM      6  C   UNL     1      33.915 -22.244 -20.830  0.00  0.00    +0.001 C 
ATOM      7  C   UNL     1      35.100 -22.370 -18.050  0.00  0.00    -0.045 C 
ATOM      8  C   UNL     1      33.635 -20.113 -19.507  0.00  0.00    +0.000 C 
ATOM      9  C   UNL     1      33.922 -23.527 -19.977  0.00  0.00    +0.004 C 
ATOM     10  C   UNL     1      33.960 -23.278 -18.463  0.00  0.00    +0.022 C 
ATOM     11  C   UNL     1      35.498 -22.296 -16.772  0.00  0.00    -0.009 C 
ENDROOT
BRANCH  11  12
ATOM     12  C   UNL     1      34.888 -23.056 -15.709  0.00  0.00    -0.005 C 
ATOM     13  C   UNL     1      35.591 -23.658 -14.737  0.00  0.00    -0.021 C 
ATOM     14  C   UNL     1      34.913 -24.407 -13.615  0.00  0.00    +0.058 C 
ATOM     15  C   UNL     1      37.050 -23.601 -14.662  0.00  0.00    +0.003 C 
ATOM     16  C   UNL     1      35.435 -23.967 -12.245  0.00  0.00    +0.145 C 
ATOM     17  C   UNL     1      37.632 -23.259 -13.304  0.00  0.00    +0.162 C 
ATOM     18  C   UNL     1      36.966 -24.045 -12.163  0.00  0.00    +0.173 C 
ATOM     19  C   UNL     1      37.838 -23.891 -15.709  0.00  0.00    -0.002 C 
BRANCH  16  20
ATOM     20  O   UNL     1      34.869 -24.784 -11.226  0.00  0.00    -0.382 OA
ATOM     21  H   UNL     1      34.023 -24.404 -10.940  0.00  0.00    +0.210 HD
ENDBRANCH  16  20
BRANCH  17  22
ATOM     22  O   UNL     1      37.448 -21.860 -13.088  0.00  0.00    -0.377 OA
ATOM     23  H   UNL     1      37.867 -21.364 -13.809  0.00  0.00    +0.211 HD
ENDBRANCH  17  22
BRANCH  18  24
ATOM     24  O   UNL     1      37.408 -25.403 -12.194  0.00  0.00    -0.351 OA
BRANCH  24  25
ATOM     25  C   UNL     1      38.806 -25.483 -12.424  0.00  0.00    +0.145 C 
BRANCH  25  26
ATOM     26  C   UNL     1      39.072 -26.215 -13.730  0.00  0.00    +0.064 C 
BRANCH  26  27
ATOM     27  C   UNL     1      40.429 -25.860 -14.316  0.00  0.00    +0.140 C 
BRANCH  27  28
ATOM     28  O   UNL     1      40.418 -26.152 -15.707  0.00  0.00    -0.382 OA
ATOM     29  H   UNL     1      39.700 -25.659 -16.135  0.00  0.00    +0.210 HD
ENDBRANCH  27  28
ENDBRANCH  26  27
ENDBRANCH  25  26
ENDBRANCH  24  25
ENDBRANCH  18  24
ENDBRANCH  11  12
BRANCH   2  30
ATOM     30  C   UNL     1      34.915 -19.333 -22.118  0.00  0.00    +0.000 C 
ATOM     31  C   UNL     1      35.186 -19.750 -23.566  0.00  0.00    +0.000 C 
BRANCH  30  32
ATOM     32  C   UNL     1      35.293 -17.857 -21.869  0.00  0.00    +0.000 C 
BRANCH  32  33
ATOM     33  C   UNL     1      34.129 -16.942 -21.470  0.00  0.00    +0.002 C 
BRANCH  33  34
ATOM     34  C   UNL     1      34.532 -15.467 -21.583  0.00  0.00    +0.027 C 
BRANCH  34  35
ATOM     35  C   UNL     1      33.748 -14.642 -22.624  0.00  0.00    +0.088 C 
ATOM     36  C   UNL     1      32.388 -14.175 -22.098  0.00  0.00    +0.029 C 
ATOM     37  C   UNL     1      33.576 -15.390 -23.946  0.00  0.00    +0.029 C 
BRANCH  35  38
ATOM     38  O   UNL     1      34.525 -13.472 -22.915  0.00  0.00    -0.387 OA
ATOM     39  H   UNL     1      33.992 -12.679 -22.747  0.00  0.00    +0.210 HD
ENDBRANCH  35  38
ENDBRANCH  34  35
ENDBRANCH  33  34
ENDBRANCH  32  33
ENDBRANCH  30  32
ENDBRANCH   2  30
TORSDOF 14
ENDMDL
MODEL 7
REMARK VINA RESULT:      -6.1      2.088     12.138
REMARK  Name = 6918141
REMARK  14 active torsions:
REMARK  status: ('A' for Active; 'I' for Inactive)
REMARK    1  A    between atoms: C_2  and  C_30
REMARK    2  A    between atoms: C_11  and  C_12
REMARK    3  A    between atoms: C_16  and  O_20
REMARK    4  A    between atoms: C_17  and  O_22
REMARK    5  A    between atoms: C_18  and  O_24
REMARK    6  A    between atoms: O_24  and  C_25
REMARK    7  A    between atoms: C_25  and  C_26
REMARK    8  A    between atoms: C_26  and  C_27
REMARK    9  A    between atoms: C_27  and  O_28
REMARK   10  A    between atoms: C_30  and  C_32
REMARK   11  A    between atoms: C_32  and  C_33
REMARK   12  A    between atoms: C_33  and  C_34
REMARK   13  A    between atoms: C_34  and  C_35
REMARK   14  A    between atoms: C_35  and  O_38
REMARK                            x       y       z     vdW  Elec       q    Type
REMARK                         _______ _______ _______ _____ _____    ______ ____
ROOT
ATOM      1  C   UNL     1      33.753 -15.259 -23.326  0.00  0.00    +0.003 C 
ATOM      2  C   UNL     1      33.051 -15.086 -24.697  0.00  0.00    +0.000 C 
ATOM      3  C   UNL     1      33.946 -16.796 -23.331  0.00  0.00    +0.018 C 
ATOM      4  C   UNL     1      33.820 -16.038 -25.638  0.00  0.00    +0.000 C 
ATOM      5  C   UNL     1      34.486 -17.090 -24.735  0.00  0.00    +0.004 C 
ATOM      6  C   UNL     1      32.880 -14.843 -22.118  0.00  0.00    +0.001 C 
ATOM      7  C   UNL     1      34.677 -17.275 -22.104  0.00  0.00    -0.045 C 
ATOM      8  C   UNL     1      35.092 -14.479 -23.277  0.00  0.00    +0.000 C 
ATOM      9  C   UNL     1      32.930 -15.844 -20.948  0.00  0.00    +0.004 C 
ATOM     10  C   UNL     1      34.263 -16.595 -20.816  0.00  0.00    +0.022 C 
ATOM     11  C   UNL     1      35.617 -18.232 -22.111  0.00  0.00    -0.009 C 
ENDROOT
BRANCH  11  12
ATOM     12  C   UNL     1      36.295 -18.681 -20.920  0.00  0.00    -0.005 C 
ATOM     13  C   UNL     1      35.832 -19.668 -20.137  0.00  0.00    -0.021 C 
ATOM     14  C   UNL     1      36.595 -20.141 -18.923  0.00  0.00    +0.058 C 
ATOM     15  C   UNL     1      34.591 -20.387 -20.418  0.00  0.00    +0.003 C 
ATOM     16  C   UNL     1      36.758 -21.664 -18.916  0.00  0.00    +0.145 C 
ATOM     17  C   UNL     1      34.665 -21.899 -20.335  0.00  0.00    +0.162 C 
ATOM     18  C   UNL     1      35.413 -22.385 -19.083  0.00  0.00    +0.173 C 
ATOM     19  C   UNL     1      33.434 -19.756 -20.674  0.00  0.00    -0.002 C 
BRANCH  16  20
ATOM     20  O   UNL     1      37.364 -22.080 -17.697  0.00  0.00    -0.382 OA
ATOM     21  H   UNL     1      36.744 -22.639 -17.202  0.00  0.00    +0.210 HD
ENDBRANCH  16  20
BRANCH  17  22
ATOM     22  O   UNL     1      35.339 -22.369 -21.503  0.00  0.00    -0.377 OA
ATOM     23  H   UNL     1      34.980 -21.921 -22.286  0.00  0.00    +0.211 HD
ENDBRANCH  17  22
BRANCH  18  24
ATOM     24  O   UNL     1      34.589 -22.197 -17.931  0.00  0.00    -0.351 OA
BRANCH  24  25
ATOM     25  C   UNL     1      33.430 -23.014 -17.989  0.00  0.00    +0.145 C 
BRANCH  25  26
ATOM     26  C   UNL     1      33.093 -23.528 -16.598  0.00  0.00    +0.064 C 
BRANCH  26  27
ATOM     27  C   UNL     1      34.231 -23.306 -15.616  0.00  0.00    +0.140 C 
BRANCH  27  28
ATOM     28  O   UNL     1      35.368 -24.033 -16.059  0.00  0.00    -0.382 OA
ATOM     29  H   UNL     1      36.111 -23.870 -15.457  0.00  0.00    +0.210 HD
ENDBRANCH  27  28
ENDBRANCH  26  27
ENDBRANCH  25  26
ENDBRANCH  24  25
ENDBRANCH  18  24
ENDBRANCH  11  12
BRANCH   2  30
ATOM     30  C   UNL     1      32.959 -13.666 -25.239  0.00  0.00    +0.000 C 
ATOM     31  C   UNL     1      33.291 -13.634 -26.734  0.00  0.00    +0.000 C 
BRANCH  30  32
ATOM     32  C   UNL     1      33.819 -12.664 -24.442  0.00  0.00    +0.000 C 
BRANCH  32  33
ATOM     33  C   UNL     1      33.418 -11.191 -24.595  0.00  0.00    +0.002 C 
BRANCH  33  34
ATOM     34  C   UNL     1      32.907 -10.625 -23.265  0.00  0.00    +0.027 C 
BRANCH  34  35
ATOM     35  C   UNL     1      32.950  -9.088 -23.138  0.00  0.00    +0.088 C 
ATOM     36  C   UNL     1      34.259  -8.492 -23.661  0.00  0.00    +0.029 C 
ATOM     37  C   UNL     1      32.688  -8.617 -21.707  0.00  0.00    +0.029 C 
BRANCH  35  38
ATOM     38  O   UNL     1      31.883  -8.563 -23.942  0.00  0.00    -0.387 OA
ATOM     39  H   UNL     1      31.051  -8.608 -23.445  0.00  0.00    +0.210 HD
ENDBRANCH  35  38
ENDBRANCH  34  35
ENDBRANCH  33  34
ENDBRANCH  32  33
ENDBRANCH  30  32
ENDBRANCH   2  30
TORSDOF 14
ENDMDL
MODEL 8
REMARK VINA RESULT:      -6.1      3.068     13.157
REMARK  Name = 6918141
REMARK  14 active torsions:
REMARK  status: ('A' for Active; 'I' for Inactive)
REMARK    1  A    between atoms: C_2  and  C_30
REMARK    2  A    between atoms: C_11  and  C_12
REMARK    3  A    between atoms: C_16  and  O_20
REMARK    4  A    between atoms: C_17  and  O_22
REMARK    5  A    between atoms: C_18  and  O_24
REMARK    6  A    between atoms: O_24  and  C_25
REMARK    7  A    between atoms: C_25  and  C_26
REMARK    8  A    between atoms: C_26  and  C_27
REMARK    9  A    between atoms: C_27  and  O_28
REMARK   10  A    between atoms: C_30  and  C_32
REMARK   11  A    between atoms: C_32  and  C_33
REMARK   12  A    between atoms: C_33  and  C_34
REMARK   13  A    between atoms: C_34  and  C_35
REMARK   14  A    between atoms: C_35  and  O_38
REMARK                            x       y       z     vdW  Elec       q    Type
REMARK                         _______ _______ _______ _____ _____    ______ ____
ROOT
ATOM      1  C   UNL     1      33.938 -17.211 -21.521  0.00  0.00    +0.003 C 
ATOM      2  C   UNL     1      34.508 -16.547 -22.800  0.00  0.00    +0.000 C 
ATOM      3  C   UNL     1      34.269 -18.692 -21.834  0.00  0.00    +0.018 C 
ATOM      4  C   UNL     1      35.839 -17.288 -23.049  0.00  0.00    +0.000 C 
ATOM      5  C   UNL     1      35.718 -18.643 -22.331  0.00  0.00    +0.004 C 
ATOM      6  C   UNL     1      32.409 -17.038 -21.354  0.00  0.00    +0.001 C 
ATOM      7  C   UNL     1      33.867 -19.608 -20.708  0.00  0.00    -0.045 C 
ATOM      8  C   UNL     1      34.650 -16.685 -20.248  0.00  0.00    +0.000 C 
ATOM      9  C   UNL     1      31.686 -18.331 -20.930  0.00  0.00    +0.004 C 
ATOM     10  C   UNL     1      32.534 -19.276 -20.069  0.00  0.00    +0.022 C 
ATOM     11  C   UNL     1      34.598 -20.649 -20.284  0.00  0.00    -0.009 C 
ENDROOT
BRANCH  11  12
ATOM     12  C   UNL     1      34.186 -21.519 -19.211  0.00  0.00    -0.005 C 
ATOM     13  C   UNL     1      35.049 -22.123 -18.379  0.00  0.00    -0.021 C 
ATOM     14  C   UNL     1      34.576 -22.991 -17.238  0.00  0.00    +0.058 C 
ATOM     15  C   UNL     1      36.498 -21.956 -18.482  0.00  0.00    +0.003 C 
ATOM     16  C   UNL     1      35.239 -22.596 -15.915  0.00  0.00    +0.145 C 
ATOM     17  C   UNL     1      37.225 -21.654 -17.186  0.00  0.00    +0.162 C 
ATOM     18  C   UNL     1      36.770 -22.558 -16.030  0.00  0.00    +0.173 C 
ATOM     19  C   UNL     1      37.162 -22.119 -19.637  0.00  0.00    -0.002 C 
BRANCH  16  20
ATOM     20  O   UNL     1      34.868 -23.516 -14.894  0.00  0.00    -0.382 OA
ATOM     21  H   UNL     1      34.818 -23.052 -14.043  0.00  0.00    +0.210 HD
ENDBRANCH  16  20
BRANCH  17  22
ATOM     22  O   UNL     1      36.973 -20.290 -16.850  0.00  0.00    -0.377 OA
ATOM     23  H   UNL     1      36.501 -19.859 -17.580  0.00  0.00    +0.211 HD
ENDBRANCH  17  22
BRANCH  18  24
ATOM     24  O   UNL     1      37.298 -23.873 -16.213  0.00  0.00    -0.351 OA
BRANCH  24  25
ATOM     25  C   UNL     1      38.008 -24.306 -15.063  0.00  0.00    +0.145 C 
BRANCH  25  26
ATOM     26  C   UNL     1      37.496 -25.670 -14.626  0.00  0.00    +0.064 C 
BRANCH  26  27
ATOM     27  C   UNL     1      37.270 -25.740 -13.124  0.00  0.00    +0.140 C 
BRANCH  27  28
ATOM     28  O   UNL     1      35.883 -25.585 -12.861  0.00  0.00    -0.382 OA
ATOM     29  H   UNL     1      35.484 -26.455 -12.701  0.00  0.00    +0.210 HD
ENDBRANCH  27  28
ENDBRANCH  26  27
ENDBRANCH  25  26
ENDBRANCH  24  25
ENDBRANCH  18  24
ENDBRANCH  11  12
BRANCH   2  30
ATOM     30  C   UNL     1      34.673 -15.033 -22.765  0.00  0.00    +0.000 C 
ATOM     31  C   UNL     1      34.875 -14.544 -21.328  0.00  0.00    +0.000 C 
BRANCH  30  32
ATOM     32  C   UNL     1      33.516 -14.288 -23.463  0.00  0.00    +0.000 C 
BRANCH  32  33
ATOM     33  C   UNL     1      32.479 -13.662 -22.522  0.00  0.00    +0.002 C 
BRANCH  33  34
ATOM     34  C   UNL     1      32.423 -12.141 -22.709  0.00  0.00    +0.027 C 
BRANCH  34  35
ATOM     35  C   UNL     1      31.613 -11.371 -21.645  0.00  0.00    +0.088 C 
ATOM     36  C   UNL     1      31.922  -9.872 -21.644  0.00  0.00    +0.029 C 
ATOM     37  C   UNL     1      31.798 -11.951 -20.243  0.00  0.00    +0.029 C 
BRANCH  35  38
ATOM     38  O   UNL     1      30.224 -11.527 -21.971  0.00  0.00    -0.387 OA
ATOM     39  H   UNL     1      30.116 -11.527 -22.935  0.00  0.00    +0.210 HD
ENDBRANCH  35  38
ENDBRANCH  34  35
ENDBRANCH  33  34
ENDBRANCH  32  33
ENDBRANCH  30  32
ENDBRANCH   2  30
TORSDOF 14
ENDMDL
