MODEL 1
REMARK VINA RESULT:      -8.9      0.000      0.000
REMARK  Name = 54687
REMARK  15 active torsions:
REMARK  status: ('A' for Active; 'I' for Inactive)
REMARK    1  A    between atoms: C_2  and  C_21
REMARK    2  A    between atoms: C_3  and  O_14
REMARK    3  A    between atoms: C_7  and  O_12
REMARK    4  A    between atoms: O_14  and  C_16
REMARK    5  A    between atoms: C_16  and  C_17
REMARK    6  A    between atoms: C_17  and  C_19
REMARK    7  A    between atoms: C_21  and  C_22
REMARK    8  A    between atoms: C_22  and  C_23
REMARK    9  A    between atoms: C_23  and  O_24
REMARK   10  A    between atoms: C_23  and  C_26
REMARK   11  A    between atoms: C_26  and  C_27
REMARK   12  A    between atoms: C_27  and  O_28
REMARK   13  A    between atoms: C_27  and  C_30
REMARK   14  A    between atoms: C_30  and  C_32
REMARK   15  A    between atoms: C_32  and  O_33
REMARK                            x       y       z     vdW  Elec       q    Type
REMARK                         _______ _______ _______ _____ _____    ______ ____
ROOT
ATOM      1  C   UNL     1      33.282 -14.987 -22.916  0.00  0.00    +0.063 C 
ATOM      2  C   UNL     1      33.239 -13.983 -21.727  0.00  0.00    +0.012 C 
ATOM      3  C   UNL     1      33.242 -14.310 -24.310  0.00  0.00    +0.175 C 
ATOM      4  C   UNL     1      33.275 -14.725 -20.358  0.00  0.00    +0.022 C 
ATOM      5  C   UNL     1      34.476 -15.932 -22.788  0.00  0.00    -0.021 C 
ATOM      6  C   UNL     1      33.436 -15.353 -25.411  0.00  0.00    +0.078 C 
ATOM      7  C   UNL     1      34.780 -16.073 -25.280  0.00  0.00    +0.136 C 
ATOM      8  C   UNL     1      34.350 -15.781 -20.343  0.00  0.00    -0.027 C 
ATOM      9  C   UNL     1      35.133 -16.411 -23.860  0.00  0.00    -0.002 C 
ATOM     10  C   UNL     1      34.892 -16.304 -21.448  0.00  0.00    -0.009 C 
ATOM     11  C   UNL     1      31.945 -15.361 -19.943  0.00  0.00    +0.005 C 
ENDROOT
BRANCH   7  12
ATOM     12  O   UNL     1      34.719 -17.264 -26.061  0.00  0.00    -0.380 OA
ATOM     13  H   UNL     1      35.321 -17.187 -26.818  0.00  0.00    +0.211 HD
ENDBRANCH   7  12
BRANCH   3  14
ATOM     14  O   UNL     1      34.257 -13.319 -24.445  0.00  0.00    -0.452 OA
BRANCH  14  16
ATOM     15  O   UNL     1      33.141 -12.255 -26.160  0.00  0.00    -0.250 OA
ATOM     16  C   UNL     1      33.939 -12.247 -25.233  0.00  0.00    +0.316 C 
BRANCH  16  17
ATOM     17  C   UNL     1      34.750 -11.035 -24.804  0.00  0.00    +0.099 C 
ATOM     18  C   UNL     1      35.414 -10.439 -26.041  0.00  0.00    +0.012 C 
BRANCH  17  19
ATOM     19  C   UNL     1      33.872  -9.994 -24.095  0.00  0.00    +0.011 C 
ATOM     20  C   UNL     1      34.565  -8.645 -23.949  0.00  0.00    +0.001 C 
ENDBRANCH  17  19
ENDBRANCH  16  17
ENDBRANCH  14  16
ENDBRANCH   3  14
BRANCH   2  21
ATOM     21  C   UNL     1      32.052 -13.016 -21.811  0.00  0.00    +0.003 C 
BRANCH  21  22
ATOM     22  C   UNL     1      32.004 -12.103 -20.587  0.00  0.00    +0.029 C 
BRANCH  22  23
ATOM     23  C   UNL     1      31.061 -10.904 -20.744  0.00  0.00    +0.113 C 
BRANCH  23  24
ATOM     24  O   UNL     1      30.565 -10.554 -19.449  0.00  0.00    -0.384 OA
ATOM     25  H   UNL     1      29.982  -9.783 -19.522  0.00  0.00    +0.210 HD
ENDBRANCH  23  24
BRANCH  23  26
ATOM     26  C   UNL     1      31.683  -9.652 -21.381  0.00  0.00    +0.059 C 
BRANCH  26  27
ATOM     27  C   UNL     1      31.949  -8.492 -20.415  0.00  0.00    +0.124 C 
BRANCH  27  28
ATOM     28  O   UNL     1      32.779  -8.942 -19.346  0.00  0.00    -0.384 OA
ATOM     29  H   UNL     1      33.507  -8.314 -19.216  0.00  0.00    +0.210 HD
ENDBRANCH  27  28
BRANCH  27  30
ATOM     30  C   UNL     1      32.675  -7.353 -21.130  0.00  0.00    +0.139 C 
BRANCH  30  32
ATOM     31  O   UNL     1      31.398  -6.609 -23.042  0.00  0.00    -0.250 OA
ATOM     32  C   UNL     1      31.701  -6.464 -21.864  0.00  0.00    +0.316 C 
BRANCH  32  33
ATOM     33  O   UNL     1      31.178  -5.494 -21.074  0.00  0.00    -0.480 OA
ATOM     34  H   UNL     1      31.743  -4.872 -20.660  0.00  0.00    +0.295 HD
ENDBRANCH  32  33
ENDBRANCH  30  32
ENDBRANCH  27  30
ENDBRANCH  26  27
ENDBRANCH  23  26
ENDBRANCH  22  23
ENDBRANCH  21  22
ENDBRANCH   2  21
TORSDOF 15
ENDMDL
MODEL 2
REMARK VINA RESULT:      -8.2      9.914     14.045
REMARK  Name = 54687
REMARK  15 active torsions:
REMARK  status: ('A' for Active; 'I' for Inactive)
REMARK    1  A    between atoms: C_2  and  C_21
REMARK    2  A    between atoms: C_3  and  O_14
REMARK    3  A    between atoms: C_7  and  O_12
REMARK    4  A    between atoms: O_14  and  C_16
REMARK    5  A    between atoms: C_16  and  C_17
REMARK    6  A    between atoms: C_17  and  C_19
REMARK    7  A    between atoms: C_21  and  C_22
REMARK    8  A    between atoms: C_22  and  C_23
REMARK    9  A    between atoms: C_23  and  O_24
REMARK   10  A    between atoms: C_23  and  C_26
REMARK   11  A    between atoms: C_26  and  C_27
REMARK   12  A    between atoms: C_27  and  O_28
REMARK   13  A    between atoms: C_27  and  C_30
REMARK   14  A    between atoms: C_30  and  C_32
REMARK   15  A    between atoms: C_32  and  O_33
REMARK                            x       y       z     vdW  Elec       q    Type
REMARK                         _______ _______ _______ _____ _____    ______ ____
ROOT
ATOM      1  C   UNL     1      35.663 -23.370 -14.050  0.00  0.00    +0.063 C 
ATOM      2  C   UNL     1      35.702 -23.440 -15.605  0.00  0.00    +0.012 C 
ATOM      3  C   UNL     1      34.251 -23.582 -13.448  0.00  0.00    +0.175 C 
ATOM      4  C   UNL     1      37.144 -23.213 -16.146  0.00  0.00    +0.022 C 
ATOM      5  C   UNL     1      36.682 -24.329 -13.436  0.00  0.00    -0.021 C 
ATOM      6  C   UNL     1      34.329 -23.644 -11.923  0.00  0.00    +0.078 C 
ATOM      7  C   UNL     1      35.217 -24.795 -11.446  0.00  0.00    +0.136 C 
ATOM      8  C   UNL     1      38.146 -24.041 -15.384  0.00  0.00    -0.027 C 
ATOM      9  C   UNL     1      36.466 -24.957 -12.266  0.00  0.00    -0.002 C 
ATOM     10  C   UNL     1      37.916 -24.551 -14.168  0.00  0.00    -0.009 C 
ATOM     11  C   UNL     1      37.602 -21.751 -16.145  0.00  0.00    +0.005 C 
ENDROOT
BRANCH   7  12
ATOM     12  O   UNL     1      35.561 -24.553 -10.084  0.00  0.00    -0.380 OA
ATOM     13  H   UNL     1      35.828 -23.626  -9.978  0.00  0.00    +0.211 HD
ENDBRANCH   7  12
BRANCH   3  14
ATOM     14  O   UNL     1      33.653 -24.788 -13.917  0.00  0.00    -0.452 OA
BRANCH  14  16
ATOM     15  O   UNL     1      31.690 -25.394 -12.867  0.00  0.00    -0.250 OA
ATOM     16  C   UNL     1      32.292 -24.864 -13.791  0.00  0.00    +0.316 C 
BRANCH  16  17
ATOM     17  C   UNL     1      31.628 -24.213 -14.992  0.00  0.00    +0.099 C 
ATOM     18  C   UNL     1      30.455 -25.087 -15.425  0.00  0.00    +0.012 C 
BRANCH  17  19
ATOM     19  C   UNL     1      31.161 -22.786 -14.671  0.00  0.00    +0.011 C 
ATOM     20  C   UNL     1      29.709 -22.542 -15.063  0.00  0.00    +0.001 C 
ENDBRANCH  17  19
ENDBRANCH  16  17
ENDBRANCH  14  16
ENDBRANCH   3  14
BRANCH   2  21
ATOM     21  C   UNL     1      34.697 -22.489 -16.266  0.00  0.00    +0.003 C 
BRANCH  21  22
ATOM     22  C   UNL     1      33.885 -23.214 -17.339  0.00  0.00    +0.029 C 
BRANCH  22  23
ATOM     23  C   UNL     1      34.079 -22.648 -18.751  0.00  0.00    +0.113 C 
BRANCH  23  24
ATOM     24  O   UNL     1      33.968 -23.727 -19.683  0.00  0.00    -0.384 OA
ATOM     25  H   UNL     1      34.854 -24.051 -19.911  0.00  0.00    +0.210 HD
ENDBRANCH  23  24
BRANCH  23  26
ATOM     26  C   UNL     1      33.092 -21.545 -19.163  0.00  0.00    +0.059 C 
BRANCH  26  27
ATOM     27  C   UNL     1      33.467 -20.778 -20.437  0.00  0.00    +0.124 C 
BRANCH  27  28
ATOM     28  O   UNL     1      32.673 -19.597 -20.534  0.00  0.00    -0.384 OA
ATOM     29  H   UNL     1      33.159 -18.849 -20.153  0.00  0.00    +0.210 HD
ENDBRANCH  27  28
BRANCH  27  30
ATOM     30  C   UNL     1      34.936 -20.358 -20.399  0.00  0.00    +0.139 C 
BRANCH  30  32
ATOM     31  O   UNL     1      35.495 -18.020 -20.646  0.00  0.00    -0.250 OA
ATOM     32  C   UNL     1      35.154 -19.075 -21.164  0.00  0.00    +0.316 C 
BRANCH  32  33
ATOM     33  O   UNL     1      34.949 -19.220 -22.497  0.00  0.00    -0.480 OA
ATOM     34  H   UNL     1      34.706 -18.479 -23.017  0.00  0.00    +0.295 HD
ENDBRANCH  32  33
ENDBRANCH  30  32
ENDBRANCH  27  30
ENDBRANCH  26  27
ENDBRANCH  23  26
ENDBRANCH  22  23
ENDBRANCH  21  22
ENDBRANCH   2  21
TORSDOF 15
ENDMDL
MODEL 3
REMARK VINA RESULT:      -8.2     10.681     14.966
REMARK  Name = 54687
REMARK  15 active torsions:
REMARK  status: ('A' for Active; 'I' for Inactive)
REMARK    1  A    between atoms: C_2  and  C_21
REMARK    2  A    between atoms: C_3  and  O_14
REMARK    3  A    between atoms: C_7  and  O_12
REMARK    4  A    between atoms: O_14  and  C_16
REMARK    5  A    between atoms: C_16  and  C_17
REMARK    6  A    between atoms: C_17  and  C_19
REMARK    7  A    between atoms: C_21  and  C_22
REMARK    8  A    between atoms: C_22  and  C_23
REMARK    9  A    between atoms: C_23  and  O_24
REMARK   10  A    between atoms: C_23  and  C_26
REMARK   11  A    between atoms: C_26  and  C_27
REMARK   12  A    between atoms: C_27  and  O_28
REMARK   13  A    between atoms: C_27  and  C_30
REMARK   14  A    between atoms: C_30  and  C_32
REMARK   15  A    between atoms: C_32  and  O_33
REMARK                            x       y       z     vdW  Elec       q    Type
REMARK                         _______ _______ _______ _____ _____    ______ ____
ROOT
ATOM      1  C   UNL     1      32.409 -23.246 -15.459  0.00  0.00    +0.063 C 
ATOM      2  C   UNL     1      33.703 -24.033 -15.100  0.00  0.00    +0.012 C 
ATOM      3  C   UNL     1      32.393 -22.693 -16.907  0.00  0.00    +0.175 C 
ATOM      4  C   UNL     1      33.659 -24.555 -13.633  0.00  0.00    +0.022 C 
ATOM      5  C   UNL     1      31.163 -24.082 -15.166  0.00  0.00    -0.021 C 
ATOM      6  C   UNL     1      31.035 -22.066 -17.220  0.00  0.00    +0.078 C 
ATOM      7  C   UNL     1      29.898 -23.083 -17.096  0.00  0.00    +0.136 C 
ATOM      8  C   UNL     1      32.337 -25.209 -13.330  0.00  0.00    -0.027 C 
ATOM      9  C   UNL     1      30.046 -23.993 -15.910  0.00  0.00    -0.002 C 
ATOM     10  C   UNL     1      31.223 -24.997 -14.041  0.00  0.00    -0.009 C 
ATOM     11  C   UNL     1      33.945 -23.490 -12.569  0.00  0.00    +0.005 C 
ENDROOT
BRANCH   7  12
ATOM     12  O   UNL     1      28.671 -22.364 -17.004  0.00  0.00    -0.380 OA
ATOM     13  H   UNL     1      28.666 -21.646 -17.656  0.00  0.00    +0.211 HD
ENDBRANCH   7  12
BRANCH   3  14
ATOM     14  O   UNL     1      32.647 -23.717 -17.865  0.00  0.00    -0.452 OA
BRANCH  14  16
ATOM     15  O   UNL     1      33.989 -24.175 -19.686  0.00  0.00    -0.250 OA
ATOM     16  C   UNL     1      33.549 -23.402 -18.846  0.00  0.00    +0.316 C 
BRANCH  16  17
ATOM     17  C   UNL     1      33.952 -21.942 -18.722  0.00  0.00    +0.099 C 
ATOM     18  C   UNL     1      35.474 -21.858 -18.768  0.00  0.00    +0.012 C 
BRANCH  17  19
ATOM     19  C   UNL     1      33.321 -21.090 -19.833  0.00  0.00    +0.011 C 
ATOM     20  C   UNL     1      34.337 -20.194 -20.531  0.00  0.00    +0.001 C 
ENDBRANCH  17  19
ENDBRANCH  16  17
ENDBRANCH  14  16
ENDBRANCH   3  14
BRANCH   2  21
ATOM     21  C   UNL     1      34.981 -23.230 -15.373  0.00  0.00    +0.003 C 
BRANCH  21  22
ATOM     22  C   UNL     1      36.132 -24.154 -15.767  0.00  0.00    +0.029 C 
BRANCH  22  23
ATOM     23  C   UNL     1      37.381 -23.997 -14.890  0.00  0.00    +0.113 C 
BRANCH  23  24
ATOM     24  O   UNL     1      37.566 -22.605 -14.624  0.00  0.00    -0.384 OA
ATOM     25  H   UNL     1      37.177 -22.082 -15.343  0.00  0.00    +0.210 HD
ENDBRANCH  23  24
BRANCH  23  26
ATOM     26  C   UNL     1      37.347 -24.749 -13.551  0.00  0.00    +0.059 C 
BRANCH  26  27
ATOM     27  C   UNL     1      38.455 -25.792 -13.361  0.00  0.00    +0.124 C 
BRANCH  27  28
ATOM     28  O   UNL     1      38.226 -26.896 -14.233  0.00  0.00    -0.384 OA
ATOM     29  H   UNL     1      39.062 -27.155 -14.654  0.00  0.00    +0.210 HD
ENDBRANCH  27  28
BRANCH  27  30
ATOM     30  C   UNL     1      39.820 -25.194 -13.703  0.00  0.00    +0.139 C 
BRANCH  30  32
ATOM     31  O   UNL     1      41.332 -27.013 -14.193  0.00  0.00    -0.250 OA
ATOM     32  C   UNL     1      40.607 -26.116 -14.602  0.00  0.00    +0.316 C 
BRANCH  32  33
ATOM     33  O   UNL     1      40.413 -25.856 -15.918  0.00  0.00    -0.480 OA
ATOM     34  H   UNL     1      40.414 -26.558 -16.540  0.00  0.00    +0.295 HD
ENDBRANCH  32  33
ENDBRANCH  30  32
ENDBRANCH  27  30
ENDBRANCH  26  27
ENDBRANCH  23  26
ENDBRANCH  22  23
ENDBRANCH  21  22
ENDBRANCH   2  21
TORSDOF 15
ENDMDL
MODEL 4
REMARK VINA RESULT:      -8.1      2.020      4.501
REMARK  Name = 54687
REMARK  15 active torsions:
REMARK  status: ('A' for Active; 'I' for Inactive)
REMARK    1  A    between atoms: C_2  and  C_21
REMARK    2  A    between atoms: C_3  and  O_14
REMARK    3  A    between atoms: C_7  and  O_12
REMARK    4  A    between atoms: O_14  and  C_16
REMARK    5  A    between atoms: C_16  and  C_17
REMARK    6  A    between atoms: C_17  and  C_19
REMARK    7  A    between atoms: C_21  and  C_22
REMARK    8  A    between atoms: C_22  and  C_23
REMARK    9  A    between atoms: C_23  and  O_24
REMARK   10  A    between atoms: C_23  and  C_26
REMARK   11  A    between atoms: C_26  and  C_27
REMARK   12  A    between atoms: C_27  and  O_28
REMARK   13  A    between atoms: C_27  and  C_30
REMARK   14  A    between atoms: C_30  and  C_32
REMARK   15  A    between atoms: C_32  and  O_33
REMARK                            x       y       z     vdW  Elec       q    Type
REMARK                         _______ _______ _______ _____ _____    ______ ____
ROOT
ATOM      1  C   UNL     1      34.146 -13.258 -24.195  0.00  0.00    +0.063 C 
ATOM      2  C   UNL     1      33.489 -11.901 -24.586  0.00  0.00    +0.012 C 
ATOM      3  C   UNL     1      33.944 -13.647 -22.708  0.00  0.00    +0.175 C 
ATOM      4  C   UNL     1      33.734 -11.566 -26.087  0.00  0.00    +0.022 C 
ATOM      5  C   UNL     1      33.689 -14.375 -25.132  0.00  0.00    -0.021 C 
ATOM      6  C   UNL     1      34.489 -15.051 -22.449  0.00  0.00    +0.078 C 
ATOM      7  C   UNL     1      33.782 -16.102 -23.307  0.00  0.00    +0.136 C 
ATOM      8  C   UNL     1      33.449 -12.758 -26.962  0.00  0.00    -0.027 C 
ATOM      9  C   UNL     1      33.533 -15.645 -24.716  0.00  0.00    -0.002 C 
ATOM     10  C   UNL     1      33.417 -14.018 -26.513  0.00  0.00    -0.009 C 
ATOM     11  C   UNL     1      35.139 -11.041 -26.401  0.00  0.00    +0.005 C 
ENDROOT
BRANCH   7  12
ATOM     12  O   UNL     1      34.586 -17.279 -23.315  0.00  0.00    -0.380 OA
ATOM     13  H   UNL     1      34.480 -17.749 -22.473  0.00  0.00    +0.211 HD
ENDBRANCH   7  12
BRANCH   3  14
ATOM     14  O   UNL     1      32.567 -13.624 -22.340  0.00  0.00    -0.452 OA
BRANCH  14  16
ATOM     15  O   UNL     1      32.340 -14.085 -20.091  0.00  0.00    -0.250 OA
ATOM     16  C   UNL     1      32.308 -13.306 -21.034  0.00  0.00    +0.316 C 
BRANCH  16  17
ATOM     17  C   UNL     1      31.940 -11.836 -20.926  0.00  0.00    +0.099 C 
ATOM     18  C   UNL     1      30.742 -11.572 -21.833  0.00  0.00    +0.012 C 
BRANCH  17  19
ATOM     19  C   UNL     1      31.629 -11.440 -19.476  0.00  0.00    +0.011 C 
ATOM     20  C   UNL     1      31.592  -9.930 -19.276  0.00  0.00    +0.001 C 
ENDBRANCH  17  19
ENDBRANCH  16  17
ENDBRANCH  14  16
ENDBRANCH   3  14
BRANCH   2  21
ATOM     21  C   UNL     1      33.924 -10.748 -23.673  0.00  0.00    +0.003 C 
BRANCH  21  22
ATOM     22  C   UNL     1      32.958  -9.570 -23.786  0.00  0.00    +0.029 C 
BRANCH  22  23
ATOM     23  C   UNL     1      33.027  -8.596 -22.602  0.00  0.00    +0.113 C 
BRANCH  23  24
ATOM     24  O   UNL     1      34.217  -7.815 -22.736  0.00  0.00    -0.384 OA
ATOM     25  H   UNL     1      34.960  -8.283 -22.324  0.00  0.00    +0.210 HD
ENDBRANCH  23  24
BRANCH  23  26
ATOM     26  C   UNL     1      31.831  -7.643 -22.460  0.00  0.00    +0.059 C 
BRANCH  26  27
ATOM     27  C   UNL     1      32.159  -6.155 -22.638  0.00  0.00    +0.124 C 
BRANCH  27  28
ATOM     28  O   UNL     1      32.658  -5.931 -23.954  0.00  0.00    -0.384 OA
ATOM     29  H   UNL     1      31.919  -5.918 -24.583  0.00  0.00    +0.210 HD
ENDBRANCH  27  28
BRANCH  27  30
ATOM     30  C   UNL     1      30.903  -5.303 -22.456  0.00  0.00    +0.139 C 
BRANCH  30  32
ATOM     31  O   UNL     1      30.419  -3.970 -24.413  0.00  0.00    -0.250 OA
ATOM     32  C   UNL     1      30.958  -4.065 -23.318  0.00  0.00    +0.316 C 
BRANCH  32  33
ATOM     33  O   UNL     1      31.657  -3.056 -22.741  0.00  0.00    -0.480 OA
ATOM     34  H   UNL     1      32.560  -2.929 -22.956  0.00  0.00    +0.295 HD
ENDBRANCH  32  33
ENDBRANCH  30  32
ENDBRANCH  27  30
ENDBRANCH  26  27
ENDBRANCH  23  26
ENDBRANCH  22  23
ENDBRANCH  21  22
ENDBRANCH   2  21
TORSDOF 15
ENDMDL
MODEL 5
REMARK VINA RESULT:      -8.0      2.088      7.785
REMARK  Name = 54687
REMARK  15 active torsions:
REMARK  status: ('A' for Active; 'I' for Inactive)
REMARK    1  A    between atoms: C_2  and  C_21
REMARK    2  A    between atoms: C_3  and  O_14
REMARK    3  A    between atoms: C_7  and  O_12
REMARK    4  A    between atoms: O_14  and  C_16
REMARK    5  A    between atoms: C_16  and  C_17
REMARK    6  A    between atoms: C_17  and  C_19
REMARK    7  A    between atoms: C_21  and  C_22
REMARK    8  A    between atoms: C_22  and  C_23
REMARK    9  A    between atoms: C_23  and  O_24
REMARK   10  A    between atoms: C_23  and  C_26
REMARK   11  A    between atoms: C_26  and  C_27
REMARK   12  A    between atoms: C_27  and  O_28
REMARK   13  A    between atoms: C_27  and  C_30
REMARK   14  A    between atoms: C_30  and  C_32
REMARK   15  A    between atoms: C_32  and  O_33
REMARK                            x       y       z     vdW  Elec       q    Type
REMARK                         _______ _______ _______ _____ _____    ______ ____
ROOT
ATOM      1  C   UNL     1      32.801 -10.011 -24.146  0.00  0.00    +0.063 C 
ATOM      2  C   UNL     1      33.480 -11.409 -24.050  0.00  0.00    +0.012 C 
ATOM      3  C   UNL     1      31.711  -9.769 -23.071  0.00  0.00    +0.175 C 
ATOM      4  C   UNL     1      34.558 -11.591 -25.159  0.00  0.00    +0.022 C 
ATOM      5  C   UNL     1      33.847  -8.896 -24.143  0.00  0.00    -0.021 C 
ATOM      6  C   UNL     1      31.204  -8.329 -23.145  0.00  0.00    +0.078 C 
ATOM      7  C   UNL     1      32.329  -7.319 -22.906  0.00  0.00    +0.136 C 
ATOM      8  C   UNL     1      35.455 -10.384 -25.248  0.00  0.00    -0.027 C 
ATOM      9  C   UNL     1      33.615  -7.694 -23.584  0.00  0.00    -0.002 C 
ATOM     10  C   UNL     1      35.125  -9.178 -24.770  0.00  0.00    -0.009 C 
ATOM     11  C   UNL     1      33.995 -11.898 -26.551  0.00  0.00    +0.005 C 
ENDROOT
BRANCH   7  12
ATOM     12  O   UNL     1      31.887  -6.047 -23.376  0.00  0.00    -0.380 OA
ATOM     13  H   UNL     1      32.295  -5.346 -22.844  0.00  0.00    +0.211 HD
ENDBRANCH   7  12
BRANCH   3  14
ATOM     14  O   UNL     1      32.206 -10.005 -21.756  0.00  0.00    -0.452 OA
BRANCH  14  16
ATOM     15  O   UNL     1      30.638 -11.582 -21.141  0.00  0.00    -0.250 OA
ATOM     16  C   UNL     1      31.331 -10.605 -20.891  0.00  0.00    +0.316 C 
BRANCH  16  17
ATOM     17  C   UNL     1      31.321  -9.856 -19.569  0.00  0.00    +0.099 C 
ATOM     18  C   UNL     1      31.407 -10.877 -18.438  0.00  0.00    +0.012 C 
BRANCH  17  19
ATOM     19  C   UNL     1      32.475  -8.847 -19.486  0.00  0.00    +0.011 C 
ATOM     20  C   UNL     1      32.002  -7.404 -19.620  0.00  0.00    +0.001 C 
ENDBRANCH  17  19
ENDBRANCH  16  17
ENDBRANCH  14  16
ENDBRANCH   3  14
BRANCH   2  21
ATOM     21  C   UNL     1      32.468 -12.561 -24.055  0.00  0.00    +0.003 C 
BRANCH  21  22
ATOM     22  C   UNL     1      33.118 -13.859 -23.579  0.00  0.00    +0.029 C 
BRANCH  22  23
ATOM     23  C   UNL     1      33.483 -13.859 -22.089  0.00  0.00    +0.113 C 
BRANCH  23  24
ATOM     24  O   UNL     1      32.290 -14.094 -21.338  0.00  0.00    -0.384 OA
ATOM     25  H   UNL     1      32.043 -15.030 -21.405  0.00  0.00    +0.210 HD
ENDBRANCH  23  24
BRANCH  23  26
ATOM     26  C   UNL     1      34.537 -14.895 -21.667  0.00  0.00    +0.059 C 
BRANCH  26  27
ATOM     27  C   UNL     1      34.451 -16.244 -22.390  0.00  0.00    +0.124 C 
BRANCH  27  28
ATOM     28  O   UNL     1      35.695 -16.525 -23.027  0.00  0.00    -0.384 OA
ATOM     29  H   UNL     1      36.076 -15.701 -23.370  0.00  0.00    +0.210 HD
ENDBRANCH  27  28
BRANCH  27  30
ATOM     30  C   UNL     1      34.163 -17.369 -21.396  0.00  0.00    +0.139 C 
BRANCH  30  32
ATOM     31  O   UNL     1      36.158 -18.557 -20.727  0.00  0.00    -0.250 OA
ATOM     32  C   UNL     1      35.206 -18.456 -21.490  0.00  0.00    +0.316 C 
BRANCH  32  33
ATOM     33  O   UNL     1      34.966 -19.326 -22.502  0.00  0.00    -0.480 OA
ATOM     34  H   UNL     1      34.602 -19.017 -23.309  0.00  0.00    +0.295 HD
ENDBRANCH  32  33
ENDBRANCH  30  32
ENDBRANCH  27  30
ENDBRANCH  26  27
ENDBRANCH  23  26
ENDBRANCH  22  23
ENDBRANCH  21  22
ENDBRANCH   2  21
TORSDOF 15
ENDMDL
MODEL 6
REMARK VINA RESULT:      -7.9      2.027      7.533
REMARK  Name = 54687
REMARK  15 active torsions:
REMARK  status: ('A' for Active; 'I' for Inactive)
REMARK    1  A    between atoms: C_2  and  C_21
REMARK    2  A    between atoms: C_3  and  O_14
REMARK    3  A    between atoms: C_7  and  O_12
REMARK    4  A    between atoms: O_14  and  C_16
REMARK    5  A    between atoms: C_16  and  C_17
REMARK    6  A    between atoms: C_17  and  C_19
REMARK    7  A    between atoms: C_21  and  C_22
REMARK    8  A    between atoms: C_22  and  C_23
REMARK    9  A    between atoms: C_23  and  O_24
REMARK   10  A    between atoms: C_23  and  C_26
REMARK   11  A    between atoms: C_26  and  C_27
REMARK   12  A    between atoms: C_27  and  O_28
REMARK   13  A    between atoms: C_27  and  C_30
REMARK   14  A    between atoms: C_30  and  C_32
REMARK   15  A    between atoms: C_32  and  O_33
REMARK                            x       y       z     vdW  Elec       q    Type
REMARK                         _______ _______ _______ _____ _____    ______ ____
ROOT
ATOM      1  C   UNL     1      32.014  -9.704 -22.189  0.00  0.00    +0.063 C 
ATOM      2  C   UNL     1      33.215  -9.483 -23.155  0.00  0.00    +0.012 C 
ATOM      3  C   UNL     1      31.588 -11.188 -22.047  0.00  0.00    +0.175 C 
ATOM      4  C   UNL     1      33.587  -7.974 -23.258  0.00  0.00    +0.022 C 
ATOM      5  C   UNL     1      32.285  -9.067 -20.826  0.00  0.00    -0.021 C 
ATOM      6  C   UNL     1      30.507 -11.329 -20.976  0.00  0.00    +0.078 C 
ATOM      7  C   UNL     1      30.998 -10.851 -19.608  0.00  0.00    +0.136 C 
ATOM      8  C   UNL     1      33.660  -7.339 -21.894  0.00  0.00    -0.027 C 
ATOM      9  C   UNL     1      31.819  -9.595 -19.680  0.00  0.00    -0.002 C 
ATOM     10  C   UNL     1      33.080  -7.853 -20.803  0.00  0.00    -0.009 C 
ATOM     11  C   UNL     1      32.650  -7.146 -24.144  0.00  0.00    +0.005 C 
ENDROOT
BRANCH   7  12
ATOM     12  O   UNL     1      29.857 -10.636 -18.780  0.00  0.00    -0.380 OA
ATOM     13  H   UNL     1      29.225 -10.063 -19.243  0.00  0.00    +0.211 HD
ENDBRANCH   7  12
BRANCH   3  14
ATOM     14  O   UNL     1      32.689 -12.019 -21.688  0.00  0.00    -0.452 OA
BRANCH  14  16
ATOM     15  O   UNL     1      31.978 -13.873 -22.863  0.00  0.00    -0.250 OA
ATOM     16  C   UNL     1      32.508 -13.361 -21.886  0.00  0.00    +0.316 C 
BRANCH  16  17
ATOM     17  C   UNL     1      33.039 -14.133 -20.690  0.00  0.00    +0.099 C 
ATOM     18  C   UNL     1      32.151 -15.355 -20.473  0.00  0.00    +0.012 C 
BRANCH  17  19
ATOM     19  C   UNL     1      34.503 -14.548 -20.896  0.00  0.00    +0.011 C 
ATOM     20  C   UNL     1      34.690 -16.060 -20.894  0.00  0.00    +0.001 C 
ENDBRANCH  17  19
ENDBRANCH  16  17
ENDBRANCH  14  16
ENDBRANCH   3  14
BRANCH   2  21
ATOM     21  C   UNL     1      32.984 -10.101 -24.539  0.00  0.00    +0.003 C 
BRANCH  21  22
ATOM     22  C   UNL     1      34.274 -10.712 -25.084  0.00  0.00    +0.029 C 
BRANCH  22  23
ATOM     23  C   UNL     1      34.205 -12.232 -25.283  0.00  0.00    +0.113 C 
BRANCH  23  24
ATOM     24  O   UNL     1      34.431 -12.857 -24.017  0.00  0.00    -0.384 OA
ATOM     25  H   UNL     1      34.978 -13.649 -24.140  0.00  0.00    +0.210 HD
ENDBRANCH  23  24
BRANCH  23  26
ATOM     26  C   UNL     1      32.884 -12.763 -25.860  0.00  0.00    +0.059 C 
BRANCH  26  27
ATOM     27  C   UNL     1      33.032 -13.845 -26.937  0.00  0.00    +0.124 C 
BRANCH  27  28
ATOM     28  O   UNL     1      34.390 -13.909 -27.366  0.00  0.00    -0.384 OA
ATOM     29  H   UNL     1      34.749 -13.010 -27.438  0.00  0.00    +0.210 HD
ENDBRANCH  27  28
BRANCH  27  30
ATOM     30  C   UNL     1      32.647 -15.215 -26.379  0.00  0.00    +0.139 C 
BRANCH  30  32
ATOM     31  O   UNL     1      34.723 -16.412 -26.073  0.00  0.00    -0.250 OA
ATOM     32  C   UNL     1      33.778 -15.813 -25.578  0.00  0.00    +0.316 C 
BRANCH  32  33
ATOM     33  O   UNL     1      33.645 -15.599 -24.245  0.00  0.00    -0.480 OA
ATOM     34  H   UNL     1      34.306 -15.125 -23.778  0.00  0.00    +0.295 HD
ENDBRANCH  32  33
ENDBRANCH  30  32
ENDBRANCH  27  30
ENDBRANCH  26  27
ENDBRANCH  23  26
ENDBRANCH  22  23
ENDBRANCH  21  22
ENDBRANCH   2  21
TORSDOF 15
ENDMDL
MODEL 7
REMARK VINA RESULT:      -7.8      8.902     12.994
REMARK  Name = 54687
REMARK  15 active torsions:
REMARK  status: ('A' for Active; 'I' for Inactive)
REMARK    1  A    between atoms: C_2  and  C_21
REMARK    2  A    between atoms: C_3  and  O_14
REMARK    3  A    between atoms: C_7  and  O_12
REMARK    4  A    between atoms: O_14  and  C_16
REMARK    5  A    between atoms: C_16  and  C_17
REMARK    6  A    between atoms: C_17  and  C_19
REMARK    7  A    between atoms: C_21  and  C_22
REMARK    8  A    between atoms: C_22  and  C_23
REMARK    9  A    between atoms: C_23  and  O_24
REMARK   10  A    between atoms: C_23  and  C_26
REMARK   11  A    between atoms: C_26  and  C_27
REMARK   12  A    between atoms: C_27  and  O_28
REMARK   13  A    between atoms: C_27  and  C_30
REMARK   14  A    between atoms: C_30  and  C_32
REMARK   15  A    between atoms: C_32  and  O_33
REMARK                            x       y       z     vdW  Elec       q    Type
REMARK                         _______ _______ _______ _____ _____    ______ ____
ROOT
ATOM      1  C   UNL     1      33.662 -23.140 -15.035  0.00  0.00    +0.063 C 
ATOM      2  C   UNL     1      34.496 -23.583 -16.273  0.00  0.00    +0.012 C 
ATOM      3  C   UNL     1      32.236 -22.643 -15.385  0.00  0.00    +0.175 C 
ATOM      4  C   UNL     1      35.917 -24.064 -15.856  0.00  0.00    +0.022 C 
ATOM      5  C   UNL     1      33.626 -24.245 -13.979  0.00  0.00    -0.021 C 
ATOM      6  C   UNL     1      31.442 -22.371 -14.108  0.00  0.00    +0.078 C 
ATOM      7  C   UNL     1      31.300 -23.629 -13.248  0.00  0.00    +0.136 C 
ATOM      8  C   UNL     1      35.848 -25.010 -14.686  0.00  0.00    -0.027 C 
ATOM      9  C   UNL     1      32.559 -24.447 -13.185  0.00  0.00    -0.002 C 
ATOM     10  C   UNL     1      34.799 -25.091 -13.857  0.00  0.00    -0.009 C 
ATOM     11  C   UNL     1      36.900 -22.936 -15.527  0.00  0.00    +0.005 C 
ENDROOT
BRANCH   7  12
ATOM     12  O   UNL     1      30.920 -23.225 -11.935  0.00  0.00    -0.380 OA
ATOM     13  H   UNL     1      29.955 -23.133 -11.891  0.00  0.00    +0.211 HD
ENDBRANCH   7  12
BRANCH   3  14
ATOM     14  O   UNL     1      31.521 -23.599 -16.164  0.00  0.00    -0.452 OA
BRANCH  14  16
ATOM     15  O   UNL     1      30.294 -22.145 -17.469  0.00  0.00    -0.250 OA
ATOM     16  C   UNL     1      30.379 -23.140 -16.763  0.00  0.00    +0.316 C 
BRANCH  16  17
ATOM     17  C   UNL     1      29.211 -24.041 -16.398  0.00  0.00    +0.099 C 
ATOM     18  C   UNL     1      29.766 -25.330 -15.801  0.00  0.00    +0.012 C 
BRANCH  17  19
ATOM     19  C   UNL     1      28.254 -23.348 -15.417  0.00  0.00    +0.011 C 
ATOM     20  C   UNL     1      27.271 -22.417 -16.116  0.00  0.00    +0.001 C 
ENDBRANCH  17  19
ENDBRANCH  16  17
ENDBRANCH  14  16
ENDBRANCH   3  14
BRANCH   2  21
ATOM     21  C   UNL     1      34.564 -22.502 -17.359  0.00  0.00    +0.003 C 
BRANCH  21  22
ATOM     22  C   UNL     1      33.808 -22.940 -18.612  0.00  0.00    +0.029 C 
BRANCH  22  23
ATOM     23  C   UNL     1      33.596 -21.814 -19.633  0.00  0.00    +0.113 C 
BRANCH  23  24
ATOM     24  O   UNL     1      32.481 -21.029 -19.205  0.00  0.00    -0.384 OA
ATOM     25  H   UNL     1      32.438 -20.213 -19.729  0.00  0.00    +0.210 HD
ENDBRANCH  23  24
BRANCH  23  26
ATOM     26  C   UNL     1      34.797 -20.880 -19.846  0.00  0.00    +0.059 C 
BRANCH  26  27
ATOM     27  C   UNL     1      34.700 -19.963 -21.071  0.00  0.00    +0.124 C 
BRANCH  27  28
ATOM     28  O   UNL     1      33.489 -19.213 -21.012  0.00  0.00    -0.384 OA
ATOM     29  H   UNL     1      33.500 -18.644 -20.226  0.00  0.00    +0.210 HD
ENDBRANCH  27  28
BRANCH  27  30
ATOM     30  C   UNL     1      35.867 -18.976 -21.098  0.00  0.00    +0.139 C 
BRANCH  30  32
ATOM     31  O   UNL     1      35.217 -16.754 -20.407  0.00  0.00    -0.250 OA
ATOM     32  C   UNL     1      35.379 -17.564 -21.311  0.00  0.00    +0.316 C 
BRANCH  32  33
ATOM     33  O   UNL     1      35.156 -17.279 -22.617  0.00  0.00    -0.480 OA
ATOM     34  H   UNL     1      34.573 -17.813 -23.121  0.00  0.00    +0.295 HD
ENDBRANCH  32  33
ENDBRANCH  30  32
ENDBRANCH  27  30
ENDBRANCH  26  27
ENDBRANCH  23  26
ENDBRANCH  22  23
ENDBRANCH  21  22
ENDBRANCH   2  21
TORSDOF 15
ENDMDL
MODEL 8
REMARK VINA RESULT:      -7.8      3.540      8.108
REMARK  Name = 54687
REMARK  15 active torsions:
REMARK  status: ('A' for Active; 'I' for Inactive)
REMARK    1  A    between atoms: C_2  and  C_21
REMARK    2  A    between atoms: C_3  and  O_14
REMARK    3  A    between atoms: C_7  and  O_12
REMARK    4  A    between atoms: O_14  and  C_16
REMARK    5  A    between atoms: C_16  and  C_17
REMARK    6  A    between atoms: C_17  and  C_19
REMARK    7  A    between atoms: C_21  and  C_22
REMARK    8  A    between atoms: C_22  and  C_23
REMARK    9  A    between atoms: C_23  and  O_24
REMARK   10  A    between atoms: C_23  and  C_26
REMARK   11  A    between atoms: C_26  and  C_27
REMARK   12  A    between atoms: C_27  and  O_28
REMARK   13  A    between atoms: C_27  and  C_30
REMARK   14  A    between atoms: C_30  and  C_32
REMARK   15  A    between atoms: C_32  and  O_33
REMARK                            x       y       z     vdW  Elec       q    Type
REMARK                         _______ _______ _______ _____ _____    ______ ____
ROOT
ATOM      1  C   UNL     1      33.813 -13.975 -22.598  0.00  0.00    +0.063 C 
ATOM      2  C   UNL     1      33.741 -15.530 -22.565  0.00  0.00    +0.012 C 
ATOM      3  C   UNL     1      33.986 -13.386 -24.021  0.00  0.00    +0.175 C 
ATOM      4  C   UNL     1      33.575 -16.058 -21.109  0.00  0.00    +0.022 C 
ATOM      5  C   UNL     1      32.612 -13.359 -21.880  0.00  0.00    -0.021 C 
ATOM      6  C   UNL     1      33.898 -11.861 -23.977  0.00  0.00    +0.078 C 
ATOM      7  C   UNL     1      32.548 -11.385 -23.435  0.00  0.00    +0.136 C 
ATOM      8  C   UNL     1      32.505 -15.294 -20.374  0.00  0.00    -0.027 C 
ATOM      9  C   UNL     1      32.061 -12.195 -22.268  0.00  0.00    -0.002 C 
ATOM     10  C   UNL     1      32.070 -14.083 -20.744  0.00  0.00    -0.009 C 
ATOM     11  C   UNL     1      34.860 -16.043 -20.275  0.00  0.00    +0.005 C 
ENDROOT
BRANCH   7  12
ATOM     12  O   UNL     1      32.683 -10.018 -23.052  0.00  0.00    -0.380 OA
ATOM     13  H   UNL     1      31.819  -9.581 -23.102  0.00  0.00    +0.211 HD
ENDBRANCH   7  12
BRANCH   3  14
ATOM     14  O   UNL     1      32.987 -13.868 -24.916  0.00  0.00    -0.452 OA
BRANCH  14  16
ATOM     15  O   UNL     1      33.894 -15.494 -26.279  0.00  0.00    -0.250 OA
ATOM     16  C   UNL     1      33.447 -14.369 -26.104  0.00  0.00    +0.316 C 
BRANCH  16  17
ATOM     17  C   UNL     1      33.349 -13.303 -27.183  0.00  0.00    +0.099 C 
ATOM     18  C   UNL     1      31.876 -13.096 -27.522  0.00  0.00    +0.012 C 
BRANCH  17  19
ATOM     19  C   UNL     1      33.999 -11.987 -26.732  0.00  0.00    +0.011 C 
ATOM     20  C   UNL     1      35.315 -11.708 -27.447  0.00  0.00    +0.001 C 
ENDBRANCH  17  19
ENDBRANCH  16  17
ENDBRANCH  14  16
ENDBRANCH   3  14
BRANCH   2  21
ATOM     21  C   UNL     1      34.931 -16.193 -23.271  0.00  0.00    +0.003 C 
BRANCH  21  22
ATOM     22  C   UNL     1      34.577 -17.610 -23.719  0.00  0.00    +0.029 C 
BRANCH  22  23
ATOM     23  C   UNL     1      35.276 -18.709 -22.908  0.00  0.00    +0.113 C 
BRANCH  23  24
ATOM     24  O   UNL     1      36.564 -18.226 -22.520  0.00  0.00    -0.384 OA
ATOM     25  H   UNL     1      36.899 -17.616 -23.196  0.00  0.00    +0.210 HD
ENDBRANCH  23  24
BRANCH  23  26
ATOM     26  C   UNL     1      34.531 -19.177 -21.649  0.00  0.00    +0.059 C 
BRANCH  26  27
ATOM     27  C   UNL     1      35.198 -20.328 -20.886  0.00  0.00    +0.124 C 
BRANCH  27  28
ATOM     28  O   UNL     1      36.316 -19.831 -20.154  0.00  0.00    -0.384 OA
ATOM     29  H   UNL     1      36.087 -18.977 -19.753  0.00  0.00    +0.210 HD
ENDBRANCH  27  28
BRANCH  27  30
ATOM     30  C   UNL     1      34.220 -20.951 -19.891  0.00  0.00    +0.139 C 
BRANCH  30  32
ATOM     31  O   UNL     1      35.797 -22.204 -18.557  0.00  0.00    -0.250 OA
ATOM     32  C   UNL     1      34.800 -22.197 -19.266  0.00  0.00    +0.316 C 
BRANCH  32  33
ATOM     33  O   UNL     1      34.087 -23.311 -19.562  0.00  0.00    -0.480 OA
ATOM     34  H   UNL     1      33.714 -23.825 -18.873  0.00  0.00    +0.295 HD
ENDBRANCH  32  33
ENDBRANCH  30  32
ENDBRANCH  27  30
ENDBRANCH  26  27
ENDBRANCH  23  26
ENDBRANCH  22  23
ENDBRANCH  21  22
ENDBRANCH   2  21
TORSDOF 15
ENDMDL
MODEL 9
REMARK VINA RESULT:      -7.6      9.357     13.278
REMARK  Name = 54687
REMARK  15 active torsions:
REMARK  status: ('A' for Active; 'I' for Inactive)
REMARK    1  A    between atoms: C_2  and  C_21
REMARK    2  A    between atoms: C_3  and  O_14
REMARK    3  A    between atoms: C_7  and  O_12
REMARK    4  A    between atoms: O_14  and  C_16
REMARK    5  A    between atoms: C_16  and  C_17
REMARK    6  A    between atoms: C_17  and  C_19
REMARK    7  A    between atoms: C_21  and  C_22
REMARK    8  A    between atoms: C_22  and  C_23
REMARK    9  A    between atoms: C_23  and  O_24
REMARK   10  A    between atoms: C_23  and  C_26
REMARK   11  A    between atoms: C_26  and  C_27
REMARK   12  A    between atoms: C_27  and  O_28
REMARK   13  A    between atoms: C_27  and  C_30
REMARK   14  A    between atoms: C_30  and  C_32
REMARK   15  A    between atoms: C_32  and  O_33
REMARK                            x       y       z     vdW  Elec       q    Type
REMARK                         _______ _______ _______ _____ _____    ______ ____
ROOT
ATOM      1  C   UNL     1      33.454 -24.034 -14.858  0.00  0.00    +0.063 C 
ATOM      2  C   UNL     1      32.951 -23.114 -16.009  0.00  0.00    +0.012 C 
ATOM      3  C   UNL     1      34.996 -24.175 -14.797  0.00  0.00    +0.175 C 
ATOM      4  C   UNL     1      31.396 -23.020 -16.019  0.00  0.00    +0.022 C 
ATOM      5  C   UNL     1      32.880 -23.588 -13.513  0.00  0.00    -0.021 C 
ATOM      6  C   UNL     1      35.407 -24.970 -13.557  0.00  0.00    +0.078 C 
ATOM      7  C   UNL     1      34.950 -24.285 -12.267  0.00  0.00    +0.136 C 
ATOM      8  C   UNL     1      30.859 -22.764 -14.635  0.00  0.00    -0.027 C 
ATOM      9  C   UNL     1      33.565 -23.711 -12.362  0.00  0.00    -0.002 C 
ATOM     10  C   UNL     1      31.548 -23.011 -13.514  0.00  0.00    -0.009 C 
ATOM     11  C   UNL     1      30.687 -24.243 -16.610  0.00  0.00    +0.005 C 
ENDROOT
BRANCH   7  12
ATOM     12  O   UNL     1      35.004 -25.246 -11.215  0.00  0.00    -0.380 OA
ATOM     13  H   UNL     1      34.225 -25.823 -11.263  0.00  0.00    +0.211 HD
ENDBRANCH   7  12
BRANCH   3  14
ATOM     14  O   UNL     1      35.640 -22.905 -14.751  0.00  0.00    -0.452 OA
BRANCH  14  16
ATOM     15  O   UNL     1      37.564 -22.606 -13.512  0.00  0.00    -0.250 OA
ATOM     16  C   UNL     1      36.993 -22.933 -14.544  0.00  0.00    +0.316 C 
BRANCH  16  17
ATOM     17  C   UNL     1      37.696 -23.406 -15.805  0.00  0.00    +0.099 C 
ATOM     18  C   UNL     1      37.847 -22.215 -16.746  0.00  0.00    +0.012 C 
BRANCH  17  19
ATOM     19  C   UNL     1      39.062 -24.030 -15.486  0.00  0.00    +0.011 C 
ATOM     20  C   UNL     1      38.940 -25.395 -14.820  0.00  0.00    +0.001 C 
ENDBRANCH  17  19
ENDBRANCH  16  17
ENDBRANCH  14  16
ENDBRANCH   3  14
BRANCH   2  21
ATOM     21  C   UNL     1      33.498 -23.528 -17.380  0.00  0.00    +0.003 C 
BRANCH  21  22
ATOM     22  C   UNL     1      34.438 -22.460 -17.937  0.00  0.00    +0.029 C 
BRANCH  22  23
ATOM     23  C   UNL     1      34.132 -22.061 -19.386  0.00  0.00    +0.113 C 
BRANCH  23  24
ATOM     24  O   UNL     1      32.723 -21.850 -19.503  0.00  0.00    -0.384 OA
ATOM     25  H   UNL     1      32.279 -22.179 -18.706  0.00  0.00    +0.210 HD
ENDBRANCH  23  24
BRANCH  23  26
ATOM     26  C   UNL     1      34.857 -20.804 -19.892  0.00  0.00    +0.059 C 
BRANCH  26  27
ATOM     27  C   UNL     1      34.220 -20.133 -21.115  0.00  0.00    +0.124 C 
BRANCH  27  28
ATOM     28  O   UNL     1      33.151 -19.289 -20.695  0.00  0.00    -0.384 OA
ATOM     29  H   UNL     1      33.454 -18.367 -20.680  0.00  0.00    +0.210 HD
ENDBRANCH  27  28
BRANCH  27  30
ATOM     30  C   UNL     1      35.246 -19.268 -21.848  0.00  0.00    +0.139 C 
BRANCH  30  32
ATOM     31  O   UNL     1      35.327 -17.224 -20.562  0.00  0.00    -0.250 OA
ATOM     32  C   UNL     1      35.001 -17.801 -21.591  0.00  0.00    +0.316 C 
BRANCH  32  33
ATOM     33  O   UNL     1      34.395 -17.181 -22.634  0.00  0.00    -0.480 OA
ATOM     34  H   UNL     1      34.863 -17.043 -23.434  0.00  0.00    +0.295 HD
ENDBRANCH  32  33
ENDBRANCH  30  32
ENDBRANCH  27  30
ENDBRANCH  26  27
ENDBRANCH  23  26
ENDBRANCH  22  23
ENDBRANCH  21  22
ENDBRANCH   2  21
TORSDOF 15
ENDMDL
