MODEL 1
REMARK VINA RESULT:      -7.2      0.000      0.000
REMARK  Name = 15113
REMARK  0 active torsions:
REMARK  status: ('A' for Active; 'I' for Inactive)
REMARK                            x       y       z     vdW  Elec       q    Type
REMARK                         _______ _______ _______ _____ _____    ______ ____
ROOT
ATOM      1  O   UNL     1      38.478 -22.235 -11.916  0.00  0.00    -0.267 OA
ATOM      2  O   UNL     1      35.154 -24.809  -9.976  0.00  0.00    -0.193 OA
ATOM      3  N   UNL     1      37.922 -26.522 -13.376  0.00  0.00    -0.223 N 
ATOM      4  N   UNL     1      36.780 -23.514 -10.914  0.00  0.00    -0.196 N 
ATOM      5  N   UNL     1      38.997 -25.852 -13.957  0.00  0.00    -0.185 N 
ATOM      6  N   UNL     1      39.046 -24.555 -13.479  0.00  0.00    -0.159 NA
ATOM      7  N   UNL     1      36.399 -25.804 -11.614  0.00  0.00    -0.303 NA
ATOM      8  C   UNL     1      38.123 -24.454 -12.578  0.00  0.00    +0.200 C 
ATOM      9  C   UNL     1      37.360 -25.701 -12.460  0.00  0.00    +0.235 C 
ATOM     10  C   UNL     1      37.832 -23.256 -11.774  0.00  0.00    +0.283 C 
ATOM     11  C   UNL     1      36.067 -24.726 -10.801  0.00  0.00    +0.273 C 
ATOM     12  H   UNL     1      37.623 -27.434 -13.595  0.00  0.00    +0.174 HD
ATOM     13  H   UNL     1      36.501 -22.779 -10.322  0.00  0.00    +0.169 HD
ATOM     14  H   UNL     1      39.625 -26.242 -14.607  0.00  0.00    +0.193 HD
ENDROOT
TORSDOF 0
ENDMDL
MODEL 2
REMARK VINA RESULT:      -7.0      8.902      9.335
REMARK  Name = 15113
REMARK  0 active torsions:
REMARK  status: ('A' for Active; 'I' for Inactive)
REMARK                            x       y       z     vdW  Elec       q    Type
REMARK                         _______ _______ _______ _____ _____    ______ ____
ROOT
ATOM      1  O   UNL     1      32.326 -20.105 -20.873  0.00  0.00    -0.267 OA
ATOM      2  O   UNL     1      33.645 -23.788 -18.398  0.00  0.00    -0.193 OA
ATOM      3  N   UNL     1      36.723 -20.478 -19.713  0.00  0.00    -0.223 N 
ATOM      4  N   UNL     1      32.964 -21.987 -19.620  0.00  0.00    -0.196 N 
ATOM      5  N   UNL     1      36.405 -19.300 -20.385  0.00  0.00    -0.185 N 
ATOM      6  N   UNL     1      35.064 -19.311 -20.726  0.00  0.00    -0.159 NA
ATOM      7  N   UNL     1      35.276 -22.284 -18.950  0.00  0.00    -0.303 NA
ATOM      8  C   UNL     1      34.555 -20.381 -20.209  0.00  0.00    +0.200 C 
ATOM      9  C   UNL     1      35.582 -21.182 -19.532  0.00  0.00    +0.235 C 
ATOM     10  C   UNL     1      33.143 -20.789 -20.287  0.00  0.00    +0.283 C 
ATOM     11  C   UNL     1      33.961 -22.736 -18.960  0.00  0.00    +0.273 C 
ATOM     12  H   UNL     1      37.623 -20.753 -19.422  0.00  0.00    +0.174 HD
ATOM     13  H   UNL     1      32.051 -22.354 -19.605  0.00  0.00    +0.169 HD
ATOM     14  H   UNL     1      37.036 -18.571 -20.585  0.00  0.00    +0.193 HD
ENDROOT
TORSDOF 0
ENDMDL
MODEL 3
REMARK VINA RESULT:      -7.0      1.659      1.684
REMARK  Name = 15113
REMARK  0 active torsions:
REMARK  status: ('A' for Active; 'I' for Inactive)
REMARK                            x       y       z     vdW  Elec       q    Type
REMARK                         _______ _______ _______ _____ _____    ______ ____
ROOT
ATOM      1  O   UNL     1      38.405 -22.220 -11.899  0.00  0.00    -0.267 OA
ATOM      2  O   UNL     1      35.235 -24.618  -9.526  0.00  0.00    -0.193 OA
ATOM      3  N   UNL     1      35.593 -24.976 -14.205  0.00  0.00    -0.223 N 
ATOM      4  N   UNL     1      36.806 -23.420 -10.666  0.00  0.00    -0.196 N 
ATOM      5  N   UNL     1      36.565 -24.359 -14.991  0.00  0.00    -0.185 N 
ATOM      6  N   UNL     1      37.330 -23.518 -14.204  0.00  0.00    -0.159 NA
ATOM      7  N   UNL     1      35.261 -24.913 -11.792  0.00  0.00    -0.303 NA
ATOM      8  C   UNL     1      36.927 -23.678 -12.985  0.00  0.00    +0.200 C 
ATOM      9  C   UNL     1      35.802 -24.618 -12.918  0.00  0.00    +0.235 C 
ATOM     10  C   UNL     1      37.483 -23.007 -11.799  0.00  0.00    +0.283 C 
ATOM     11  C   UNL     1      35.735 -24.339 -10.618  0.00  0.00    +0.273 C 
ATOM     12  H   UNL     1      34.877 -25.567 -14.531  0.00  0.00    +0.174 HD
ATOM     13  H   UNL     1      37.098 -23.036  -9.809  0.00  0.00    +0.169 HD
ATOM     14  H   UNL     1      36.689 -24.502 -15.957  0.00  0.00    +0.193 HD
ENDROOT
TORSDOF 0
ENDMDL
MODEL 4
REMARK VINA RESULT:      -7.0      3.578      4.313
REMARK  Name = 15113
REMARK  0 active torsions:
REMARK  status: ('A' for Active; 'I' for Inactive)
REMARK                            x       y       z     vdW  Elec       q    Type
REMARK                         _______ _______ _______ _____ _____    ______ ____
ROOT
ATOM      1  O   UNL     1      37.967 -22.933 -15.451  0.00  0.00    -0.267 OA
ATOM      2  O   UNL     1      40.878 -26.458 -14.716  0.00  0.00    -0.193 OA
ATOM      3  N   UNL     1      36.214 -27.090 -14.768  0.00  0.00    -0.223 N 
ATOM      4  N   UNL     1      39.470 -24.700 -15.078  0.00  0.00    -0.196 N 
ATOM      5  N   UNL     1      35.268 -26.110 -15.062  0.00  0.00    -0.185 N 
ATOM      6  N   UNL     1      35.900 -24.888 -15.205  0.00  0.00    -0.159 NA
ATOM      7  N   UNL     1      38.646 -26.950 -14.703  0.00  0.00    -0.303 NA
ATOM      8  C   UNL     1      37.171 -25.110 -15.110  0.00  0.00    +0.200 C 
ATOM      9  C   UNL     1      37.441 -26.525 -14.831  0.00  0.00    +0.235 C 
ATOM     10  C   UNL     1      38.234 -24.100 -15.237  0.00  0.00    +0.283 C 
ATOM     11  C   UNL     1      39.713 -26.067 -14.825  0.00  0.00    +0.273 C 
ATOM     12  H   UNL     1      36.022 -28.031 -14.550  0.00  0.00    +0.174 HD
ATOM     13  H   UNL     1      40.259 -24.116 -15.147  0.00  0.00    +0.169 HD
ATOM     14  H   UNL     1      34.300 -26.263 -15.154  0.00  0.00    +0.193 HD
ENDROOT
TORSDOF 0
ENDMDL
MODEL 5
REMARK VINA RESULT:      -7.0      2.265      3.798
REMARK  Name = 15113
REMARK  0 active torsions:
REMARK  status: ('A' for Active; 'I' for Inactive)
REMARK                            x       y       z     vdW  Elec       q    Type
REMARK                         _______ _______ _______ _____ _____    ______ ____
ROOT
ATOM      1  O   UNL     1      35.172 -25.054 -10.253  0.00  0.00    -0.267 OA
ATOM      2  O   UNL     1      39.128 -23.119 -11.682  0.00  0.00    -0.193 OA
ATOM      3  N   UNL     1      35.258 -23.072 -14.363  0.00  0.00    -0.223 N 
ATOM      4  N   UNL     1      37.195 -24.084 -10.951  0.00  0.00    -0.196 N 
ATOM      5  N   UNL     1      34.007 -23.553 -13.983  0.00  0.00    -0.185 N 
ATOM      6  N   UNL     1      34.104 -24.170 -12.749  0.00  0.00    -0.159 NA
ATOM      7  N   UNL     1      37.351 -23.004 -13.116  0.00  0.00    -0.303 NA
ATOM      8  C   UNL     1      35.317 -23.993 -12.337  0.00  0.00    +0.200 C 
ATOM      9  C   UNL     1      36.117 -23.280 -13.339  0.00  0.00    +0.235 C 
ATOM     10  C   UNL     1      35.865 -24.450 -11.050  0.00  0.00    +0.283 C 
ATOM     11  C   UNL     1      37.946 -23.384 -11.918  0.00  0.00    +0.273 C 
ATOM     12  H   UNL     1      35.479 -22.654 -15.226  0.00  0.00    +0.174 HD
ATOM     13  H   UNL     1      37.664 -24.337 -10.124  0.00  0.00    +0.169 HD
ATOM     14  H   UNL     1      33.181 -23.467 -14.512  0.00  0.00    +0.193 HD
ENDROOT
TORSDOF 0
ENDMDL
MODEL 6
REMARK VINA RESULT:      -6.9      2.456      3.380
REMARK  Name = 15113
REMARK  0 active torsions:
REMARK  status: ('A' for Active; 'I' for Inactive)
REMARK                            x       y       z     vdW  Elec       q    Type
REMARK                         _______ _______ _______ _____ _____    ______ ____
ROOT
ATOM      1  O   UNL     1      40.169 -26.542 -14.683  0.00  0.00    -0.267 OA
ATOM      2  O   UNL     1      38.565 -23.403 -11.681  0.00  0.00    -0.193 OA
ATOM      3  N   UNL     1      35.664 -25.841 -14.474  0.00  0.00    -0.223 N 
ATOM      4  N   UNL     1      39.387 -24.940 -13.152  0.00  0.00    -0.196 N 
ATOM      5  N   UNL     1      36.047 -26.860 -15.344  0.00  0.00    -0.185 N 
ATOM      6  N   UNL     1      37.427 -26.956 -15.364  0.00  0.00    -0.159 NA
ATOM      7  N   UNL     1      37.012 -24.489 -12.959  0.00  0.00    -0.303 NA
ATOM      8  C   UNL     1      37.873 -26.121 -14.482  0.00  0.00    +0.200 C 
ATOM      9  C   UNL     1      36.775 -25.368 -13.864  0.00  0.00    +0.235 C 
ATOM     10  C   UNL     1      39.287 -25.909 -14.134  0.00  0.00    +0.283 C 
ATOM     11  C   UNL     1      38.319 -24.237 -12.556  0.00  0.00    +0.273 C 
ATOM     12  H   UNL     1      34.745 -25.520 -14.328  0.00  0.00    +0.174 HD
ATOM     13  H   UNL     1      40.293 -24.719 -12.838  0.00  0.00    +0.169 HD
ATOM     14  H   UNL     1      35.431 -27.424 -15.864  0.00  0.00    +0.193 HD
ENDROOT
TORSDOF 0
ENDMDL
MODEL 7
REMARK VINA RESULT:      -6.8      3.032      3.639
REMARK  Name = 15113
REMARK  0 active torsions:
REMARK  status: ('A' for Active; 'I' for Inactive)
REMARK                            x       y       z     vdW  Elec       q    Type
REMARK                         _______ _______ _______ _____ _____    ______ ____
ROOT
ATOM      1  O   UNL     1      36.663 -27.403 -16.223  0.00  0.00    -0.267 OA
ATOM      2  O   UNL     1      34.642 -24.100 -13.685  0.00  0.00    -0.193 OA
ATOM      3  N   UNL     1      39.197 -25.164 -13.159  0.00  0.00    -0.223 N 
ATOM      4  N   UNL     1      35.607 -25.735 -14.949  0.00  0.00    -0.196 N 
ATOM      5  N   UNL     1      39.907 -26.080 -13.932  0.00  0.00    -0.185 N 
ATOM      6  N   UNL     1      39.040 -26.730 -14.791  0.00  0.00    -0.159 NA
ATOM      7  N   UNL     1      36.860 -24.484 -13.292  0.00  0.00    -0.303 NA
ATOM      8  C   UNL     1      37.879 -26.180 -14.637  0.00  0.00    +0.200 C 
ATOM      9  C   UNL     1      37.916 -25.150 -13.593  0.00  0.00    +0.235 C 
ATOM     10  C   UNL     1      36.655 -26.530 -15.377  0.00  0.00    +0.283 C 
ATOM     11  C   UNL     1      35.664 -24.737 -13.954  0.00  0.00    +0.273 C 
ATOM     12  H   UNL     1      39.563 -24.621 -12.424  0.00  0.00    +0.174 HD
ATOM     13  H   UNL     1      34.735 -25.881 -15.381  0.00  0.00    +0.169 HD
ATOM     14  H   UNL     1      40.877 -26.240 -13.875  0.00  0.00    +0.193 HD
ENDROOT
TORSDOF 0
ENDMDL
MODEL 8
REMARK VINA RESULT:      -6.7      2.157      2.240
REMARK  Name = 15113
REMARK  0 active torsions:
REMARK  status: ('A' for Active; 'I' for Inactive)
REMARK                            x       y       z     vdW  Elec       q    Type
REMARK                         _______ _______ _______ _____ _____    ______ ____
ROOT
ATOM      1  O   UNL     1      34.972 -23.028 -14.637  0.00  0.00    -0.267 OA
ATOM      2  O   UNL     1      35.448 -24.499 -10.273  0.00  0.00    -0.193 OA
ATOM      3  N   UNL     1      37.657 -26.631 -13.841  0.00  0.00    -0.223 N 
ATOM      4  N   UNL     1      35.190 -23.752 -12.412  0.00  0.00    -0.196 N 
ATOM      5  N   UNL     1      37.639 -26.210 -15.170  0.00  0.00    -0.185 N 
ATOM      6  N   UNL     1      36.764 -25.147 -15.306  0.00  0.00    -0.159 NA
ATOM      7  N   UNL     1      36.592 -25.657 -11.877  0.00  0.00    -0.303 NA
ATOM      8  C   UNL     1      36.342 -24.856 -14.118  0.00  0.00    +0.200 C 
ATOM      9  C   UNL     1      36.890 -25.781 -13.120  0.00  0.00    +0.235 C 
ATOM     10  C   UNL     1      35.417 -23.763 -13.777  0.00  0.00    +0.283 C 
ATOM     11  C   UNL     1      35.739 -24.640 -11.463  0.00  0.00    +0.273 C 
ATOM     12  H   UNL     1      38.141 -27.412 -13.489  0.00  0.00    +0.174 HD
ATOM     13  H   UNL     1      34.585 -23.055 -12.069  0.00  0.00    +0.169 HD
ATOM     14  H   UNL     1      38.168 -26.608 -15.899  0.00  0.00    +0.193 HD
ENDROOT
TORSDOF 0
ENDMDL
MODEL 9
REMARK VINA RESULT:      -6.6      2.768      4.340
REMARK  Name = 15113
REMARK  0 active torsions:
REMARK  status: ('A' for Active; 'I' for Inactive)
REMARK                            x       y       z     vdW  Elec       q    Type
REMARK                         _______ _______ _______ _____ _____    ______ ____
ROOT
ATOM      1  O   UNL     1      35.925 -25.361 -15.297  0.00  0.00    -0.267 OA
ATOM      2  O   UNL     1      40.520 -25.910 -15.431  0.00  0.00    -0.193 OA
ATOM      3  N   UNL     1      38.372 -24.070 -11.668  0.00  0.00    -0.223 N 
ATOM      4  N   UNL     1      38.254 -25.650 -15.398  0.00  0.00    -0.196 N 
ATOM      5  N   UNL     1      36.994 -23.944 -11.506  0.00  0.00    -0.185 N 
ATOM      6  N   UNL     1      36.355 -24.318 -12.674  0.00  0.00    -0.159 NA
ATOM      7  N   UNL     1      39.650 -24.998 -13.524  0.00  0.00    -0.303 NA
ATOM      8  C   UNL     1      37.270 -24.750 -13.479  0.00  0.00    +0.200 C 
ATOM      9  C   UNL     1      38.604 -24.620 -12.882  0.00  0.00    +0.235 C 
ATOM     10  C   UNL     1      37.046 -25.286 -14.831  0.00  0.00    +0.283 C 
ATOM     11  C   UNL     1      39.528 -25.533 -14.802  0.00  0.00    +0.273 C 
ATOM     12  H   UNL     1      39.057 -23.804 -11.014  0.00  0.00    +0.174 HD
ATOM     13  H   UNL     1      38.223 -26.027 -16.306  0.00  0.00    +0.169 HD
ATOM     14  H   UNL     1      36.544 -23.637 -10.686  0.00  0.00    +0.193 HD
ENDROOT
TORSDOF 0
ENDMDL
