MODEL 1
REMARK VINA RESULT:      -5.6      0.000      0.000
REMARK  Name = 3034656
REMARK  8 active torsions:
REMARK  status: ('A' for Active; 'I' for Inactive)
REMARK    1  A    between atoms: C_1  and  O_2
REMARK    2  A    between atoms: C_1  and  C_4
REMARK    3  A    between atoms: C_1  and  C_11
REMARK    4  A    between atoms: C_4  and  O_5
REMARK    5  A    between atoms: C_4  and  C_7
REMARK    6  A    between atoms: C_7  and  O_9
REMARK    7  A    between atoms: C_11  and  O_12
REMARK    8  A    between atoms: C_11  and  C_15
REMARK                            x       y       z     vdW  Elec       q    Type
REMARK                         _______ _______ _______ _____ _____    ______ ____
ROOT
ATOM      1  C   UNL     1      37.872 -24.908 -13.960  0.00  0.00    +0.174 C 
ENDROOT
BRANCH   1   2
ATOM      2  O   UNL     1      38.251 -23.564 -14.260  0.00  0.00    -0.379 OA
ATOM      3  H   UNL     1      37.484 -23.080 -14.605  0.00  0.00    +0.211 HD
ENDBRANCH   1   2
BRANCH   1   4
ATOM      4  C   UNL     1      37.920 -25.124 -12.431  0.00  0.00    +0.167 C 
BRANCH   4   5
ATOM      5  O   UNL     1      37.190 -26.305 -12.087  0.00  0.00    -0.379 OA
ATOM      6  H   UNL     1      36.324 -26.290 -12.526  0.00  0.00    +0.211 HD
ENDBRANCH   4   5
BRANCH   4   7
ATOM      7  C   UNL     1      37.383 -23.968 -11.565  0.00  0.00    +0.140 C 
ATOM      8  C   UNL     1      35.981 -23.532 -11.963  0.00  0.00    +0.034 C 
BRANCH   7   9
ATOM      9  O   UNL     1      38.231 -22.824 -11.634  0.00  0.00    -0.382 OA
ATOM     10  H   UNL     1      38.259 -22.391 -10.767  0.00  0.00    +0.210 HD
ENDBRANCH   7   9
ENDBRANCH   4   7
ENDBRANCH   1   4
BRANCH   1  11
ATOM     11  C   UNL     1      38.785 -25.880 -14.726  0.00  0.00    +0.205 C 
BRANCH  11  12
ATOM     12  O   UNL     1      38.343 -27.217 -14.580  0.00  0.00    -0.375 OA
ATOM     13  H   UNL     1      37.572 -27.239 -13.991  0.00  0.00    +0.211 HD
ENDBRANCH  11  12
BRANCH  11  15
ATOM     14  O   UNL     1      40.995 -24.885 -14.580  0.00  0.00    -0.286 OA
ATOM     15  C   UNL     1      40.214 -25.767 -14.236  0.00  0.00    +0.239 C 
ENDBRANCH  11  15
ENDBRANCH   1  11
TORSDOF 8
ENDMDL
MODEL 2
REMARK VINA RESULT:      -5.6      1.712      4.523
REMARK  Name = 3034656
REMARK  8 active torsions:
REMARK  status: ('A' for Active; 'I' for Inactive)
REMARK    1  A    between atoms: C_1  and  O_2
REMARK    2  A    between atoms: C_1  and  C_4
REMARK    3  A    between atoms: C_1  and  C_11
REMARK    4  A    between atoms: C_4  and  O_5
REMARK    5  A    between atoms: C_4  and  C_7
REMARK    6  A    between atoms: C_7  and  O_9
REMARK    7  A    between atoms: C_11  and  O_12
REMARK    8  A    between atoms: C_11  and  C_15
REMARK                            x       y       z     vdW  Elec       q    Type
REMARK                         _______ _______ _______ _____ _____    ______ ____
ROOT
ATOM      1  C   UNL     1      36.390 -25.514 -13.306  0.00  0.00    +0.174 C 
ENDROOT
BRANCH   1   2
ATOM      2  O   UNL     1      36.876 -26.389 -12.288  0.00  0.00    -0.379 OA
ATOM      3  H   UNL     1      36.266 -26.380 -11.534  0.00  0.00    +0.211 HD
ENDBRANCH   1   2
BRANCH   1   4
ATOM      4  C   UNL     1      37.582 -24.955 -14.114  0.00  0.00    +0.167 C 
BRANCH   4   5
ATOM      5  O   UNL     1      37.179 -24.710 -15.464  0.00  0.00    -0.379 OA
ATOM      6  H   UNL     1      37.323 -23.775 -15.681  0.00  0.00    +0.211 HD
ENDBRANCH   4   5
BRANCH   4   7
ATOM      7  C   UNL     1      38.848 -25.833 -14.151  0.00  0.00    +0.140 C 
ATOM      8  C   UNL     1      39.952 -25.244 -15.017  0.00  0.00    +0.034 C 
BRANCH   7   9
ATOM      9  O   UNL     1      38.563 -27.142 -14.639  0.00  0.00    -0.382 OA
ATOM     10  H   UNL     1      37.990 -27.078 -15.419  0.00  0.00    +0.210 HD
ENDBRANCH   7   9
ENDBRANCH   4   7
ENDBRANCH   1   4
BRANCH   1  11
ATOM     11  C   UNL     1      35.537 -24.406 -12.664  0.00  0.00    +0.205 C 
BRANCH  11  12
ATOM     12  O   UNL     1      35.787 -23.153 -13.272  0.00  0.00    -0.375 OA
ATOM     13  H   UNL     1      35.669 -23.231 -14.232  0.00  0.00    +0.211 HD
ENDBRANCH  11  12
BRANCH  11  15
ATOM     14  O   UNL     1      35.287 -25.016 -10.327  0.00  0.00    -0.286 OA
ATOM     15  C   UNL     1      35.819 -24.310 -11.178  0.00  0.00    +0.239 C 
ENDBRANCH  11  15
ENDBRANCH   1  11
TORSDOF 8
ENDMDL
MODEL 3
REMARK VINA RESULT:      -5.4      1.552      2.600
REMARK  Name = 3034656
REMARK  8 active torsions:
REMARK  status: ('A' for Active; 'I' for Inactive)
REMARK    1  A    between atoms: C_1  and  O_2
REMARK    2  A    between atoms: C_1  and  C_4
REMARK    3  A    between atoms: C_1  and  C_11
REMARK    4  A    between atoms: C_4  and  O_5
REMARK    5  A    between atoms: C_4  and  C_7
REMARK    6  A    between atoms: C_7  and  O_9
REMARK    7  A    between atoms: C_11  and  O_12
REMARK    8  A    between atoms: C_11  and  C_15
REMARK                            x       y       z     vdW  Elec       q    Type
REMARK                         _______ _______ _______ _____ _____    ______ ____
ROOT
ATOM      1  C   UNL     1      38.031 -25.956 -14.359  0.00  0.00    +0.174 C 
ENDROOT
BRANCH   1   2
ATOM      2  O   UNL     1      39.076 -26.859 -14.717  0.00  0.00    -0.379 OA
ATOM      3  H   UNL     1      38.699 -27.732 -14.910  0.00  0.00    +0.211 HD
ENDBRANCH   1   2
BRANCH   1   4
ATOM      4  C   UNL     1      37.999 -25.792 -12.823  0.00  0.00    +0.167 C 
BRANCH   4   5
ATOM      5  O   UNL     1      36.911 -26.544 -12.279  0.00  0.00    -0.379 OA
ATOM      6  H   UNL     1      37.177 -26.929 -11.429  0.00  0.00    +0.211 HD
ENDBRANCH   4   5
BRANCH   4   7
ATOM      7  C   UNL     1      37.886 -24.348 -12.297  0.00  0.00    +0.140 C 
ATOM      8  C   UNL     1      36.585 -24.090 -11.551  0.00  0.00    +0.034 C 
BRANCH   7   9
ATOM      9  O   UNL     1      37.978 -23.396 -13.354  0.00  0.00    -0.382 OA
ATOM     10  H   UNL     1      37.323 -22.695 -13.214  0.00  0.00    +0.210 HD
ENDBRANCH   7   9
ENDBRANCH   4   7
ENDBRANCH   1   4
BRANCH   1  11
ATOM     11  C   UNL     1      36.696 -26.465 -14.929  0.00  0.00    +0.205 C 
BRANCH  11  12
ATOM     12  O   UNL     1      36.898 -27.207 -16.116  0.00  0.00    -0.375 OA
ATOM     13  H   UNL     1      36.417 -26.786 -16.846  0.00  0.00    +0.211 HD
ENDBRANCH  11  12
BRANCH  11  15
ATOM     14  O   UNL     1      36.127 -24.207 -15.619  0.00  0.00    -0.286 OA
ATOM     15  C   UNL     1      35.761 -25.307 -15.213  0.00  0.00    +0.239 C 
ENDBRANCH  11  15
ENDBRANCH   1  11
TORSDOF 8
ENDMDL
MODEL 4
REMARK VINA RESULT:      -5.4      1.920      2.917
REMARK  Name = 3034656
REMARK  8 active torsions:
REMARK  status: ('A' for Active; 'I' for Inactive)
REMARK    1  A    between atoms: C_1  and  O_2
REMARK    2  A    between atoms: C_1  and  C_4
REMARK    3  A    between atoms: C_1  and  C_11
REMARK    4  A    between atoms: C_4  and  O_5
REMARK    5  A    between atoms: C_4  and  C_7
REMARK    6  A    between atoms: C_7  and  O_9
REMARK    7  A    between atoms: C_11  and  O_12
REMARK    8  A    between atoms: C_11  and  C_15
REMARK                            x       y       z     vdW  Elec       q    Type
REMARK                         _______ _______ _______ _____ _____    ______ ____
ROOT
ATOM      1  C   UNL     1      37.932 -26.099 -14.047  0.00  0.00    +0.174 C 
ENDROOT
BRANCH   1   2
ATOM      2  O   UNL     1      38.174 -26.223 -15.449  0.00  0.00    -0.379 OA
ATOM      3  H   UNL     1      38.466 -25.368 -15.804  0.00  0.00    +0.211 HD
ENDBRANCH   1   2
BRANCH   1   4
ATOM      4  C   UNL     1      36.735 -25.151 -13.816  0.00  0.00    +0.167 C 
BRANCH   4   5
ATOM      5  O   UNL     1      36.033 -25.537 -12.631  0.00  0.00    -0.379 OA
ATOM      6  H   UNL     1      35.374 -26.215 -12.852  0.00  0.00    +0.211 HD
ENDBRANCH   4   5
BRANCH   4   7
ATOM      7  C   UNL     1      35.710 -25.059 -14.963  0.00  0.00    +0.140 C 
ATOM      8  C   UNL     1      34.372 -24.488 -14.517  0.00  0.00    +0.034 C 
BRANCH   7   9
ATOM      9  O   UNL     1      35.466 -26.334 -15.551  0.00  0.00    -0.382 OA
ATOM     10  H   UNL     1      36.301 -26.823 -15.619  0.00  0.00    +0.210 HD
ENDBRANCH   7   9
ENDBRANCH   4   7
ENDBRANCH   1   4
BRANCH   1  11
ATOM     11  C   UNL     1      39.214 -25.619 -13.346  0.00  0.00    +0.205 C 
BRANCH  11  12
ATOM     12  O   UNL     1      39.046 -24.319 -12.811  0.00  0.00    -0.375 OA
ATOM     13  H   UNL     1      38.100 -24.121 -12.737  0.00  0.00    +0.211 HD
ENDBRANCH  11  12
BRANCH  11  15
ATOM     14  O   UNL     1      40.986 -26.626 -14.666  0.00  0.00    -0.286 OA
ATOM     15  C   UNL     1      40.381 -25.618 -14.313  0.00  0.00    +0.239 C 
ENDBRANCH  11  15
ENDBRANCH   1  11
TORSDOF 8
ENDMDL
MODEL 5
REMARK VINA RESULT:      -5.3      2.072      2.561
REMARK  Name = 3034656
REMARK  8 active torsions:
REMARK  status: ('A' for Active; 'I' for Inactive)
REMARK    1  A    between atoms: C_1  and  O_2
REMARK    2  A    between atoms: C_1  and  C_4
REMARK    3  A    between atoms: C_1  and  C_11
REMARK    4  A    between atoms: C_4  and  O_5
REMARK    5  A    between atoms: C_4  and  C_7
REMARK    6  A    between atoms: C_7  and  O_9
REMARK    7  A    between atoms: C_11  and  O_12
REMARK    8  A    between atoms: C_11  and  C_15
REMARK                            x       y       z     vdW  Elec       q    Type
REMARK                         _______ _______ _______ _____ _____    ______ ____
ROOT
ATOM      1  C   UNL     1      37.597 -25.910 -14.597  0.00  0.00    +0.174 C 
ENDROOT
BRANCH   1   2
ATOM      2  O   UNL     1      37.636 -26.599 -15.847  0.00  0.00    -0.379 OA
ATOM      3  H   UNL     1      38.007 -27.486 -15.717  0.00  0.00    +0.211 HD
ENDBRANCH   1   2
BRANCH   1   4
ATOM      4  C   UNL     1      36.232 -25.202 -14.446  0.00  0.00    +0.167 C 
BRANCH   4   5
ATOM      5  O   UNL     1      35.857 -24.604 -15.690  0.00  0.00    -0.379 OA
ATOM      6  H   UNL     1      35.958 -25.253 -16.405  0.00  0.00    +0.211 HD
ENDBRANCH   4   5
BRANCH   4   7
ATOM      7  C   UNL     1      36.148 -24.116 -13.356  0.00  0.00    +0.140 C 
ATOM      8  C   UNL     1      35.500 -24.615 -12.072  0.00  0.00    +0.034 C 
BRANCH   7   9
ATOM      9  O   UNL     1      35.411 -22.981 -13.803  0.00  0.00    -0.382 OA
ATOM     10  H   UNL     1      35.714 -22.192 -13.327  0.00  0.00    +0.210 HD
ENDBRANCH   7   9
ENDBRANCH   4   7
ENDBRANCH   1   4
BRANCH   1  11
ATOM     11  C   UNL     1      38.783 -24.936 -14.512  0.00  0.00    +0.205 C 
BRANCH  11  12
ATOM     12  O   UNL     1      38.755 -24.003 -15.575  0.00  0.00    -0.375 OA
ATOM     13  H   UNL     1      38.715 -24.478 -16.420  0.00  0.00    +0.211 HD
ENDBRANCH  11  12
BRANCH  11  15
ATOM     14  O   UNL     1      40.630 -26.111 -15.564  0.00  0.00    -0.286 OA
ATOM     15  C   UNL     1      40.097 -25.692 -14.541  0.00  0.00    +0.239 C 
ENDBRANCH  11  15
ENDBRANCH   1  11
TORSDOF 8
ENDMDL
MODEL 6
REMARK VINA RESULT:      -5.3      1.878      4.122
REMARK  Name = 3034656
REMARK  8 active torsions:
REMARK  status: ('A' for Active; 'I' for Inactive)
REMARK    1  A    between atoms: C_1  and  O_2
REMARK    2  A    between atoms: C_1  and  C_4
REMARK    3  A    between atoms: C_1  and  C_11
REMARK    4  A    between atoms: C_4  and  O_5
REMARK    5  A    between atoms: C_4  and  C_7
REMARK    6  A    between atoms: C_7  and  O_9
REMARK    7  A    between atoms: C_11  and  O_12
REMARK    8  A    between atoms: C_11  and  C_15
REMARK                            x       y       z     vdW  Elec       q    Type
REMARK                         _______ _______ _______ _____ _____    ______ ____
ROOT
ATOM      1  C   UNL     1      37.031 -25.545 -13.274  0.00  0.00    +0.174 C 
ENDROOT
BRANCH   1   2
ATOM      2  O   UNL     1      38.326 -26.141 -13.211  0.00  0.00    -0.379 OA
ATOM      3  H   UNL     1      38.516 -26.595 -14.047  0.00  0.00    +0.211 HD
ENDBRANCH   1   2
BRANCH   1   4
ATOM      4  C   UNL     1      36.803 -24.964 -14.688  0.00  0.00    +0.167 C 
BRANCH   4   5
ATOM      5  O   UNL     1      37.093 -25.960 -15.672  0.00  0.00    -0.379 OA
ATOM      6  H   UNL     1      37.048 -26.840 -15.266  0.00  0.00    +0.211 HD
ENDBRANCH   4   5
BRANCH   4   7
ATOM      7  C   UNL     1      37.612 -23.701 -15.041  0.00  0.00    +0.140 C 
ATOM      8  C   UNL     1      36.927 -22.833 -16.087  0.00  0.00    +0.034 C 
BRANCH   7   9
ATOM      9  O   UNL     1      38.910 -24.029 -15.530  0.00  0.00    -0.382 OA
ATOM     10  H   UNL     1      39.033 -24.991 -15.497  0.00  0.00    +0.210 HD
ENDBRANCH   7   9
ENDBRANCH   4   7
ENDBRANCH   1   4
BRANCH   1  11
ATOM     11  C   UNL     1      36.901 -24.484 -12.169  0.00  0.00    +0.205 C 
BRANCH  11  12
ATOM     12  O   UNL     1      37.903 -24.648 -11.183  0.00  0.00    -0.375 OA
ATOM     13  H   UNL     1      38.551 -25.303 -11.488  0.00  0.00    +0.211 HD
ENDBRANCH  11  12
BRANCH  11  15
ATOM     14  O   UNL     1      35.316 -25.103 -10.437  0.00  0.00    -0.286 OA
ATOM     15  C   UNL     1      35.536 -24.560 -11.515  0.00  0.00    +0.239 C 
ENDBRANCH  11  15
ENDBRANCH   1  11
TORSDOF 8
ENDMDL
MODEL 7
REMARK VINA RESULT:      -5.3      2.353      4.412
REMARK  Name = 3034656
REMARK  8 active torsions:
REMARK  status: ('A' for Active; 'I' for Inactive)
REMARK    1  A    between atoms: C_1  and  O_2
REMARK    2  A    between atoms: C_1  and  C_4
REMARK    3  A    between atoms: C_1  and  C_11
REMARK    4  A    between atoms: C_4  and  O_5
REMARK    5  A    between atoms: C_4  and  C_7
REMARK    6  A    between atoms: C_7  and  O_9
REMARK    7  A    between atoms: C_11  and  O_12
REMARK    8  A    between atoms: C_11  and  C_15
REMARK                            x       y       z     vdW  Elec       q    Type
REMARK                         _______ _______ _______ _____ _____    ______ ____
ROOT
ATOM      1  C   UNL     1      35.267 -24.120 -13.009  0.00  0.00    +0.174 C 
ENDROOT
BRANCH   1   2
ATOM      2  O   UNL     1      34.043 -24.793 -12.715  0.00  0.00    -0.379 OA
ATOM      3  H   UNL     1      33.525 -24.264 -12.088  0.00  0.00    +0.211 HD
ENDBRANCH   1   2
BRANCH   1   4
ATOM      4  C   UNL     1      35.667 -24.401 -14.475  0.00  0.00    +0.167 C 
BRANCH   4   5
ATOM      5  O   UNL     1      35.468 -25.786 -14.773  0.00  0.00    -0.379 OA
ATOM      6  H   UNL     1      34.551 -26.032 -14.572  0.00  0.00    +0.211 HD
ENDBRANCH   4   5
BRANCH   4   7
ATOM      7  C   UNL     1      37.111 -24.036 -14.867  0.00  0.00    +0.140 C 
ATOM      8  C   UNL     1      37.180 -22.928 -15.908  0.00  0.00    +0.034 C 
BRANCH   7   9
ATOM      9  O   UNL     1      37.815 -25.162 -15.383  0.00  0.00    -0.382 OA
ATOM     10  H   UNL     1      37.375 -25.977 -15.095  0.00  0.00    +0.210 HD
ENDBRANCH   7   9
ENDBRANCH   4   7
ENDBRANCH   1   4
BRANCH   1  11
ATOM     11  C   UNL     1      36.347 -24.560 -12.005  0.00  0.00    +0.205 C 
BRANCH  11  12
ATOM     12  O   UNL     1      36.472 -25.970 -11.976  0.00  0.00    -0.375 OA
ATOM     13  H   UNL     1      35.727 -26.349 -11.485  0.00  0.00    +0.211 HD
ENDBRANCH  11  12
BRANCH  11  15
ATOM     14  O   UNL     1      35.271 -24.632  -9.829  0.00  0.00    -0.286 OA
ATOM     15  C   UNL     1      36.019 -24.056 -10.614  0.00  0.00    +0.239 C 
ENDBRANCH  11  15
ENDBRANCH   1  11
TORSDOF 8
ENDMDL
MODEL 8
REMARK VINA RESULT:      -5.2      8.546     10.019
REMARK  Name = 3034656
REMARK  8 active torsions:
REMARK  status: ('A' for Active; 'I' for Inactive)
REMARK    1  A    between atoms: C_1  and  O_2
REMARK    2  A    between atoms: C_1  and  C_4
REMARK    3  A    between atoms: C_1  and  C_11
REMARK    4  A    between atoms: C_4  and  O_5
REMARK    5  A    between atoms: C_4  and  C_7
REMARK    6  A    between atoms: C_7  and  O_9
REMARK    7  A    between atoms: C_11  and  O_12
REMARK    8  A    between atoms: C_11  and  C_15
REMARK                            x       y       z     vdW  Elec       q    Type
REMARK                         _______ _______ _______ _____ _____    ______ ____
ROOT
ATOM      1  C   UNL     1      29.244 -22.858 -15.853  0.00  0.00    +0.174 C 
ENDROOT
BRANCH   1   2
ATOM      2  O   UNL     1      29.933 -22.397 -17.016  0.00  0.00    -0.379 OA
ATOM      3  H   UNL     1      29.293 -22.228 -17.726  0.00  0.00    +0.211 HD
ENDBRANCH   1   2
BRANCH   1   4
ATOM      4  C   UNL     1      30.051 -24.001 -15.199  0.00  0.00    +0.167 C 
BRANCH   4   5
ATOM      5  O   UNL     1      29.203 -25.134 -14.990  0.00  0.00    -0.379 OA
ATOM      6  H   UNL     1      29.656 -25.777 -14.421  0.00  0.00    +0.211 HD
ENDBRANCH   4   5
BRANCH   4   7
ATOM      7  C   UNL     1      30.735 -23.669 -13.859  0.00  0.00    +0.140 C 
ATOM      8  C   UNL     1      32.228 -23.413 -14.003  0.00  0.00    +0.034 C 
BRANCH   7   9
ATOM      9  O   UNL     1      30.562 -24.717 -12.909  0.00  0.00    -0.382 OA
ATOM     10  H   UNL     1      29.616 -24.896 -12.793  0.00  0.00    +0.210 HD
ENDBRANCH   7   9
ENDBRANCH   4   7
ENDBRANCH   1   4
BRANCH   1  11
ATOM     11  C   UNL     1      27.817 -23.284 -16.239  0.00  0.00    +0.205 C 
BRANCH  11  12
ATOM     12  O   UNL     1      27.821 -24.086 -17.405  0.00  0.00    -0.375 OA
ATOM     13  H   UNL     1      27.458 -23.577 -18.147  0.00  0.00    +0.211 HD
ENDBRANCH  11  12
BRANCH  11  15
ATOM     14  O   UNL     1      27.064 -21.297 -17.414  0.00  0.00    -0.286 OA
ATOM     15  C   UNL     1      26.941 -22.069 -16.467  0.00  0.00    +0.239 C 
ENDBRANCH  11  15
ENDBRANCH   1  11
TORSDOF 8
ENDMDL
MODEL 9
REMARK VINA RESULT:      -5.2      1.213      2.220
REMARK  Name = 3034656
REMARK  8 active torsions:
REMARK  status: ('A' for Active; 'I' for Inactive)
REMARK    1  A    between atoms: C_1  and  O_2
REMARK    2  A    between atoms: C_1  and  C_4
REMARK    3  A    between atoms: C_1  and  C_11
REMARK    4  A    between atoms: C_4  and  O_5
REMARK    5  A    between atoms: C_4  and  C_7
REMARK    6  A    between atoms: C_7  and  O_9
REMARK    7  A    between atoms: C_11  and  O_12
REMARK    8  A    between atoms: C_11  and  C_15
REMARK                            x       y       z     vdW  Elec       q    Type
REMARK                         _______ _______ _______ _____ _____    ______ ____
ROOT
ATOM      1  C   UNL     1      37.689 -25.538 -13.200  0.00  0.00    +0.174 C 
ENDROOT
BRANCH   1   2
ATOM      2  O   UNL     1      36.910 -26.676 -12.832  0.00  0.00    -0.379 OA
ATOM      3  H   UNL     1      36.551 -26.548 -11.940  0.00  0.00    +0.211 HD
ENDBRANCH   1   2
BRANCH   1   4
ATOM      4  C   UNL     1      36.749 -24.350 -13.505  0.00  0.00    +0.167 C 
BRANCH   4   5
ATOM      5  O   UNL     1      37.521 -23.205 -13.877  0.00  0.00    -0.379 OA
ATOM      6  H   UNL     1      38.121 -23.442 -14.603  0.00  0.00    +0.211 HD
ENDBRANCH   4   5
BRANCH   4   7
ATOM      7  C   UNL     1      35.797 -23.929 -12.369  0.00  0.00    +0.140 C 
ATOM      8  C   UNL     1      36.527 -23.607 -11.073  0.00  0.00    +0.034 C 
BRANCH   7   9
ATOM      9  O   UNL     1      34.837 -24.944 -12.087  0.00  0.00    -0.382 OA
ATOM     10  H   UNL     1      34.043 -24.796 -12.624  0.00  0.00    +0.210 HD
ENDBRANCH   7   9
ENDBRANCH   4   7
ENDBRANCH   1   4
BRANCH   1  11
ATOM     11  C   UNL     1      38.594 -25.899 -14.389  0.00  0.00    +0.205 C 
BRANCH  11  12
ATOM     12  O   UNL     1      38.429 -27.254 -14.764  0.00  0.00    -0.375 OA
ATOM     13  H   UNL     1      38.014 -27.297 -15.640  0.00  0.00    +0.211 HD
ENDBRANCH  11  12
BRANCH  11  15
ATOM     14  O   UNL     1      40.922 -26.508 -14.062  0.00  0.00    -0.286 OA
ATOM     15  C   UNL     1      40.049 -25.645 -14.049  0.00  0.00    +0.239 C 
ENDBRANCH  11  15
ENDBRANCH   1  11
TORSDOF 8
ENDMDL
