MODEL 1
REMARK VINA RESULT:      -9.0      0.000      0.000
REMARK  Name = 9331
REMARK  8 active torsions:
REMARK  status: ('A' for Active; 'I' for Inactive)
REMARK    1  A    between atoms: N_1  and  C_20
REMARK    2  A    between atoms: C_2  and  N_8
REMARK    3  A    between atoms: C_2  and  C_17
REMARK    4  A    between atoms: C_20  and  C_21
REMARK    5  A    between atoms: C_21  and  C_22
REMARK    6  A    between atoms: C_22  and  C_23
REMARK    7  A    between atoms: C_22  and  C_29
REMARK    8  A    between atoms: C_22  and  C_36
REMARK                            x       y       z     vdW  Elec       q    Type
REMARK                         _______ _______ _______ _____ _____    ______ ____
ROOT
ATOM      1  N   UNL     1      32.297 -22.753 -14.755  0.00  0.00    +0.387 N 
ATOM      2  C   UNL     1      29.620 -23.704 -15.511  0.00  0.00    +0.024 C 
ATOM      3  C   UNL     1      29.902 -23.009 -14.173  0.00  0.00    -0.033 C 
ATOM      4  C   UNL     1      30.685 -23.322 -16.548  0.00  0.00    -0.033 C 
ATOM      5  C   UNL     1      31.355 -23.201 -13.721  0.00  0.00    -0.079 C 
ATOM      6  C   UNL     1      32.107 -23.502 -16.004  0.00  0.00    -0.079 C 
ATOM      7  H   UNL     1      32.110 -21.769 -14.946  0.00  0.00    -0.080 HD
ENDROOT
BRANCH   2   8
ATOM      8  N   UNL     1      28.294 -23.324 -15.999  0.00  0.00    +0.395 N 
ATOM      9  C   UNL     1      27.717 -22.272 -15.152  0.00  0.00    -0.077 C 
ATOM     10  C   UNL     1      28.366 -22.898 -17.403  0.00  0.00    -0.077 C 
ATOM     11  C   UNL     1      26.309 -21.898 -15.619  0.00  0.00    -0.023 C 
ATOM     12  C   UNL     1      26.980 -22.545 -17.944  0.00  0.00    -0.023 C 
ATOM     13  C   UNL     1      26.304 -21.481 -17.085  0.00  0.00    -0.004 C 
ATOM     14  H   UNL     1      27.682 -24.139 -15.949  0.00  0.00    -0.079 HD
ENDBRANCH   2   8
BRANCH   2  17
ATOM     15  O   UNL     1      30.138 -25.970 -16.102  0.00  0.00    -0.277 OA
ATOM     16  N   UNL     1      28.818 -25.603 -14.252  0.00  0.00    -0.330 N 
ATOM     17  C   UNL     1      29.568 -25.200 -15.332  0.00  0.00    +0.201 C 
ATOM     18  H   UNL     1      28.722 -26.562 -14.051  0.00  0.00    +0.145 HD
ATOM     19  H   UNL     1      28.376 -24.934 -13.683  0.00  0.00    +0.145 HD
ENDBRANCH   2  17
BRANCH   1  20
ATOM     20  C   UNL     1      33.675 -22.887 -14.283  0.00  0.00    -0.076 C 
BRANCH  20  21
ATOM     21  C   UNL     1      34.208 -24.294 -14.610  0.00  0.00    -0.000 C 
BRANCH  21  22
ATOM     22  C   UNL     1      35.741 -24.368 -14.960  0.00  0.00    +0.115 C 
BRANCH  22  23
ATOM     23  C   UNL     1      36.658 -24.160 -13.726  0.00  0.00    -0.006 C 
ATOM     24  C   UNL     1      36.220 -23.322 -12.741  0.00  0.00    -0.003 C 
ATOM     25  C   UNL     1      37.850 -24.827 -13.698  0.00  0.00    -0.003 C 
ATOM     26  C   UNL     1      37.045 -23.135 -11.631  0.00  0.00    -0.000 C 
ATOM     27  C   UNL     1      38.674 -24.640 -12.588  0.00  0.00    -0.000 C 
ATOM     28  C   UNL     1      38.271 -23.795 -11.555  0.00  0.00    -0.000 C 
ENDBRANCH  22  23
BRANCH  22  29
ATOM     29  C   UNL     1      36.054 -23.283 -16.020  0.00  0.00    -0.006 C 
ATOM     30  C   UNL     1      35.201 -23.160 -17.081  0.00  0.00    -0.003 C 
ATOM     31  C   UNL     1      37.165 -22.509 -15.835  0.00  0.00    -0.003 C 
ATOM     32  C   UNL     1      35.483 -22.182 -18.036  0.00  0.00    -0.000 C 
ATOM     33  C   UNL     1      37.448 -21.531 -16.789  0.00  0.00    -0.000 C 
ATOM     34  C   UNL     1      36.606 -21.368 -17.889  0.00  0.00    -0.000 C 
ENDBRANCH  22  29
BRANCH  22  36
ATOM     35  N   UNL     1      36.175 -26.841 -15.825  0.00  0.00    -0.195 NA
ATOM     36  C   UNL     1      35.992 -25.761 -15.441  0.00  0.00    +0.079 C 
ENDBRANCH  22  36
ENDBRANCH  21  22
ENDBRANCH  20  21
ENDBRANCH   1  20
TORSDOF 8
ENDMDL
MODEL 2
REMARK VINA RESULT:      -8.7      9.697     13.081
REMARK  Name = 9331
REMARK  8 active torsions:
REMARK  status: ('A' for Active; 'I' for Inactive)
REMARK    1  A    between atoms: N_1  and  C_20
REMARK    2  A    between atoms: C_2  and  N_8
REMARK    3  A    between atoms: C_2  and  C_17
REMARK    4  A    between atoms: C_20  and  C_21
REMARK    5  A    between atoms: C_21  and  C_22
REMARK    6  A    between atoms: C_22  and  C_23
REMARK    7  A    between atoms: C_22  and  C_29
REMARK    8  A    between atoms: C_22  and  C_36
REMARK                            x       y       z     vdW  Elec       q    Type
REMARK                         _______ _______ _______ _____ _____    ______ ____
ROOT
ATOM      1  N   UNL     1      34.201 -16.562 -23.195  0.00  0.00    +0.387 N 
ATOM      2  C   UNL     1      35.086 -18.661 -21.337  0.00  0.00    +0.024 C 
ATOM      3  C   UNL     1      34.643 -17.271 -20.862  0.00  0.00    -0.033 C 
ATOM      4  C   UNL     1      34.481 -18.975 -22.711  0.00  0.00    -0.033 C 
ATOM      5  C   UNL     1      34.866 -16.200 -21.936  0.00  0.00    -0.079 C 
ATOM      6  C   UNL     1      34.711 -17.839 -23.714  0.00  0.00    -0.079 C 
ATOM      7  H   UNL     1      33.206 -16.674 -23.005  0.00  0.00    -0.080 HD
ENDROOT
BRANCH   2   8
ATOM      8  N   UNL     1      34.667 -19.673 -20.367  0.00  0.00    +0.395 N 
ATOM      9  C   UNL     1      33.247 -20.004 -20.549  0.00  0.00    -0.077 C 
ATOM     10  C   UNL     1      35.511 -20.872 -20.478  0.00  0.00    -0.077 C 
ATOM     11  C   UNL     1      32.781 -21.026 -19.511  0.00  0.00    -0.023 C 
ATOM     12  C   UNL     1      35.119 -21.921 -19.437  0.00  0.00    -0.023 C 
ATOM     13  C   UNL     1      33.642 -22.284 -19.545  0.00  0.00    -0.004 C 
ATOM     14  H   UNL     1      34.782 -19.293 -19.427  0.00  0.00    -0.079 HD
ENDBRANCH   2   8
BRANCH   2  17
ATOM     15  O   UNL     1      37.262 -18.989 -20.384  0.00  0.00    -0.277 OA
ATOM     16  N   UNL     1      37.119 -18.524 -22.634  0.00  0.00    -0.330 N 
ATOM     17  C   UNL     1      36.590 -18.750 -21.385  0.00  0.00    +0.201 C 
ATOM     18  H   UNL     1      38.094 -18.560 -22.769  0.00  0.00    +0.145 HD
ATOM     19  H   UNL     1      36.524 -18.326 -23.392  0.00  0.00    +0.145 HD
ENDBRANCH   2  17
BRANCH   1  20
ATOM     20  C   UNL     1      34.374 -15.501 -24.188  0.00  0.00    -0.076 C 
BRANCH  20  21
ATOM     21  C   UNL     1      34.458 -14.134 -23.486  0.00  0.00    -0.000 C 
BRANCH  21  22
ATOM     22  C   UNL     1      33.463 -13.039 -24.027  0.00  0.00    +0.115 C 
BRANCH  22  23
ATOM     23  C   UNL     1      34.184 -11.814 -24.646  0.00  0.00    -0.006 C 
ATOM     24  C   UNL     1      34.384 -10.722 -23.850  0.00  0.00    -0.003 C 
ATOM     25  C   UNL     1      34.578 -11.898 -25.952  0.00  0.00    -0.003 C 
ATOM     26  C   UNL     1      35.033  -9.620 -24.407  0.00  0.00    -0.000 C 
ATOM     27  C   UNL     1      35.226 -10.796 -26.508  0.00  0.00    -0.000 C 
ATOM     28  C   UNL     1      35.454  -9.657 -25.736  0.00  0.00    -0.000 C 
ENDBRANCH  22  23
BRANCH  22  29
ATOM     29  C   UNL     1      32.569 -12.569 -22.854  0.00  0.00    -0.006 C 
ATOM     30  C   UNL     1      32.624 -13.273 -21.684  0.00  0.00    -0.003 C 
ATOM     31  C   UNL     1      31.773 -11.475 -23.054  0.00  0.00    -0.003 C 
ATOM     32  C   UNL     1      31.817 -12.849 -20.627  0.00  0.00    -0.000 C 
ATOM     33  C   UNL     1      30.967 -11.050 -21.998  0.00  0.00    -0.000 C 
ATOM     34  C   UNL     1      30.990 -11.738 -20.785  0.00  0.00    -0.000 C 
ENDBRANCH  22  29
BRANCH  22  36
ATOM     35  N   UNL     1      32.118 -14.190 -26.008  0.00  0.00    -0.195 NA
ATOM     36  C   UNL     1      32.699 -13.684 -25.139  0.00  0.00    +0.079 C 
ENDBRANCH  22  36
ENDBRANCH  21  22
ENDBRANCH  20  21
ENDBRANCH   1  20
TORSDOF 8
ENDMDL
MODEL 3
REMARK VINA RESULT:      -8.6     14.732     17.293
REMARK  Name = 9331
REMARK  8 active torsions:
REMARK  status: ('A' for Active; 'I' for Inactive)
REMARK    1  A    between atoms: N_1  and  C_20
REMARK    2  A    between atoms: C_2  and  N_8
REMARK    3  A    between atoms: C_2  and  C_17
REMARK    4  A    between atoms: C_20  and  C_21
REMARK    5  A    between atoms: C_21  and  C_22
REMARK    6  A    between atoms: C_22  and  C_23
REMARK    7  A    between atoms: C_22  and  C_29
REMARK    8  A    between atoms: C_22  and  C_36
REMARK                            x       y       z     vdW  Elec       q    Type
REMARK                         _______ _______ _______ _____ _____    ______ ____
ROOT
ATOM      1  N   UNL     1      32.096  -9.206 -23.013  0.00  0.00    +0.387 N 
ATOM      2  C   UNL     1      31.910  -6.302 -23.430  0.00  0.00    +0.024 C 
ATOM      3  C   UNL     1      33.204  -6.990 -22.974  0.00  0.00    -0.033 C 
ATOM      4  C   UNL     1      31.000  -7.301 -24.156  0.00  0.00    -0.033 C 
ATOM      5  C   UNL     1      32.924  -8.293 -22.215  0.00  0.00    -0.079 C 
ATOM      6  C   UNL     1      30.805  -8.592 -23.352  0.00  0.00    -0.079 C 
ATOM      7  H   UNL     1      32.591  -9.400 -23.884  0.00  0.00    -0.080 HD
ENDROOT
BRANCH   2   8
ATOM      8  N   UNL     1      32.229  -5.184 -24.319  0.00  0.00    +0.395 N 
ATOM      9  C   UNL     1      33.070  -5.638 -25.435  0.00  0.00    -0.077 C 
ATOM     10  C   UNL     1      30.997  -4.547 -24.805  0.00  0.00    -0.077 C 
ATOM     11  C   UNL     1      33.452  -4.471 -26.347  0.00  0.00    -0.023 C 
ATOM     12  C   UNL     1      31.312  -3.345 -25.696  0.00  0.00    -0.023 C 
ATOM     13  C   UNL     1      32.218  -3.738 -26.858  0.00  0.00    -0.004 C 
ATOM     14  H   UNL     1      32.756  -4.488 -23.791  0.00  0.00    -0.079 HD
ENDBRANCH   2   8
BRANCH   2  17
ATOM     15  O   UNL     1      29.986  -5.455 -22.276  0.00  0.00    -0.277 OA
ATOM     16  N   UNL     1      32.014  -5.406 -21.189  0.00  0.00    -0.330 N 
ATOM     17  C   UNL     1      31.193  -5.688 -22.254  0.00  0.00    +0.201 C 
ATOM     18  H   UNL     1      31.640  -5.002 -20.373  0.00  0.00    +0.145 HD
ATOM     19  H   UNL     1      32.976  -5.606 -21.243  0.00  0.00    +0.145 HD
ENDBRANCH   2  17
BRANCH   1  20
ATOM     20  C   UNL     1      31.891 -10.466 -22.299  0.00  0.00    -0.076 C 
BRANCH  20  21
ATOM     21  C   UNL     1      31.778 -11.627 -23.304  0.00  0.00    -0.000 C 
BRANCH  21  22
ATOM     22  C   UNL     1      33.127 -12.376 -23.618  0.00  0.00    +0.115 C 
BRANCH  22  23
ATOM     23  C   UNL     1      33.121 -13.091 -24.995  0.00  0.00    -0.006 C 
ATOM     24  C   UNL     1      33.445 -12.354 -26.097  0.00  0.00    -0.003 C 
ATOM     25  C   UNL     1      32.792 -14.417 -25.023  0.00  0.00    -0.003 C 
ATOM     26  C   UNL     1      33.440 -12.996 -27.335  0.00  0.00    -0.000 C 
ATOM     27  C   UNL     1      32.787 -15.059 -26.261  0.00  0.00    -0.000 C 
ATOM     28  C   UNL     1      33.111 -14.349 -27.417  0.00  0.00    -0.000 C 
ENDBRANCH  22  23
BRANCH  22  29
ATOM     29  C   UNL     1      33.380 -13.418 -22.501  0.00  0.00    -0.006 C 
ATOM     30  C   UNL     1      34.531 -14.153 -22.558  0.00  0.00    -0.003 C 
ATOM     31  C   UNL     1      32.437 -13.545 -21.519  0.00  0.00    -0.003 C 
ATOM     32  C   UNL     1      34.758 -15.091 -21.551  0.00  0.00    -0.000 C 
ATOM     33  C   UNL     1      32.664 -14.483 -20.511  0.00  0.00    -0.000 C 
ATOM     34  C   UNL     1      33.825 -15.256 -20.529  0.00  0.00    -0.000 C 
ENDBRANCH  22  29
BRANCH  22  36
ATOM     35  N   UNL     1      34.993 -10.492 -23.771  0.00  0.00    -0.195 NA
ATOM     36  C   UNL     1      34.182 -11.319 -23.698  0.00  0.00    +0.079 C 
ENDBRANCH  22  36
ENDBRANCH  21  22
ENDBRANCH  20  21
ENDBRANCH   1  20
TORSDOF 8
ENDMDL
MODEL 4
REMARK VINA RESULT:      -8.6      5.095      7.997
REMARK  Name = 9331
REMARK  8 active torsions:
REMARK  status: ('A' for Active; 'I' for Inactive)
REMARK    1  A    between atoms: N_1  and  C_20
REMARK    2  A    between atoms: C_2  and  N_8
REMARK    3  A    between atoms: C_2  and  C_17
REMARK    4  A    between atoms: C_20  and  C_21
REMARK    5  A    between atoms: C_21  and  C_22
REMARK    6  A    between atoms: C_22  and  C_23
REMARK    7  A    between atoms: C_22  and  C_29
REMARK    8  A    between atoms: C_22  and  C_36
REMARK                            x       y       z     vdW  Elec       q    Type
REMARK                         _______ _______ _______ _____ _____    ______ ____
ROOT
ATOM      1  N   UNL     1      34.743 -20.461 -19.748  0.00  0.00    +0.387 N 
ATOM      2  C   UNL     1      34.984 -18.287 -21.712  0.00  0.00    +0.024 C 
ATOM      3  C   UNL     1      33.642 -18.691 -21.088  0.00  0.00    -0.033 C 
ATOM      4  C   UNL     1      36.146 -18.715 -20.806  0.00  0.00    -0.033 C 
ATOM      5  C   UNL     1      33.629 -20.163 -20.658  0.00  0.00    -0.079 C 
ATOM      6  C   UNL     1      36.037 -20.186 -20.388  0.00  0.00    -0.079 C 
ATOM      7  H   UNL     1      34.658 -19.851 -18.935  0.00  0.00    -0.080 HD
ENDROOT
BRANCH   2   8
ATOM      8  N   UNL     1      35.021 -16.839 -21.915  0.00  0.00    +0.395 N 
ATOM      9  C   UNL     1      34.249 -16.467 -23.110  0.00  0.00    -0.077 C 
ATOM     10  C   UNL     1      34.525 -16.139 -20.722  0.00  0.00    -0.077 C 
ATOM     11  C   UNL     1      34.319 -14.961 -23.364  0.00  0.00    -0.023 C 
ATOM     12  C   UNL     1      34.604 -14.622 -20.899  0.00  0.00    -0.023 C 
ATOM     13  C   UNL     1      33.854 -14.169 -22.147  0.00  0.00    -0.004 C 
ATOM     14  H   UNL     1      35.989 -16.555 -22.067  0.00  0.00    -0.079 HD
ENDBRANCH   2   8
BRANCH   2  17
ATOM     15  O   UNL     1      34.213 -19.489 -23.638  0.00  0.00    -0.277 OA
ATOM     16  N   UNL     1      36.380 -18.715 -23.636  0.00  0.00    -0.330 N 
ATOM     17  C   UNL     1      35.132 -18.889 -23.086  0.00  0.00    +0.201 C 
ATOM     18  H   UNL     1      36.577 -19.073 -24.532  0.00  0.00    +0.145 HD
ATOM     19  H   UNL     1      37.077 -18.235 -23.134  0.00  0.00    +0.145 HD
ENDBRANCH   2  17
BRANCH   1  20
ATOM     20  C   UNL     1      34.680 -21.852 -19.300  0.00  0.00    -0.076 C 
BRANCH  20  21
ATOM     21  C   UNL     1      34.738 -21.913 -17.763  0.00  0.00    -0.000 C 
BRANCH  21  22
ATOM     22  C   UNL     1      34.242 -23.264 -17.125  0.00  0.00    +0.115 C 
BRANCH  22  23
ATOM     23  C   UNL     1      32.926 -23.110 -16.318  0.00  0.00    -0.006 C 
ATOM     24  C   UNL     1      33.009 -23.118 -14.955  0.00  0.00    -0.003 C 
ATOM     25  C   UNL     1      31.761 -22.974 -17.019  0.00  0.00    -0.003 C 
ATOM     26  C   UNL     1      31.826 -22.980 -14.230  0.00  0.00    -0.000 C 
ATOM     27  C   UNL     1      30.578 -22.836 -16.293  0.00  0.00    -0.000 C 
ATOM     28  C   UNL     1      30.610 -22.838 -14.899  0.00  0.00    -0.000 C 
ENDBRANCH  22  23
BRANCH  22  29
ATOM     29  C   UNL     1      35.355 -23.801 -16.192  0.00  0.00    -0.006 C 
ATOM     30  C   UNL     1      35.202 -25.054 -15.667  0.00  0.00    -0.003 C 
ATOM     31  C   UNL     1      36.429 -22.992 -15.944  0.00  0.00    -0.003 C 
ATOM     32  C   UNL     1      36.205 -25.538 -14.827  0.00  0.00    -0.000 C 
ATOM     33  C   UNL     1      37.433 -23.476 -15.104  0.00  0.00    -0.000 C 
ATOM     34  C   UNL     1      37.319 -24.749 -14.546  0.00  0.00    -0.000 C 
ENDBRANCH  22  29
BRANCH  22  36
ATOM     35  N   UNL     1      33.696 -24.873 -19.166  0.00  0.00    -0.195 NA
ATOM     36  C   UNL     1      33.931 -24.176 -18.268  0.00  0.00    +0.079 C 
ENDBRANCH  22  36
ENDBRANCH  21  22
ENDBRANCH  20  21
ENDBRANCH   1  20
TORSDOF 8
ENDMDL
MODEL 5
REMARK VINA RESULT:      -8.4      9.392     12.180
REMARK  Name = 9331
REMARK  8 active torsions:
REMARK  status: ('A' for Active; 'I' for Inactive)
REMARK    1  A    between atoms: N_1  and  C_20
REMARK    2  A    between atoms: C_2  and  N_8
REMARK    3  A    between atoms: C_2  and  C_17
REMARK    4  A    between atoms: C_20  and  C_21
REMARK    5  A    between atoms: C_21  and  C_22
REMARK    6  A    between atoms: C_22  and  C_23
REMARK    7  A    between atoms: C_22  and  C_29
REMARK    8  A    between atoms: C_22  and  C_36
REMARK                            x       y       z     vdW  Elec       q    Type
REMARK                         _______ _______ _______ _____ _____    ______ ____
ROOT
ATOM      1  N   UNL     1      33.653 -15.066 -21.286  0.00  0.00    +0.387 N 
ATOM      2  C   UNL     1      33.130 -12.973 -23.283  0.00  0.00    +0.024 C 
ATOM      3  C   UNL     1      32.056 -13.470 -22.307  0.00  0.00    -0.033 C 
ATOM      4  C   UNL     1      34.531 -13.249 -22.723  0.00  0.00    -0.033 C 
ATOM      5  C   UNL     1      32.310 -14.915 -21.861  0.00  0.00    -0.079 C 
ATOM      6  C   UNL     1      34.690 -14.703 -22.262  0.00  0.00    -0.079 C 
ATOM      7  H   UNL     1      33.729 -14.430 -20.493  0.00  0.00    -0.080 HD
ENDROOT
BRANCH   2   8
ATOM      8  N   UNL     1      32.963 -11.539 -23.517  0.00  0.00    +0.395 N 
ATOM      9  C   UNL     1      32.161 -10.932 -22.446  0.00  0.00    -0.077 C 
ATOM     10  C   UNL     1      34.272 -10.882 -23.639  0.00  0.00    -0.077 C 
ATOM     11  C   UNL     1      31.936  -9.441 -22.702  0.00  0.00    -0.023 C 
ATOM     12  C   UNL     1      34.115  -9.390 -23.934  0.00  0.00    -0.023 C 
ATOM     13  C   UNL     1      33.258  -8.702 -22.877  0.00  0.00    -0.004 C 
ATOM     14  H   UNL     1      32.462 -11.407 -24.397  0.00  0.00    -0.079 HD
ENDBRANCH   2   8
BRANCH   2  17
ATOM     15  O   UNL     1      32.292 -14.642 -24.788  0.00  0.00    -0.277 OA
ATOM     16  N   UNL     1      33.631 -12.979 -25.646  0.00  0.00    -0.330 N 
ATOM     17  C   UNL     1      32.960 -13.622 -24.634  0.00  0.00    +0.201 C 
ATOM     18  H   UNL     1      33.584 -13.326 -26.566  0.00  0.00    +0.145 HD
ATOM     19  H   UNL     1      34.160 -12.172 -25.451  0.00  0.00    +0.145 HD
ENDBRANCH   2  17
BRANCH   1  20
ATOM     20  C   UNL     1      33.854 -16.435 -20.811  0.00  0.00    -0.076 C 
BRANCH  20  21
ATOM     21  C   UNL     1      35.320 -16.855 -21.028  0.00  0.00    -0.000 C 
BRANCH  21  22
ATOM     22  C   UNL     1      35.522 -18.232 -21.764  0.00  0.00    +0.115 C 
BRANCH  22  23
ATOM     23  C   UNL     1      35.036 -18.213 -23.237  0.00  0.00    -0.006 C 
ATOM     24  C   UNL     1      34.632 -19.394 -23.790  0.00  0.00    -0.003 C 
ATOM     25  C   UNL     1      35.041 -17.016 -23.894  0.00  0.00    -0.003 C 
ATOM     26  C   UNL     1      34.194 -19.378 -25.114  0.00  0.00    -0.000 C 
ATOM     27  C   UNL     1      34.604 -16.999 -25.219  0.00  0.00    -0.000 C 
ATOM     28  C   UNL     1      34.180 -18.180 -25.828  0.00  0.00    -0.000 C 
ENDBRANCH  22  23
BRANCH  22  29
ATOM     29  C   UNL     1      34.748 -19.323 -20.983  0.00  0.00    -0.006 C 
ATOM     30  C   UNL     1      33.383 -19.249 -20.962  0.00  0.00    -0.003 C 
ATOM     31  C   UNL     1      35.474 -20.299 -20.358  0.00  0.00    -0.003 C 
ATOM     32  C   UNL     1      32.687 -20.232 -20.258  0.00  0.00    -0.000 C 
ATOM     33  C   UNL     1      34.778 -21.282 -19.654  0.00  0.00    -0.000 C 
ATOM     34  C   UNL     1      33.384 -21.247 -19.605  0.00  0.00    -0.000 C 
ENDBRANCH  22  29
BRANCH  22  36
ATOM     35  N   UNL     1      38.142 -18.664 -21.850  0.00  0.00    -0.195 NA
ATOM     36  C   UNL     1      36.998 -18.466 -21.811  0.00  0.00    +0.079 C 
ENDBRANCH  22  36
ENDBRANCH  21  22
ENDBRANCH  20  21
ENDBRANCH   1  20
TORSDOF 8
ENDMDL
MODEL 6
REMARK VINA RESULT:      -8.0      9.045     11.931
REMARK  Name = 9331
REMARK  8 active torsions:
REMARK  status: ('A' for Active; 'I' for Inactive)
REMARK    1  A    between atoms: N_1  and  C_20
REMARK    2  A    between atoms: C_2  and  N_8
REMARK    3  A    between atoms: C_2  and  C_17
REMARK    4  A    between atoms: C_20  and  C_21
REMARK    5  A    between atoms: C_21  and  C_22
REMARK    6  A    between atoms: C_22  and  C_23
REMARK    7  A    between atoms: C_22  and  C_29
REMARK    8  A    between atoms: C_22  and  C_36
REMARK                            x       y       z     vdW  Elec       q    Type
REMARK                         _______ _______ _______ _____ _____    ______ ____
ROOT
ATOM      1  N   UNL     1      33.923 -15.589 -21.607  0.00  0.00    +0.387 N 
ATOM      2  C   UNL     1      33.052 -12.982 -22.649  0.00  0.00    +0.024 C 
ATOM      3  C   UNL     1      34.399 -13.181 -21.941  0.00  0.00    -0.033 C 
ATOM      4  C   UNL     1      32.548 -14.312 -23.224  0.00  0.00    -0.033 C 
ATOM      5  C   UNL     1      34.360 -14.350 -20.950  0.00  0.00    -0.079 C 
ATOM      6  C   UNL     1      32.580 -15.437 -22.183  0.00  0.00    -0.079 C 
ATOM      7  H   UNL     1      34.572 -15.789 -22.367  0.00  0.00    -0.080 HD
ENDROOT
BRANCH   2   8
ATOM      8  N   UNL     1      33.195 -11.999 -23.723  0.00  0.00    +0.395 N 
ATOM      9  C   UNL     1      34.035 -10.876 -23.284  0.00  0.00    -0.077 C 
ATOM     10  C   UNL     1      33.744 -12.633 -24.930  0.00  0.00    -0.077 C 
ATOM     11  C   UNL     1      34.154  -9.816 -24.379  0.00  0.00    -0.023 C 
ATOM     12  C   UNL     1      33.853 -11.630 -26.079  0.00  0.00    -0.023 C 
ATOM     13  C   UNL     1      34.682 -10.415 -25.677  0.00  0.00    -0.004 C 
ATOM     14  H   UNL     1      32.273 -11.630 -23.953  0.00  0.00    -0.079 HD
ENDBRANCH   2   8
BRANCH   2  17
ATOM     15  O   UNL     1      32.170 -12.458 -20.481  0.00  0.00    -0.277 OA
ATOM     16  N   UNL     1      30.963 -11.811 -22.330  0.00  0.00    -0.330 N 
ATOM     17  C   UNL     1      32.037 -12.395 -21.701  0.00  0.00    +0.201 C 
ATOM     18  H   UNL     1      30.245 -11.400 -21.798  0.00  0.00    +0.145 HD
ATOM     19  H   UNL     1      30.912 -11.806 -23.313  0.00  0.00    +0.145 HD
ENDBRANCH   2  17
BRANCH   1  20
ATOM     20  C   UNL     1      33.950 -16.706 -20.661  0.00  0.00    -0.076 C 
BRANCH  20  21
ATOM     21  C   UNL     1      35.370 -17.294 -20.584  0.00  0.00    -0.000 C 
BRANCH  21  22
ATOM     22  C   UNL     1      35.606 -18.594 -21.442  0.00  0.00    +0.115 C 
BRANCH  22  23
ATOM     23  C   UNL     1      35.127 -18.450 -22.910  0.00  0.00    -0.006 C 
ATOM     24  C   UNL     1      34.568 -19.543 -23.508  0.00  0.00    -0.003 C 
ATOM     25  C   UNL     1      35.293 -17.239 -23.519  0.00  0.00    -0.003 C 
ATOM     26  C   UNL     1      34.137 -19.415 -24.828  0.00  0.00    -0.000 C 
ATOM     27  C   UNL     1      34.862 -17.110 -24.840  0.00  0.00    -0.000 C 
ATOM     28  C   UNL     1      34.284 -18.198 -25.494  0.00  0.00    -0.000 C 
ENDBRANCH  22  23
BRANCH  22  29
ATOM     29  C   UNL     1      34.851 -19.767 -20.769  0.00  0.00    -0.006 C 
ATOM     30  C   UNL     1      33.485 -19.734 -20.769  0.00  0.00    -0.003 C 
ATOM     31  C   UNL     1      35.594 -20.771 -20.212  0.00  0.00    -0.003 C 
ATOM     32  C   UNL     1      32.806 -20.791 -20.162  0.00  0.00    -0.000 C 
ATOM     33  C   UNL     1      34.916 -21.828 -19.606  0.00  0.00    -0.000 C 
ATOM     34  C   UNL     1      33.521 -21.837 -19.582  0.00  0.00    -0.000 C 
ENDBRANCH  22  29
BRANCH  22  36
ATOM     35  N   UNL     1      38.235 -18.958 -21.554  0.00  0.00    -0.195 NA
ATOM     36  C   UNL     1      37.087 -18.792 -21.499  0.00  0.00    +0.079 C 
ENDBRANCH  22  36
ENDBRANCH  21  22
ENDBRANCH  20  21
ENDBRANCH   1  20
TORSDOF 8
ENDMDL
MODEL 7
REMARK VINA RESULT:      -8.0      5.072      7.993
REMARK  Name = 9331
REMARK  8 active torsions:
REMARK  status: ('A' for Active; 'I' for Inactive)
REMARK    1  A    between atoms: N_1  and  C_20
REMARK    2  A    between atoms: C_2  and  N_8
REMARK    3  A    between atoms: C_2  and  C_17
REMARK    4  A    between atoms: C_20  and  C_21
REMARK    5  A    between atoms: C_21  and  C_22
REMARK    6  A    between atoms: C_22  and  C_23
REMARK    7  A    between atoms: C_22  and  C_29
REMARK    8  A    between atoms: C_22  and  C_36
REMARK                            x       y       z     vdW  Elec       q    Type
REMARK                         _______ _______ _______ _____ _____    ______ ____
ROOT
ATOM      1  N   UNL     1      35.343 -20.927 -20.234  0.00  0.00    +0.387 N 
ATOM      2  C   UNL     1      34.562 -18.508 -21.712  0.00  0.00    +0.024 C 
ATOM      3  C   UNL     1      36.002 -19.040 -21.699  0.00  0.00    -0.033 C 
ATOM      4  C   UNL     1      33.573 -19.636 -21.390  0.00  0.00    -0.033 C 
ATOM      5  C   UNL     1      36.308 -19.836 -20.425  0.00  0.00    -0.079 C 
ATOM      6  C   UNL     1      33.973 -20.408 -20.127  0.00  0.00    -0.079 C 
ATOM      7  H   UNL     1      35.387 -21.533 -21.053  0.00  0.00    -0.080 HD
ENDROOT
BRANCH   2   8
ATOM      8  N   UNL     1      34.255 -17.938 -23.024  0.00  0.00    +0.395 N 
ATOM      9  C   UNL     1      34.928 -16.643 -23.192  0.00  0.00    -0.077 C 
ATOM     10  C   UNL     1      34.630 -18.875 -24.092  0.00  0.00    -0.077 C 
ATOM     11  C   UNL     1      34.577 -16.010 -24.540  0.00  0.00    -0.023 C 
ATOM     12  C   UNL     1      34.269 -18.315 -25.469  0.00  0.00    -0.023 C 
ATOM     13  C   UNL     1      34.905 -16.948 -25.696  0.00  0.00    -0.004 C 
ATOM     14  H   UNL     1      33.249 -17.779 -23.083  0.00  0.00    -0.079 HD
ENDBRANCH   2   8
BRANCH   2  17
ATOM     15  O   UNL     1      35.367 -16.898 -20.127  0.00  0.00    -0.277 OA
ATOM     16  N   UNL     1      33.112 -16.940 -20.584  0.00  0.00    -0.330 N 
ATOM     17  C   UNL     1      34.408 -17.371 -20.735  0.00  0.00    +0.201 C 
ATOM     18  H   UNL     1      32.907 -16.201 -19.967  0.00  0.00    +0.145 HD
ATOM     19  H   UNL     1      32.388 -17.372 -21.093  0.00  0.00    +0.145 HD
ENDBRANCH   2  17
BRANCH   1  20
ATOM     20  C   UNL     1      35.687 -21.712 -19.048  0.00  0.00    -0.076 C 
BRANCH  20  21
ATOM     21  C   UNL     1      34.530 -21.663 -18.034  0.00  0.00    -0.000 C 
BRANCH  21  22
ATOM     22  C   UNL     1      34.198 -23.030 -17.327  0.00  0.00    +0.115 C 
BRANCH  22  23
ATOM     23  C   UNL     1      32.896 -22.981 -16.485  0.00  0.00    -0.006 C 
ATOM     24  C   UNL     1      31.710 -22.863 -17.152  0.00  0.00    -0.003 C 
ATOM     25  C   UNL     1      33.013 -23.059 -15.127  0.00  0.00    -0.003 C 
ATOM     26  C   UNL     1      30.539 -22.819 -16.395  0.00  0.00    -0.000 C 
ATOM     27  C   UNL     1      31.842 -23.015 -14.370  0.00  0.00    -0.000 C 
ATOM     28  C   UNL     1      30.605 -22.896 -15.004  0.00  0.00    -0.000 C 
ENDBRANCH  22  23
BRANCH  22  29
ATOM     29  C   UNL     1      35.387 -23.409 -16.411  0.00  0.00    -0.006 C 
ATOM     30  C   UNL     1      36.389 -22.492 -16.249  0.00  0.00    -0.003 C 
ATOM     31  C   UNL     1      35.369 -24.639 -15.814  0.00  0.00    -0.003 C 
ATOM     32  C   UNL     1      37.460 -22.834 -15.423  0.00  0.00    -0.000 C 
ATOM     33  C   UNL     1      36.441 -24.981 -14.988  0.00  0.00    -0.000 C 
ATOM     34  C   UNL     1      37.485 -24.078 -14.793  0.00  0.00    -0.000 C 
ENDBRANCH  22  29
BRANCH  22  36
ATOM     35  N   UNL     1      33.774 -24.776 -19.284  0.00  0.00    -0.195 NA
ATOM     36  C   UNL     1      33.953 -24.017 -18.424  0.00  0.00    +0.079 C 
ENDBRANCH  22  36
ENDBRANCH  21  22
ENDBRANCH  20  21
ENDBRANCH   1  20
TORSDOF 8
ENDMDL
MODEL 8
REMARK VINA RESULT:      -8.0      9.617     12.024
REMARK  Name = 9331
REMARK  8 active torsions:
REMARK  status: ('A' for Active; 'I' for Inactive)
REMARK    1  A    between atoms: N_1  and  C_20
REMARK    2  A    between atoms: C_2  and  N_8
REMARK    3  A    between atoms: C_2  and  C_17
REMARK    4  A    between atoms: C_20  and  C_21
REMARK    5  A    between atoms: C_21  and  C_22
REMARK    6  A    between atoms: C_22  and  C_23
REMARK    7  A    between atoms: C_22  and  C_29
REMARK    8  A    between atoms: C_22  and  C_36
REMARK                            x       y       z     vdW  Elec       q    Type
REMARK                         _______ _______ _______ _____ _____    ______ ____
ROOT
ATOM      1  N   UNL     1      33.968 -15.933 -24.033  0.00  0.00    +0.387 N 
ATOM      2  C   UNL     1      33.241 -13.102 -24.345  0.00  0.00    +0.024 C 
ATOM      3  C   UNL     1      32.284 -14.245 -24.706  0.00  0.00    -0.033 C 
ATOM      4  C   UNL     1      34.286 -13.580 -23.328  0.00  0.00    -0.033 C 
ATOM      5  C   UNL     1      33.036 -15.524 -25.092  0.00  0.00    -0.079 C 
ATOM      6  C   UNL     1      34.962 -14.884 -23.768  0.00  0.00    -0.079 C 
ATOM      7  H   UNL     1      33.430 -16.080 -23.179  0.00  0.00    -0.080 HD
ENDROOT
BRANCH   2   8
ATOM      8  N   UNL     1      32.487 -11.978 -23.790  0.00  0.00    +0.395 N 
ATOM      9  C   UNL     1      31.949 -12.323 -22.466  0.00  0.00    -0.077 C 
ATOM     10  C   UNL     1      33.329 -10.775 -23.726  0.00  0.00    -0.077 C 
ATOM     11  C   UNL     1      31.116 -11.175 -21.894  0.00  0.00    -0.023 C 
ATOM     12  C   UNL     1      32.540  -9.577 -23.195  0.00  0.00    -0.023 C 
ATOM     13  C   UNL     1      31.920  -9.881 -21.835  0.00  0.00    -0.004 C 
ATOM     14  H   UNL     1      31.698 -11.778 -24.406  0.00  0.00    -0.079 HD
ENDBRANCH   2   8
BRANCH   2  17
ATOM     15  O   UNL     1      34.851 -11.769 -25.522  0.00  0.00    -0.277 OA
ATOM     16  N   UNL     1      33.367 -13.023 -26.756  0.00  0.00    -0.330 N 
ATOM     17  C   UNL     1      33.913 -12.562 -25.582  0.00  0.00    +0.201 C 
ATOM     18  H   UNL     1      33.736 -12.728 -27.620  0.00  0.00    +0.145 HD
ATOM     19  H   UNL     1      32.607 -13.648 -26.733  0.00  0.00    +0.145 HD
ENDBRANCH   2  17
BRANCH   1  20
ATOM     20  C   UNL     1      34.632 -17.187 -24.392  0.00  0.00    -0.076 C 
BRANCH  20  21
ATOM     21  C   UNL     1      34.165 -18.315 -23.455  0.00  0.00    -0.000 C 
BRANCH  21  22
ATOM     22  C   UNL     1      34.722 -18.240 -21.984  0.00  0.00    +0.115 C 
BRANCH  22  23
ATOM     23  C   UNL     1      34.376 -19.492 -21.136  0.00  0.00    -0.006 C 
ATOM     24  C   UNL     1      35.410 -20.204 -20.601  0.00  0.00    -0.003 C 
ATOM     25  C   UNL     1      33.056 -19.807 -20.975  0.00  0.00    -0.003 C 
ATOM     26  C   UNL     1      35.099 -21.330 -19.838  0.00  0.00    -0.000 C 
ATOM     27  C   UNL     1      32.746 -20.933 -20.212  0.00  0.00    -0.000 C 
ATOM     28  C   UNL     1      33.767 -21.694 -19.644  0.00  0.00    -0.000 C 
ENDBRANCH  22  23
BRANCH  22  29
ATOM     29  C   UNL     1      34.133 -16.980 -21.302  0.00  0.00    -0.006 C 
ATOM     30  C   UNL     1      35.000 -16.117 -20.692  0.00  0.00    -0.003 C 
ATOM     31  C   UNL     1      32.778 -16.802 -21.347  0.00  0.00    -0.003 C 
ATOM     32  C   UNL     1      34.469 -14.983 -20.078  0.00  0.00    -0.000 C 
ATOM     33  C   UNL     1      32.247 -15.667 -20.733  0.00  0.00    -0.000 C 
ATOM     34  C   UNL     1      33.094 -14.758 -20.099  0.00  0.00    -0.000 C 
ENDBRANCH  22  29
BRANCH  22  36
ATOM     35  N   UNL     1      37.370 -18.204 -22.191  0.00  0.00    -0.195 NA
ATOM     36  C   UNL     1      36.212 -18.211 -22.104  0.00  0.00    +0.079 C 
ENDBRANCH  22  36
ENDBRANCH  21  22
ENDBRANCH  20  21
ENDBRANCH   1  20
TORSDOF 8
ENDMDL
MODEL 9
REMARK VINA RESULT:      -8.0      9.450     11.914
REMARK  Name = 9331
REMARK  8 active torsions:
REMARK  status: ('A' for Active; 'I' for Inactive)
REMARK    1  A    between atoms: N_1  and  C_20
REMARK    2  A    between atoms: C_2  and  N_8
REMARK    3  A    between atoms: C_2  and  C_17
REMARK    4  A    between atoms: C_20  and  C_21
REMARK    5  A    between atoms: C_21  and  C_22
REMARK    6  A    between atoms: C_22  and  C_23
REMARK    7  A    between atoms: C_22  and  C_29
REMARK    8  A    between atoms: C_22  and  C_36
REMARK                            x       y       z     vdW  Elec       q    Type
REMARK                         _______ _______ _______ _____ _____    ______ ____
ROOT
ATOM      1  N   UNL     1      33.702 -14.395 -20.936  0.00  0.00    +0.387 N 
ATOM      2  C   UNL     1      33.165 -12.644 -23.236  0.00  0.00    +0.024 C 
ATOM      3  C   UNL     1      32.165 -12.829 -22.087  0.00  0.00    -0.033 C 
ATOM      4  C   UNL     1      34.587 -12.980 -22.767  0.00  0.00    -0.033 C 
ATOM      5  C   UNL     1      32.323 -14.191 -21.401  0.00  0.00    -0.079 C 
ATOM      6  C   UNL     1      34.652 -14.337 -22.055  0.00  0.00    -0.079 C 
ATOM      7  H   UNL     1      33.931 -13.641 -20.289  0.00  0.00    -0.080 HD
ENDROOT
BRANCH   2   8
ATOM      8  N   UNL     1      33.116 -11.265 -23.721  0.00  0.00    +0.395 N 
ATOM      9  C   UNL     1      32.300 -10.434 -22.825  0.00  0.00    -0.077 C 
ATOM     10  C   UNL     1      34.474 -10.721 -23.862  0.00  0.00    -0.077 C 
ATOM     11  C   UNL     1      32.198  -8.999 -23.345  0.00  0.00    -0.023 C 
ATOM     12  C   UNL     1      34.442  -9.296 -24.416  0.00  0.00    -0.023 C 
ATOM     13  C   UNL     1      33.577  -8.384 -23.552  0.00  0.00    -0.004 C 
ATOM     14  H   UNL     1      32.677 -11.258 -24.642  0.00  0.00    -0.079 HD
ENDBRANCH   2   8
BRANCH   2  17
ATOM     15  O   UNL     1      31.957 -14.407 -24.324  0.00  0.00    -0.277 OA
ATOM     16  N   UNL     1      33.444 -13.174 -25.576  0.00  0.00    -0.330 N 
ATOM     17  C   UNL     1      32.780 -13.499 -24.417  0.00  0.00    +0.201 C 
ATOM     18  H   UNL     1      33.262 -13.675 -26.404  0.00  0.00    +0.145 HD
ATOM     19  H   UNL     1      34.101 -12.442 -25.578  0.00  0.00    +0.145 HD
ENDBRANCH   2  17
BRANCH   1  20
ATOM     20  C   UNL     1      33.819 -15.672 -20.232  0.00  0.00    -0.076 C 
BRANCH  20  21
ATOM     21  C   UNL     1      34.870 -16.559 -20.924  0.00  0.00    -0.000 C 
BRANCH  21  22
ATOM     22  C   UNL     1      34.342 -17.950 -21.438  0.00  0.00    +0.115 C 
BRANCH  22  23
ATOM     23  C   UNL     1      35.098 -19.155 -20.820  0.00  0.00    -0.006 C 
ATOM     24  C   UNL     1      34.357 -20.207 -20.362  0.00  0.00    -0.003 C 
ATOM     25  C   UNL     1      36.462 -19.094 -20.772  0.00  0.00    -0.003 C 
ATOM     26  C   UNL     1      35.037 -21.291 -19.807  0.00  0.00    -0.000 C 
ATOM     27  C   UNL     1      37.142 -20.178 -20.217  0.00  0.00    -0.000 C 
ATOM     28  C   UNL     1      36.430 -21.276 -19.735  0.00  0.00    -0.000 C 
ENDBRANCH  22  23
BRANCH  22  29
ATOM     29  C   UNL     1      34.486 -17.990 -22.979  0.00  0.00    -0.006 C 
ATOM     30  C   UNL     1      34.540 -19.213 -23.587  0.00  0.00    -0.003 C 
ATOM     31  C   UNL     1      34.551 -16.798 -23.647  0.00  0.00    -0.003 C 
ATOM     32  C   UNL     1      34.670 -19.248 -24.975  0.00  0.00    -0.000 C 
ATOM     33  C   UNL     1      34.681 -16.833 -25.036  0.00  0.00    -0.000 C 
ATOM     34  C   UNL     1      34.740 -18.058 -25.699  0.00  0.00    -0.000 C 
ENDBRANCH  22  29
BRANCH  22  36
ATOM     35  N   UNL     1      31.825 -18.154 -20.612  0.00  0.00    -0.195 NA
ATOM     36  C   UNL     1      32.926 -18.057 -20.969  0.00  0.00    +0.079 C 
ENDBRANCH  22  36
ENDBRANCH  21  22
ENDBRANCH  20  21
ENDBRANCH   1  20
TORSDOF 8
ENDMDL
