MODEL 1
REMARK VINA RESULT:      -6.4      0.000      0.000
REMARK  Name = 637566
REMARK  5 active torsions:
REMARK  status: ('A' for Active; 'I' for Inactive)
REMARK    1  A    between atoms: C_1  and  C_2
REMARK    2  A    between atoms: C_1  and  C_8
REMARK    3  A    between atoms: C_4  and  C_5
REMARK    4  A    between atoms: C_5  and  O_6
REMARK    5  A    between atoms: C_8  and  C_9
REMARK                            x       y       z     vdW  Elec       q    Type
REMARK                         _______ _______ _______ _____ _____    ______ ____
ROOT
ATOM      1  C   UNL     1      34.246 -19.360 -21.159  0.00  0.00    +0.026 C 
ENDROOT
BRANCH   1   2
ATOM      2  C   UNL     1      34.504 -20.544 -20.251  0.00  0.00    -0.045 C 
ATOM      3  C   UNL     1      35.958 -20.856 -20.003  0.00  0.00    +0.026 C 
ATOM      4  C   UNL     1      33.546 -21.281 -19.656  0.00  0.00    -0.003 C 
BRANCH   4   5
ATOM      5  C   UNL     1      33.721 -22.438 -18.726  0.00  0.00    +0.163 C 
BRANCH   5   6
ATOM      6  O   UNL     1      33.819 -23.628 -19.497  0.00  0.00    -0.377 OA
ATOM      7  H   UNL     1      34.137 -24.353 -18.935  0.00  0.00    +0.211 HD
ENDBRANCH   5   6
ENDBRANCH   4   5
ENDBRANCH   1   2
BRANCH   1   8
ATOM      8  C   UNL     1      35.514 -18.790 -21.808  0.00  0.00    +0.030 C 
BRANCH   8   9
ATOM      9  C   UNL     1      35.211 -17.784 -22.884  0.00  0.00    -0.034 C 
ATOM     10  C   UNL     1      34.818 -18.015 -24.150  0.00  0.00    -0.048 C 
ATOM     11  C   UNL     1      34.569 -16.867 -25.091  0.00  0.00    +0.026 C 
ATOM     12  C   UNL     1      34.574 -19.370 -24.751  0.00  0.00    +0.026 C 
ENDBRANCH   8   9
ENDBRANCH   1   8
TORSDOF 5
ENDMDL
MODEL 2
REMARK VINA RESULT:      -6.4      1.354      1.999
REMARK  Name = 637566
REMARK  5 active torsions:
REMARK  status: ('A' for Active; 'I' for Inactive)
REMARK    1  A    between atoms: C_1  and  C_2
REMARK    2  A    between atoms: C_1  and  C_8
REMARK    3  A    between atoms: C_4  and  C_5
REMARK    4  A    between atoms: C_5  and  O_6
REMARK    5  A    between atoms: C_8  and  C_9
REMARK                            x       y       z     vdW  Elec       q    Type
REMARK                         _______ _______ _______ _____ _____    ______ ____
ROOT
ATOM      1  C   UNL     1      34.252 -19.392 -21.093  0.00  0.00    +0.026 C 
ENDROOT
BRANCH   1   2
ATOM      2  C   UNL     1      34.504 -20.582 -20.192  0.00  0.00    -0.045 C 
ATOM      3  C   UNL     1      35.956 -20.887 -19.925  0.00  0.00    +0.026 C 
ATOM      4  C   UNL     1      33.542 -21.331 -19.619  0.00  0.00    -0.003 C 
BRANCH   4   5
ATOM      5  C   UNL     1      33.711 -22.497 -18.698  0.00  0.00    +0.163 C 
BRANCH   5   6
ATOM      6  O   UNL     1      33.918 -23.666 -19.479  0.00  0.00    -0.377 OA
ATOM      7  H   UNL     1      34.745 -23.579 -19.979  0.00  0.00    +0.211 HD
ENDBRANCH   5   6
ENDBRANCH   4   5
ENDBRANCH   1   2
BRANCH   1   8
ATOM      8  C   UNL     1      35.511 -18.570 -21.401  0.00  0.00    +0.030 C 
BRANCH   8   9
ATOM      9  C   UNL     1      35.250 -17.455 -22.375  0.00  0.00    -0.034 C 
ATOM     10  C   UNL     1      34.816 -16.208 -22.114  0.00  0.00    -0.048 C 
ATOM     11  C   UNL     1      34.605 -15.225 -23.235  0.00  0.00    +0.026 C 
ATOM     12  C   UNL     1      34.520 -15.659 -20.748  0.00  0.00    +0.026 C 
ENDBRANCH   8   9
ENDBRANCH   1   8
TORSDOF 5
ENDMDL
MODEL 3
REMARK VINA RESULT:      -6.3      1.838      2.577
REMARK  Name = 637566
REMARK  5 active torsions:
REMARK  status: ('A' for Active; 'I' for Inactive)
REMARK    1  A    between atoms: C_1  and  C_2
REMARK    2  A    between atoms: C_1  and  C_8
REMARK    3  A    between atoms: C_4  and  C_5
REMARK    4  A    between atoms: C_5  and  O_6
REMARK    5  A    between atoms: C_8  and  C_9
REMARK                            x       y       z     vdW  Elec       q    Type
REMARK                         _______ _______ _______ _____ _____    ______ ____
ROOT
ATOM      1  C   UNL     1      34.696 -19.282 -21.856  0.00  0.00    +0.026 C 
ENDROOT
BRANCH   1   2
ATOM      2  C   UNL     1      34.345 -20.191 -20.697  0.00  0.00    -0.045 C 
ATOM      3  C   UNL     1      32.889 -20.194 -20.304  0.00  0.00    +0.026 C 
ATOM      4  C   UNL     1      35.220 -20.982 -20.047  0.00  0.00    -0.003 C 
BRANCH   4   5
ATOM      5  C   UNL     1      34.945 -21.925 -18.920  0.00  0.00    +0.163 C 
BRANCH   5   6
ATOM      6  O   UNL     1      34.482 -23.155 -19.461  0.00  0.00    -0.377 OA
ATOM      7  H   UNL     1      33.899 -23.592 -18.820  0.00  0.00    +0.211 HD
ENDBRANCH   5   6
ENDBRANCH   4   5
ENDBRANCH   1   2
BRANCH   1   8
ATOM      8  C   UNL     1      35.677 -18.161 -21.489  0.00  0.00    +0.030 C 
BRANCH   8   9
ATOM      9  C   UNL     1      34.987 -16.950 -20.927  0.00  0.00    -0.034 C 
ATOM     10  C   UNL     1      34.577 -15.847 -21.582  0.00  0.00    -0.048 C 
ATOM     11  C   UNL     1      33.906 -14.724 -20.837  0.00  0.00    +0.026 C 
ATOM     12  C   UNL     1      34.714 -15.614 -23.060  0.00  0.00    +0.026 C 
ENDBRANCH   8   9
ENDBRANCH   1   8
TORSDOF 5
ENDMDL
MODEL 4
REMARK VINA RESULT:      -6.3      3.246      5.915
REMARK  Name = 637566
REMARK  5 active torsions:
REMARK  status: ('A' for Active; 'I' for Inactive)
REMARK    1  A    between atoms: C_1  and  C_2
REMARK    2  A    between atoms: C_1  and  C_8
REMARK    3  A    between atoms: C_4  and  C_5
REMARK    4  A    between atoms: C_5  and  O_6
REMARK    5  A    between atoms: C_8  and  C_9
REMARK                            x       y       z     vdW  Elec       q    Type
REMARK                         _______ _______ _______ _____ _____    ______ ____
ROOT
ATOM      1  C   UNL     1      35.342 -18.986 -22.906  0.00  0.00    +0.026 C 
ENDROOT
BRANCH   1   2
ATOM      2  C   UNL     1      34.886 -17.731 -23.619  0.00  0.00    -0.045 C 
ATOM      3  C   UNL     1      34.476 -17.923 -25.056  0.00  0.00    +0.026 C 
ATOM      4  C   UNL     1      34.802 -16.511 -23.052  0.00  0.00    -0.003 C 
BRANCH   4   5
ATOM      5  C   UNL     1      34.332 -15.237 -23.677  0.00  0.00    +0.163 C 
BRANCH   5   6
ATOM      6  O   UNL     1      34.758 -14.150 -22.865  0.00  0.00    -0.377 OA
ATOM      7  H   UNL     1      35.692 -14.268 -22.631  0.00  0.00    +0.211 HD
ENDBRANCH   5   6
ENDBRANCH   4   5
ENDBRANCH   1   2
BRANCH   1   8
ATOM      8  C   UNL     1      35.534 -18.805 -21.394  0.00  0.00    +0.030 C 
BRANCH   8   9
ATOM      9  C   UNL     1      35.199 -20.048 -20.616  0.00  0.00    -0.034 C 
ATOM     10  C   UNL     1      33.984 -20.498 -20.251  0.00  0.00    -0.048 C 
ATOM     11  C   UNL     1      33.851 -21.771 -19.459  0.00  0.00    +0.026 C 
ATOM     12  C   UNL     1      32.677 -19.835 -20.580  0.00  0.00    +0.026 C 
ENDBRANCH   8   9
ENDBRANCH   1   8
TORSDOF 5
ENDMDL
MODEL 5
REMARK VINA RESULT:      -6.2      3.131      5.902
REMARK  Name = 637566
REMARK  5 active torsions:
REMARK  status: ('A' for Active; 'I' for Inactive)
REMARK    1  A    between atoms: C_1  and  C_2
REMARK    2  A    between atoms: C_1  and  C_8
REMARK    3  A    between atoms: C_4  and  C_5
REMARK    4  A    between atoms: C_5  and  O_6
REMARK    5  A    between atoms: C_8  and  C_9
REMARK                            x       y       z     vdW  Elec       q    Type
REMARK                         _______ _______ _______ _____ _____    ______ ____
ROOT
ATOM      1  C   UNL     1      35.263 -19.040 -22.775  0.00  0.00    +0.026 C 
ENDROOT
BRANCH   1   2
ATOM      2  C   UNL     1      34.836 -17.712 -23.363  0.00  0.00    -0.045 C 
ATOM      3  C   UNL     1      34.645 -16.601 -22.362  0.00  0.00    +0.026 C 
ATOM      4  C   UNL     1      34.655 -17.475 -24.676  0.00  0.00    -0.003 C 
BRANCH   4   5
ATOM      5  C   UNL     1      34.267 -16.189 -25.333  0.00  0.00    +0.163 C 
BRANCH   5   6
ATOM      6  O   UNL     1      33.212 -16.449 -26.250  0.00  0.00    -0.377 OA
ATOM      7  H   UNL     1      32.686 -15.643 -26.376  0.00  0.00    +0.211 HD
ENDBRANCH   5   6
ENDBRANCH   4   5
ENDBRANCH   1   2
BRANCH   1   8
ATOM      8  C   UNL     1      35.604 -18.975 -21.280  0.00  0.00    +0.030 C 
BRANCH   8   9
ATOM      9  C   UNL     1      35.195 -20.217 -20.538  0.00  0.00    -0.034 C 
ATOM     10  C   UNL     1      33.955 -20.605 -20.187  0.00  0.00    -0.048 C 
ATOM     11  C   UNL     1      33.744 -21.890 -19.432  0.00  0.00    +0.026 C 
ATOM     12  C   UNL     1      32.689 -19.857 -20.499  0.00  0.00    +0.026 C 
ENDBRANCH   8   9
ENDBRANCH   1   8
TORSDOF 5
ENDMDL
MODEL 6
REMARK VINA RESULT:      -6.2      3.963      6.241
REMARK  Name = 637566
REMARK  5 active torsions:
REMARK  status: ('A' for Active; 'I' for Inactive)
REMARK    1  A    between atoms: C_1  and  C_2
REMARK    2  A    between atoms: C_1  and  C_8
REMARK    3  A    between atoms: C_4  and  C_5
REMARK    4  A    between atoms: C_5  and  O_6
REMARK    5  A    between atoms: C_8  and  C_9
REMARK                            x       y       z     vdW  Elec       q    Type
REMARK                         _______ _______ _______ _____ _____    ______ ____
ROOT
ATOM      1  C   UNL     1      34.933 -16.958 -20.982  0.00  0.00    +0.026 C 
ENDROOT
BRANCH   1   2
ATOM      2  C   UNL     1      34.117 -15.888 -21.676  0.00  0.00    -0.045 C 
ATOM      3  C   UNL     1      33.015 -15.283 -20.844  0.00  0.00    +0.026 C 
ATOM      4  C   UNL     1      34.333 -15.448 -22.930  0.00  0.00    -0.003 C 
BRANCH   4   5
ATOM      5  C   UNL     1      33.595 -14.378 -23.669  0.00  0.00    +0.163 C 
BRANCH   5   6
ATOM      6  O   UNL     1      34.246 -13.136 -23.439  0.00  0.00    -0.377 OA
ATOM      7  H   UNL     1      35.064 -13.287 -22.941  0.00  0.00    +0.211 HD
ENDBRANCH   5   6
ENDBRANCH   4   5
ENDBRANCH   1   2
BRANCH   1   8
ATOM      8  C   UNL     1      35.115 -18.235 -21.813  0.00  0.00    +0.030 C 
BRANCH   8   9
ATOM      9  C   UNL     1      35.253 -19.466 -20.960  0.00  0.00    -0.034 C 
ATOM     10  C   UNL     1      34.276 -20.236 -20.447  0.00  0.00    -0.048 C 
ATOM     11  C   UNL     1      34.615 -21.434 -19.602  0.00  0.00    +0.026 C 
ATOM     12  C   UNL     1      32.803 -20.022 -20.653  0.00  0.00    +0.026 C 
ENDBRANCH   8   9
ENDBRANCH   1   8
TORSDOF 5
ENDMDL
MODEL 7
REMARK VINA RESULT:      -6.1      1.760      2.375
REMARK  Name = 637566
REMARK  5 active torsions:
REMARK  status: ('A' for Active; 'I' for Inactive)
REMARK    1  A    between atoms: C_1  and  C_2
REMARK    2  A    between atoms: C_1  and  C_8
REMARK    3  A    between atoms: C_4  and  C_5
REMARK    4  A    between atoms: C_5  and  O_6
REMARK    5  A    between atoms: C_8  and  C_9
REMARK                            x       y       z     vdW  Elec       q    Type
REMARK                         _______ _______ _______ _____ _____    ______ ____
ROOT
ATOM      1  C   UNL     1      33.991 -20.283 -20.923  0.00  0.00    +0.026 C 
ENDROOT
BRANCH   1   2
ATOM      2  C   UNL     1      34.611 -21.063 -19.783  0.00  0.00    -0.045 C 
ATOM      3  C   UNL     1      33.680 -22.013 -19.075  0.00  0.00    +0.026 C 
ATOM      4  C   UNL     1      35.902 -20.977 -19.405  0.00  0.00    -0.003 C 
BRANCH   4   5
ATOM      5  C   UNL     1      36.593 -21.734 -18.316  0.00  0.00    +0.163 C 
BRANCH   5   6
ATOM      6  O   UNL     1      37.059 -20.806 -17.345  0.00  0.00    -0.377 OA
ATOM      7  H   UNL     1      36.302 -20.354 -16.940  0.00  0.00    +0.211 HD
ENDBRANCH   5   6
ENDBRANCH   4   5
ENDBRANCH   1   2
BRANCH   1   8
ATOM      8  C   UNL     1      34.873 -19.142 -21.445  0.00  0.00    +0.030 C 
BRANCH   8   9
ATOM      9  C   UNL     1      34.696 -18.901 -22.919  0.00  0.00    -0.034 C 
ATOM     10  C   UNL     1      34.810 -17.741 -23.592  0.00  0.00    -0.048 C 
ATOM     11  C   UNL     1      34.585 -17.698 -25.079  0.00  0.00    +0.026 C 
ATOM     12  C   UNL     1      35.172 -16.416 -22.983  0.00  0.00    +0.026 C 
ENDBRANCH   8   9
ENDBRANCH   1   8
TORSDOF 5
ENDMDL
MODEL 8
REMARK VINA RESULT:      -6.0      2.763      6.838
REMARK  Name = 637566
REMARK  5 active torsions:
REMARK  status: ('A' for Active; 'I' for Inactive)
REMARK    1  A    between atoms: C_1  and  C_2
REMARK    2  A    between atoms: C_1  and  C_8
REMARK    3  A    between atoms: C_4  and  C_5
REMARK    4  A    between atoms: C_5  and  O_6
REMARK    5  A    between atoms: C_8  and  C_9
REMARK                            x       y       z     vdW  Elec       q    Type
REMARK                         _______ _______ _______ _____ _____    ______ ____
ROOT
ATOM      1  C   UNL     1      34.781 -21.892 -19.355  0.00  0.00    +0.026 C 
ENDROOT
BRANCH   1   2
ATOM      2  C   UNL     1      34.484 -20.653 -20.172  0.00  0.00    -0.045 C 
ATOM      3  C   UNL     1      33.023 -20.305 -20.301  0.00  0.00    +0.026 C 
ATOM      4  C   UNL     1      35.416 -19.863 -20.739  0.00  0.00    -0.003 C 
BRANCH   4   5
ATOM      5  C   UNL     1      35.205 -18.612 -21.530  0.00  0.00    +0.163 C 
BRANCH   5   6
ATOM      6  O   UNL     1      35.372 -17.496 -20.665  0.00  0.00    -0.377 OA
ATOM      7  H   UNL     1      36.251 -17.532 -20.257  0.00  0.00    +0.211 HD
ENDBRANCH   5   6
ENDBRANCH   4   5
ENDBRANCH   1   2
BRANCH   1   8
ATOM      8  C   UNL     1      33.535 -22.537 -18.734  0.00  0.00    +0.030 C 
BRANCH   8   9
ATOM      9  C   UNL     1      33.786 -23.064 -17.348  0.00  0.00    -0.034 C 
ATOM     10  C   UNL     1      32.894 -23.260 -16.359  0.00  0.00    -0.048 C 
ATOM     11  C   UNL     1      33.342 -23.793 -15.025  0.00  0.00    +0.026 C 
ATOM     12  C   UNL     1      31.417 -23.004 -16.458  0.00  0.00    +0.026 C 
ENDBRANCH   8   9
ENDBRANCH   1   8
TORSDOF 5
ENDMDL
MODEL 9
REMARK VINA RESULT:      -5.9      3.973      6.413
REMARK  Name = 637566
REMARK  5 active torsions:
REMARK  status: ('A' for Active; 'I' for Inactive)
REMARK    1  A    between atoms: C_1  and  C_2
REMARK    2  A    between atoms: C_1  and  C_8
REMARK    3  A    between atoms: C_4  and  C_5
REMARK    4  A    between atoms: C_5  and  O_6
REMARK    5  A    between atoms: C_8  and  C_9
REMARK                            x       y       z     vdW  Elec       q    Type
REMARK                         _______ _______ _______ _____ _____    ______ ____
ROOT
ATOM      1  C   UNL     1      33.961 -15.173 -21.519  0.00  0.00    +0.026 C 
ENDROOT
BRANCH   1   2
ATOM      2  C   UNL     1      33.384 -14.711 -22.840  0.00  0.00    -0.045 C 
ATOM      3  C   UNL     1      32.410 -13.564 -22.748  0.00  0.00    +0.026 C 
ATOM      4  C   UNL     1      33.704 -15.228 -24.042  0.00  0.00    -0.003 C 
BRANCH   4   5
ATOM      5  C   UNL     1      33.203 -14.806 -25.387  0.00  0.00    +0.163 C 
BRANCH   5   6
ATOM      6  O   UNL     1      33.747 -15.681 -26.367  0.00  0.00    -0.377 OA
ATOM      7  H   UNL     1      33.639 -15.288 -27.247  0.00  0.00    +0.211 HD
ENDBRANCH   5   6
ENDBRANCH   4   5
ENDBRANCH   1   2
BRANCH   1   8
ATOM      8  C   UNL     1      34.900 -16.380 -21.642  0.00  0.00    +0.030 C 
BRANCH   8   9
ATOM      9  C   UNL     1      34.320 -17.628 -21.037  0.00  0.00    -0.034 C 
ATOM     10  C   UNL     1      34.224 -18.852 -21.588  0.00  0.00    -0.048 C 
ATOM     11  C   UNL     1      33.597 -19.986 -20.822  0.00  0.00    +0.026 C 
ATOM     12  C   UNL     1      34.718 -19.230 -22.956  0.00  0.00    +0.026 C 
ENDBRANCH   8   9
ENDBRANCH   1   8
TORSDOF 5
ENDMDL
