MODEL 1
REMARK VINA RESULT:      -7.7      0.000      0.000
REMARK  Name = 3019
REMARK  0 active torsions:
REMARK  status: ('A' for Active; 'I' for Inactive)
REMARK                            x       y       z     vdW  Elec       q    Type
REMARK                         _______ _______ _______ _____ _____    ______ ____
ROOT
ATOM      1 CL   UNL     1      35.405 -19.641 -21.064  0.00  0.00    -0.082 Cl
ATOM      2  S   UNL     1      33.603 -14.835 -22.784  0.00  0.00    +0.103 S 
ATOM      3  O   UNL     1      32.374 -14.996 -22.027  0.00  0.00    -0.146 OA
ATOM      4  O   UNL     1      34.748 -14.165 -22.196  0.00  0.00    -0.146 OA
ATOM      5  N   UNL     1      33.840 -16.054 -25.523  0.00  0.00    -0.299 N 
ATOM      6  N   UNL     1      33.254 -14.129 -24.209  0.00  0.00    -0.117 NA
ATOM      7  C   UNL     1      34.151 -16.473 -23.145  0.00  0.00    +0.143 C 
ATOM      8  C   UNL     1      34.209 -16.897 -24.471  0.00  0.00    +0.069 C 
ATOM      9  C   UNL     1      33.399 -14.765 -25.331  0.00  0.00    +0.131 C 
ATOM     10  C   UNL     1      34.515 -17.302 -22.082  0.00  0.00    +0.033 C 
ATOM     11  C   UNL     1      34.648 -18.203 -24.724  0.00  0.00    +0.017 C 
ATOM     12  C   UNL     1      34.950 -18.596 -22.354  0.00  0.00    +0.059 C 
ATOM     13  C   UNL     1      35.016 -19.046 -23.672  0.00  0.00    +0.013 C 
ATOM     14  C   UNL     1      33.045 -14.002 -26.589  0.00  0.00    +0.071 C 
ATOM     15  H   UNL     1      33.899 -16.398 -26.444  0.00  0.00    +0.153 HD
ENDROOT
TORSDOF 0
ENDMDL
MODEL 2
REMARK VINA RESULT:      -7.7      3.021      4.431
REMARK  Name = 3019
REMARK  0 active torsions:
REMARK  status: ('A' for Active; 'I' for Inactive)
REMARK                            x       y       z     vdW  Elec       q    Type
REMARK                         _______ _______ _______ _____ _____    ______ ____
ROOT
ATOM      1 CL   UNL     1      32.690 -14.088 -25.913  0.00  0.00    -0.082 Cl
ATOM      2  S   UNL     1      34.308 -16.042 -21.132  0.00  0.00    +0.103 S 
ATOM      3  O   UNL     1      35.039 -14.819 -20.850  0.00  0.00    -0.146 OA
ATOM      4  O   UNL     1      32.932 -16.195 -20.698  0.00  0.00    -0.146 OA
ATOM      5  N   UNL     1      35.595 -18.204 -22.781  0.00  0.00    -0.299 N 
ATOM      6  N   UNL     1      35.176 -17.309 -20.590  0.00  0.00    -0.117 NA
ATOM      7  C   UNL     1      34.263 -16.169 -22.891  0.00  0.00    +0.143 C 
ATOM      8  C   UNL     1      34.910 -17.234 -23.517  0.00  0.00    +0.069 C 
ATOM      9  C   UNL     1      35.682 -18.180 -21.407  0.00  0.00    +0.131 C 
ATOM     10  C   UNL     1      33.574 -15.191 -23.611  0.00  0.00    +0.033 C 
ATOM     11  C   UNL     1      34.854 -17.305 -24.914  0.00  0.00    +0.017 C 
ATOM     12  C   UNL     1      33.531 -15.280 -25.000  0.00  0.00    +0.059 C 
ATOM     13  C   UNL     1      34.170 -16.335 -25.651  0.00  0.00    +0.013 C 
ATOM     14  C   UNL     1      36.466 -19.315 -20.784  0.00  0.00    +0.071 C 
ATOM     15  H   UNL     1      36.035 -18.939 -23.267  0.00  0.00    +0.153 HD
ENDROOT
TORSDOF 0
ENDMDL
MODEL 3
REMARK VINA RESULT:      -7.4      2.929      3.835
REMARK  Name = 3019
REMARK  0 active torsions:
REMARK  status: ('A' for Active; 'I' for Inactive)
REMARK                            x       y       z     vdW  Elec       q    Type
REMARK                         _______ _______ _______ _____ _____    ______ ____
ROOT
ATOM      1 CL   UNL     1      34.865 -17.385 -25.455  0.00  0.00    -0.082 Cl
ATOM      2  S   UNL     1      33.309 -14.866 -20.924  0.00  0.00    +0.103 S 
ATOM      3  O   UNL     1      32.540 -16.027 -20.512  0.00  0.00    -0.146 OA
ATOM      4  O   UNL     1      34.689 -14.709 -20.505  0.00  0.00    -0.146 OA
ATOM      5  N   UNL     1      32.091 -12.859 -22.805  0.00  0.00    -0.299 N 
ATOM      6  N   UNL     1      32.481 -13.521 -20.528  0.00  0.00    -0.117 NA
ATOM      7  C   UNL     1      33.358 -14.935 -22.687  0.00  0.00    +0.143 C 
ATOM      8  C   UNL     1      32.745 -13.926 -23.428  0.00  0.00    +0.069 C 
ATOM      9  C   UNL     1      32.003 -12.729 -21.438  0.00  0.00    +0.131 C 
ATOM     10  C   UNL     1      34.015 -16.008 -23.292  0.00  0.00    +0.033 C 
ATOM     11  C   UNL     1      32.803 -14.011 -24.824  0.00  0.00    +0.017 C 
ATOM     12  C   UNL     1      34.062 -16.074 -24.681  0.00  0.00    +0.059 C 
ATOM     13  C   UNL     1      33.457 -15.078 -25.447  0.00  0.00    +0.013 C 
ATOM     14  C   UNL     1      31.255 -11.509 -20.946  0.00  0.00    +0.071 C 
ATOM     15  H   UNL     1      31.674 -12.169 -23.371  0.00  0.00    +0.153 HD
ENDROOT
TORSDOF 0
ENDMDL
MODEL 4
REMARK VINA RESULT:      -7.3      6.311      7.964
REMARK  Name = 3019
REMARK  0 active torsions:
REMARK  status: ('A' for Active; 'I' for Inactive)
REMARK                            x       y       z     vdW  Elec       q    Type
REMARK                         _______ _______ _______ _____ _____    ______ ____
ROOT
ATOM      1 CL   UNL     1      34.414 -18.973 -23.163  0.00  0.00    -0.082 Cl
ATOM      2  S   UNL     1      34.069 -22.382 -18.972  0.00  0.00    +0.103 S 
ATOM      3  O   UNL     1      32.847 -21.741 -18.519  0.00  0.00    -0.146 OA
ATOM      4  O   UNL     1      34.014 -23.522 -19.869  0.00  0.00    -0.146 OA
ATOM      5  N   UNL     1      36.737 -21.232 -18.193  0.00  0.00    -0.299 N 
ATOM      6  N   UNL     1      34.969 -22.775 -17.674  0.00  0.00    -0.117 NA
ATOM      7  C   UNL     1      34.956 -21.135 -19.851  0.00  0.00    +0.143 C 
ATOM      8  C   UNL     1      36.188 -20.702 -19.364  0.00  0.00    +0.069 C 
ATOM      9  C   UNL     1      36.112 -22.204 -17.446  0.00  0.00    +0.131 C 
ATOM     10  C   UNL     1      34.394 -20.616 -21.018  0.00  0.00    +0.033 C 
ATOM     11  C   UNL     1      36.867 -19.711 -20.085  0.00  0.00    +0.017 C 
ATOM     12  C   UNL     1      35.084 -19.632 -21.721  0.00  0.00    +0.059 C 
ATOM     13  C   UNL     1      36.318 -19.180 -21.255  0.00  0.00    +0.013 C 
ATOM     14  C   UNL     1      36.857 -22.656 -16.210  0.00  0.00    +0.071 C 
ATOM     15  H   UNL     1      37.611 -20.895 -17.889  0.00  0.00    +0.153 HD
ENDROOT
TORSDOF 0
ENDMDL
MODEL 5
REMARK VINA RESULT:      -7.2      9.354     10.421
REMARK  Name = 3019
REMARK  0 active torsions:
REMARK  status: ('A' for Active; 'I' for Inactive)
REMARK                            x       y       z     vdW  Elec       q    Type
REMARK                         _______ _______ _______ _____ _____    ______ ____
ROOT
ATOM      1 CL   UNL     1      29.362 -24.362 -15.709  0.00  0.00    -0.082 Cl
ATOM      2  S   UNL     1      33.783 -22.789 -18.406  0.00  0.00    +0.103 S 
ATOM      3  O   UNL     1      33.765 -24.006 -19.197  0.00  0.00    -0.146 OA
ATOM      4  O   UNL     1      33.105 -21.595 -18.875  0.00  0.00    -0.146 OA
ATOM      5  N   UNL     1      35.082 -22.790 -15.693  0.00  0.00    -0.299 N 
ATOM      6  N   UNL     1      35.328 -22.414 -18.054  0.00  0.00    -0.117 NA
ATOM      7  C   UNL     1      32.998 -23.207 -16.882  0.00  0.00    +0.143 C 
ATOM      8  C   UNL     1      33.734 -23.160 -15.699  0.00  0.00    +0.069 C 
ATOM      9  C   UNL     1      35.771 -22.452 -16.835  0.00  0.00    +0.131 C 
ATOM     10  C   UNL     1      31.652 -23.574 -16.905  0.00  0.00    +0.033 C 
ATOM     11  C   UNL     1      33.082 -23.497 -14.506  0.00  0.00    +0.017 C 
ATOM     12  C   UNL     1      31.021 -23.905 -15.710  0.00  0.00    +0.059 C 
ATOM     13  C   UNL     1      31.734 -23.868 -14.512  0.00  0.00    +0.013 C 
ATOM     14  C   UNL     1      37.224 -22.079 -16.634  0.00  0.00    +0.071 C 
ATOM     15  H   UNL     1      35.561 -22.771 -14.832  0.00  0.00    +0.153 HD
ENDROOT
TORSDOF 0
ENDMDL
MODEL 6
REMARK VINA RESULT:      -7.2     10.225     11.281
REMARK  Name = 3019
REMARK  0 active torsions:
REMARK  status: ('A' for Active; 'I' for Inactive)
REMARK                            x       y       z     vdW  Elec       q    Type
REMARK                         _______ _______ _______ _____ _____    ______ ____
ROOT
ATOM      1 CL   UNL     1      36.504 -23.239 -15.903  0.00  0.00    -0.082 Cl
ATOM      2  S   UNL     1      31.475 -24.053 -14.073  0.00  0.00    +0.103 S 
ATOM      3  O   UNL     1      31.755 -25.462 -13.856  0.00  0.00    -0.146 OA
ATOM      4  O   UNL     1      31.678 -23.088 -13.008  0.00  0.00    -0.146 OA
ATOM      5  N   UNL     1      30.641 -23.100 -16.802  0.00  0.00    -0.299 N 
ATOM      6  N   UNL     1      29.957 -23.901 -14.641  0.00  0.00    -0.117 NA
ATOM      7  C   UNL     1      32.560 -23.554 -15.373  0.00  0.00    +0.143 C 
ATOM      8  C   UNL     1      32.022 -23.134 -16.588  0.00  0.00    +0.069 C 
ATOM      9  C   UNL     1      29.726 -23.475 -15.845  0.00  0.00    +0.131 C 
ATOM     10  C   UNL     1      33.936 -23.593 -15.142  0.00  0.00    +0.033 C 
ATOM     11  C   UNL     1      32.910 -22.743 -17.598  0.00  0.00    +0.017 C 
ATOM     12  C   UNL     1      34.802 -23.200 -16.159  0.00  0.00    +0.059 C 
ATOM     13  C   UNL     1      34.291 -22.777 -17.385  0.00  0.00    +0.013 C 
ATOM     14  C   UNL     1      28.274 -23.373 -16.257  0.00  0.00    +0.071 C 
ATOM     15  H   UNL     1      30.308 -22.795 -17.677  0.00  0.00    +0.153 HD
ENDROOT
TORSDOF 0
ENDMDL
MODEL 7
REMARK VINA RESULT:      -7.2      7.631      9.010
REMARK  Name = 3019
REMARK  0 active torsions:
REMARK  status: ('A' for Active; 'I' for Inactive)
REMARK                            x       y       z     vdW  Elec       q    Type
REMARK                         _______ _______ _______ _____ _____    ______ ____
ROOT
ATOM      1 CL   UNL     1      33.714 -24.520 -14.061  0.00  0.00    -0.082 Cl
ATOM      2  S   UNL     1      33.965 -22.458 -19.059  0.00  0.00    +0.103 S 
ATOM      3  O   UNL     1      33.915 -23.789 -19.638  0.00  0.00    -0.146 OA
ATOM      4  O   UNL     1      32.744 -21.704 -18.838  0.00  0.00    -0.146 OA
ATOM      5  N   UNL     1      36.596 -21.324 -18.144  0.00  0.00    -0.299 N 
ATOM      6  N   UNL     1      34.998 -21.546 -19.926  0.00  0.00    -0.117 NA
ATOM      7  C   UNL     1      34.684 -22.667 -17.461  0.00  0.00    +0.143 C 
ATOM      8  C   UNL     1      35.915 -22.077 -17.184  0.00  0.00    +0.069 C 
ATOM      9  C   UNL     1      36.110 -21.114 -19.414  0.00  0.00    +0.131 C 
ATOM     10  C   UNL     1      33.990 -23.422 -16.513  0.00  0.00    +0.033 C 
ATOM     11  C   UNL     1      36.458 -22.261 -15.906  0.00  0.00    +0.017 C 
ATOM     12  C   UNL     1      34.546 -23.593 -15.249  0.00  0.00    +0.059 C 
ATOM     13  C   UNL     1      35.778 -23.015 -14.945  0.00  0.00    +0.013 C 
ATOM     14  C   UNL     1      36.986 -20.273 -20.317  0.00  0.00    +0.071 C 
ATOM     15  H   UNL     1      37.464 -20.925 -17.901  0.00  0.00    +0.153 HD
ENDROOT
TORSDOF 0
ENDMDL
MODEL 8
REMARK VINA RESULT:      -7.2     13.224     13.761
REMARK  Name = 3019
REMARK  0 active torsions:
REMARK  status: ('A' for Active; 'I' for Inactive)
REMARK                            x       y       z     vdW  Elec       q    Type
REMARK                         _______ _______ _______ _____ _____    ______ ____
ROOT
ATOM      1 CL   UNL     1      40.465 -26.108 -13.822  0.00  0.00    -0.082 Cl
ATOM      2  S   UNL     1      35.883 -24.077 -11.778  0.00  0.00    +0.103 S 
ATOM      3  O   UNL     1      35.958 -24.982 -10.645  0.00  0.00    -0.146 OA
ATOM      4  O   UNL     1      36.472 -22.752 -11.704  0.00  0.00    -0.146 OA
ATOM      5  N   UNL     1      34.659 -25.016 -14.360  0.00  0.00    -0.299 N 
ATOM      6  N   UNL     1      34.327 -23.938 -12.238  0.00  0.00    -0.117 NA
ATOM      7  C   UNL     1      36.733 -24.896 -13.090  0.00  0.00    +0.143 C 
ATOM      8  C   UNL     1      36.027 -25.272 -14.232  0.00  0.00    +0.069 C 
ATOM      9  C   UNL     1      33.920 -24.386 -13.386  0.00  0.00    +0.131 C 
ATOM     10  C   UNL     1      38.099 -25.144 -12.945  0.00  0.00    +0.033 C 
ATOM     11  C   UNL     1      36.731 -25.919 -15.255  0.00  0.00    +0.017 C 
ATOM     12  C   UNL     1      38.781 -25.788 -13.973  0.00  0.00    +0.059 C 
ATOM     13  C   UNL     1      38.098 -26.176 -15.126  0.00  0.00    +0.013 C 
ATOM     14  C   UNL     1      32.452 -24.195 -13.701  0.00  0.00    +0.071 C 
ATOM     15  H   UNL     1      34.203 -25.300 -15.186  0.00  0.00    +0.153 HD
ENDROOT
TORSDOF 0
ENDMDL
MODEL 9
REMARK VINA RESULT:      -7.1      5.871      7.356
REMARK  Name = 3019
REMARK  0 active torsions:
REMARK  status: ('A' for Active; 'I' for Inactive)
REMARK                            x       y       z     vdW  Elec       q    Type
REMARK                         _______ _______ _______ _____ _____    ______ ____
ROOT
ATOM      1 CL   UNL     1      35.329 -17.417 -22.796  0.00  0.00    -0.082 Cl
ATOM      2  S   UNL     1      36.233 -21.393 -19.237  0.00  0.00    +0.103 S 
ATOM      3  O   UNL     1      36.996 -22.138 -20.223  0.00  0.00    -0.146 OA
ATOM      4  O   UNL     1      36.897 -20.471 -18.334  0.00  0.00    -0.146 OA
ATOM      5  N   UNL     1      33.235 -21.628 -19.180  0.00  0.00    -0.299 N 
ATOM      6  N   UNL     1      35.344 -22.439 -18.362  0.00  0.00    -0.117 NA
ATOM      7  C   UNL     1      35.099 -20.409 -20.164  0.00  0.00    +0.143 C 
ATOM      8  C   UNL     1      33.730 -20.636 -20.031  0.00  0.00    +0.069 C 
ATOM      9  C   UNL     1      34.048 -22.441 -18.424  0.00  0.00    +0.131 C 
ATOM     10  C   UNL     1      35.611 -19.423 -21.009  0.00  0.00    +0.033 C 
ATOM     11  C   UNL     1      32.857 -19.837 -20.780  0.00  0.00    +0.017 C 
ATOM     12  C   UNL     1      34.727 -18.639 -21.746  0.00  0.00    +0.059 C 
ATOM     13  C   UNL     1      33.352 -18.846 -21.632  0.00  0.00    +0.013 C 
ATOM     14  C   UNL     1      33.332 -23.458 -17.562  0.00  0.00    +0.071 C 
ATOM     15  H   UNL     1      32.259 -21.750 -19.119  0.00  0.00    +0.153 HD
ENDROOT
TORSDOF 0
ENDMDL
