MODEL 1
REMARK VINA RESULT:     -10.4      0.000      0.000
REMARK  Name = 4369451
REMARK  3 active torsions:
REMARK  status: ('A' for Active; 'I' for Inactive)
REMARK    1  A    between atoms: C_1  and  N_11
REMARK    2  A    between atoms: C_3  and  O_22
REMARK    3  A    between atoms: C_4  and  C_16
REMARK                            x       y       z     vdW  Elec       q    Type
REMARK                         _______ _______ _______ _____ _____    ______ ____
ROOT
ATOM      1  C   UNL     1      33.813 -24.088 -15.374  0.00  0.00    +0.104 C 
ATOM      2  C   UNL     1      34.428 -23.392 -16.415  0.00  0.00    +0.019 C 
ATOM      3  C   UNL     1      32.422 -24.126 -15.286  0.00  0.00    +0.153 C 
ATOM      4  C   UNL     1      33.650 -22.734 -17.369  0.00  0.00    +0.001 C 
ATOM      5  C   UNL     1      31.644 -23.469 -16.240  0.00  0.00    +0.038 C 
ATOM      6  C   UNL     1      32.259 -22.774 -17.282  0.00  0.00    +0.003 C 
ENDROOT
BRANCH   1  11
ATOM      7  S   UNL     1      36.152 -25.351 -14.943  0.00  0.00    +0.130 S 
ATOM      8  O   UNL     1      35.974 -26.617 -15.622  0.00  0.00    -0.135 OA
ATOM      9  O   UNL     1      36.926 -24.273 -15.528  0.00  0.00    -0.135 OA
ATOM     10  O   UNL     1      36.095 -24.984 -11.158  0.00  0.00    -0.272 OA
ATOM     11  N   UNL     1      34.628 -24.759 -14.396  0.00  0.00    -0.166 N 
ATOM     12  N   UNL     1      36.677 -25.601 -13.342  0.00  0.00    -0.171 N 
ATOM     13  C   UNL     1      34.695 -24.232 -13.000  0.00  0.00    +0.203 C 
ATOM     14  C   UNL     1      35.859 -24.974 -12.357  0.00  0.00    +0.264 C 
ATOM     15  H   UNL     1      37.475 -26.131 -13.117  0.00  0.00    +0.178 HD
ENDBRANCH   1  11
BRANCH   4  16
ATOM     16  C   UNL     1      34.287 -22.013 -18.449  0.00  0.00    +0.000 C 
ATOM     17  C   UNL     1      33.510 -21.352 -19.400  0.00  0.00    +0.000 C 
ATOM     18  C   UNL     1      35.678 -21.975 -18.538  0.00  0.00    +0.000 C 
ATOM     19  C   UNL     1      34.125 -20.655 -20.440  0.00  0.00    +0.000 C 
ATOM     20  C   UNL     1      36.293 -21.277 -19.577  0.00  0.00    +0.000 C 
ATOM     21  C   UNL     1      35.517 -20.617 -20.529  0.00  0.00    +0.000 C 
ENDBRANCH   4  16
BRANCH   3  22
ATOM     22  O   UNL     1      31.804 -24.800 -14.276  0.00  0.00    -0.470 OA
ATOM     23  C   UNL     1      30.408 -25.053 -14.424  0.00  0.00    +0.253 C 
ENDBRANCH   3  22
TORSDOF 3
ENDMDL
MODEL 2
REMARK VINA RESULT:     -10.3      2.102      3.208
REMARK  Name = 4369451
REMARK  3 active torsions:
REMARK  status: ('A' for Active; 'I' for Inactive)
REMARK    1  A    between atoms: C_1  and  N_11
REMARK    2  A    between atoms: C_3  and  O_22
REMARK    3  A    between atoms: C_4  and  C_16
REMARK                            x       y       z     vdW  Elec       q    Type
REMARK                         _______ _______ _______ _____ _____    ______ ____
ROOT
ATOM      1  C   UNL     1      36.240 -24.287 -14.756  0.00  0.00    +0.104 C 
ATOM      2  C   UNL     1      36.119 -23.666 -15.999  0.00  0.00    +0.019 C 
ATOM      3  C   UNL     1      35.153 -24.316 -13.883  0.00  0.00    +0.153 C 
ATOM      4  C   UNL     1      34.910 -23.075 -16.370  0.00  0.00    +0.001 C 
ATOM      5  C   UNL     1      33.945 -23.725 -14.252  0.00  0.00    +0.038 C 
ATOM      6  C   UNL     1      33.823 -23.105 -15.496  0.00  0.00    +0.003 C 
ENDROOT
BRANCH   1  11
ATOM      7  S   UNL     1      37.576 -26.609 -14.487  0.00  0.00    +0.130 S 
ATOM      8  O   UNL     1      36.977 -27.201 -13.310  0.00  0.00    -0.135 OA
ATOM      9  O   UNL     1      37.228 -27.049 -15.825  0.00  0.00    -0.135 OA
ATOM     10  O   UNL     1      41.049 -25.059 -14.510  0.00  0.00    -0.272 OA
ATOM     11  N   UNL     1      37.493 -24.890 -14.387  0.00  0.00    -0.166 N 
ATOM     12  N   UNL     1      39.273 -26.578 -14.343  0.00  0.00    -0.171 N 
ATOM     13  C   UNL     1      38.775 -24.239 -14.788  0.00  0.00    +0.203 C 
ATOM     14  C   UNL     1      39.848 -25.285 -14.519  0.00  0.00    +0.264 C 
ATOM     15  H   UNL     1      39.809 -27.381 -14.154  0.00  0.00    +0.178 HD
ENDBRANCH   1  11
BRANCH   4  16
ATOM     16  C   UNL     1      34.784 -22.432 -17.659  0.00  0.00    +0.000 C 
ATOM     17  C   UNL     1      35.901 -21.858 -18.265  0.00  0.00    +0.000 C 
ATOM     18  C   UNL     1      33.545 -22.387 -18.298  0.00  0.00    +0.000 C 
ATOM     19  C   UNL     1      35.780 -21.240 -19.509  0.00  0.00    +0.000 C 
ATOM     20  C   UNL     1      33.423 -21.770 -19.542  0.00  0.00    +0.000 C 
ATOM     21  C   UNL     1      34.541 -21.196 -20.149  0.00  0.00    +0.000 C 
ENDBRANCH   4  16
BRANCH   3  22
ATOM     22  O   UNL     1      35.252 -24.917 -12.663  0.00  0.00    -0.470 OA
ATOM     23  C   UNL     1      35.660 -24.099 -11.569  0.00  0.00    +0.253 C 
ENDBRANCH   3  22
TORSDOF 3
ENDMDL
MODEL 3
REMARK VINA RESULT:      -9.7      1.552      2.213
REMARK  Name = 4369451
REMARK  3 active torsions:
REMARK  status: ('A' for Active; 'I' for Inactive)
REMARK    1  A    between atoms: C_1  and  N_11
REMARK    2  A    between atoms: C_3  and  O_22
REMARK    3  A    between atoms: C_4  and  C_16
REMARK                            x       y       z     vdW  Elec       q    Type
REMARK                         _______ _______ _______ _____ _____    ______ ____
ROOT
ATOM      1  C   UNL     1      34.805 -23.815 -16.034  0.00  0.00    +0.104 C 
ATOM      2  C   UNL     1      34.974 -23.015 -17.165  0.00  0.00    +0.019 C 
ATOM      3  C   UNL     1      33.526 -24.036 -15.522  0.00  0.00    +0.153 C 
ATOM      4  C   UNL     1      33.864 -22.437 -17.783  0.00  0.00    +0.001 C 
ATOM      5  C   UNL     1      32.417 -23.459 -16.139  0.00  0.00    +0.038 C 
ATOM      6  C   UNL     1      32.586 -22.660 -17.270  0.00  0.00    +0.003 C 
ENDROOT
BRANCH   1  11
ATOM      7  S   UNL     1      36.698 -23.483 -14.149  0.00  0.00    +0.130 S 
ATOM      8  O   UNL     1      37.560 -22.471 -14.720  0.00  0.00    -0.135 OA
ATOM      9  O   UNL     1      35.724 -23.166 -13.122  0.00  0.00    -0.135 OA
ATOM     10  O   UNL     1      37.656 -27.157 -13.917  0.00  0.00    -0.272 OA
ATOM     11  N   UNL     1      35.958 -24.402 -15.406  0.00  0.00    -0.166 N 
ATOM     12  N   UNL     1      37.611 -24.830 -13.644  0.00  0.00    -0.171 N 
ATOM     13  C   UNL     1      35.981 -25.868 -15.122  0.00  0.00    +0.203 C 
ATOM     14  C   UNL     1      37.173 -26.069 -14.196  0.00  0.00    +0.264 C 
ATOM     15  H   UNL     1      38.373 -24.759 -13.026  0.00  0.00    +0.178 HD
ENDBRANCH   1  11
BRANCH   4  16
ATOM     16  C   UNL     1      34.040 -21.608 -18.955  0.00  0.00    +0.000 C 
ATOM     17  C   UNL     1      35.317 -21.390 -19.470  0.00  0.00    +0.000 C 
ATOM     18  C   UNL     1      32.931 -21.029 -19.572  0.00  0.00    +0.000 C 
ATOM     19  C   UNL     1      35.485 -20.592 -20.602  0.00  0.00    +0.000 C 
ATOM     20  C   UNL     1      33.099 -20.233 -20.704  0.00  0.00    +0.000 C 
ATOM     21  C   UNL     1      34.376 -20.013 -21.220  0.00  0.00    +0.000 C 
ENDBRANCH   4  16
BRANCH   3  22
ATOM     22  O   UNL     1      33.341 -24.814 -14.418  0.00  0.00    -0.470 OA
ATOM     23  C   UNL     1      32.018 -24.886 -13.890  0.00  0.00    +0.253 C 
ENDBRANCH   3  22
TORSDOF 3
ENDMDL
MODEL 4
REMARK VINA RESULT:      -9.4      7.907     10.740
REMARK  Name = 4369451
REMARK  3 active torsions:
REMARK  status: ('A' for Active; 'I' for Inactive)
REMARK    1  A    between atoms: C_1  and  N_11
REMARK    2  A    between atoms: C_3  and  O_22
REMARK    3  A    between atoms: C_4  and  C_16
REMARK                            x       y       z     vdW  Elec       q    Type
REMARK                         _______ _______ _______ _____ _____    ______ ____
ROOT
ATOM      1  C   UNL     1      33.866 -16.561 -22.559  0.00  0.00    +0.104 C 
ATOM      2  C   UNL     1      33.925 -17.585 -21.614  0.00  0.00    +0.019 C 
ATOM      3  C   UNL     1      34.453 -16.735 -23.813  0.00  0.00    +0.153 C 
ATOM      4  C   UNL     1      34.572 -18.783 -21.922  0.00  0.00    +0.001 C 
ATOM      5  C   UNL     1      35.099 -17.931 -24.121  0.00  0.00    +0.038 C 
ATOM      6  C   UNL     1      35.158 -18.956 -23.175  0.00  0.00    +0.003 C 
ENDROOT
BRANCH   1  11
ATOM      7  S   UNL     1      33.381 -14.772 -20.606  0.00  0.00    +0.130 S 
ATOM      8  O   UNL     1      32.461 -15.474 -19.736  0.00  0.00    -0.135 OA
ATOM      9  O   UNL     1      34.787 -14.636 -20.280  0.00  0.00    -0.135 OA
ATOM     10  O   UNL     1      32.323 -11.950 -22.925  0.00  0.00    -0.272 OA
ATOM     11  N   UNL     1      33.198 -15.331 -22.227  0.00  0.00    -0.166 N 
ATOM     12  N   UNL     1      32.762 -13.240 -21.020  0.00  0.00    -0.171 N 
ATOM     13  C   UNL     1      33.178 -14.209 -23.212  0.00  0.00    +0.203 C 
ATOM     14  C   UNL     1      32.685 -13.003 -22.423  0.00  0.00    +0.264 C 
ATOM     15  H   UNL     1      32.481 -12.577 -20.349  0.00  0.00    +0.178 HD
ENDBRANCH   1  11
BRANCH   4  16
ATOM     16  C   UNL     1      34.633 -19.845 -20.941  0.00  0.00    +0.000 C 
ATOM     17  C   UNL     1      33.457 -20.402 -20.442  0.00  0.00    +0.000 C 
ATOM     18  C   UNL     1      35.870 -20.313 -20.497  0.00  0.00    +0.000 C 
ATOM     19  C   UNL     1      33.517 -21.428 -19.499  0.00  0.00    +0.000 C 
ATOM     20  C   UNL     1      35.930 -21.338 -19.554  0.00  0.00    +0.000 C 
ATOM     21  C   UNL     1      34.753 -21.897 -19.054  0.00  0.00    +0.000 C 
ENDBRANCH   4  16
BRANCH   3  22
ATOM     22  O   UNL     1      34.406 -15.746 -24.749  0.00  0.00    -0.470 OA
ATOM     23  C   UNL     1      33.599 -15.982 -25.901  0.00  0.00    +0.253 C 
ENDBRANCH   3  22
TORSDOF 3
ENDMDL
MODEL 5
REMARK VINA RESULT:      -9.1     14.355     16.367
REMARK  Name = 4369451
REMARK  3 active torsions:
REMARK  status: ('A' for Active; 'I' for Inactive)
REMARK    1  A    between atoms: C_1  and  N_11
REMARK    2  A    between atoms: C_3  and  O_22
REMARK    3  A    between atoms: C_4  and  C_16
REMARK                            x       y       z     vdW  Elec       q    Type
REMARK                         _______ _______ _______ _____ _____    ______ ____
ROOT
ATOM      1  C   UNL     1      31.969  -9.530 -22.259  0.00  0.00    +0.104 C 
ATOM      2  C   UNL     1      32.743  -9.674 -23.412  0.00  0.00    +0.019 C 
ATOM      3  C   UNL     1      31.596 -10.656 -21.525  0.00  0.00    +0.153 C 
ATOM      4  C   UNL     1      33.144 -10.944 -23.829  0.00  0.00    +0.001 C 
ATOM      5  C   UNL     1      31.997 -11.925 -21.942  0.00  0.00    +0.038 C 
ATOM      6  C   UNL     1      32.771 -12.069 -23.093  0.00  0.00    +0.003 C 
ENDROOT
BRANCH   1  11
ATOM      7  S   UNL     1      32.587  -7.417 -20.710  0.00  0.00    +0.130 S 
ATOM      8  O   UNL     1      32.311  -7.895 -19.372  0.00  0.00    -0.135 OA
ATOM      9  O   UNL     1      33.939  -7.338 -21.229  0.00  0.00    -0.135 OA
ATOM     10  O   UNL     1      30.363  -4.934 -22.541  0.00  0.00    -0.272 OA
ATOM     11  N   UNL     1      31.561  -8.215 -21.843  0.00  0.00    -0.166 N 
ATOM     12  N   UNL     1      31.805  -5.929 -20.985  0.00  0.00    -0.171 N 
ATOM     13  C   UNL     1      30.978  -7.269 -22.840  0.00  0.00    +0.203 C 
ATOM     14  C   UNL     1      30.966  -5.918 -22.138  0.00  0.00    +0.264 C 
ATOM     15  H   UNL     1      31.920  -5.147 -20.400  0.00  0.00    +0.178 HD
ENDBRANCH   1  11
BRANCH   4  16
ATOM     16  C   UNL     1      33.946 -11.093 -25.023  0.00  0.00    +0.000 C 
ATOM     17  C   UNL     1      33.627 -12.076 -25.959  0.00  0.00    +0.000 C 
ATOM     18  C   UNL     1      35.036 -10.251 -25.240  0.00  0.00    +0.000 C 
ATOM     19  C   UNL     1      34.400 -12.218 -27.111  0.00  0.00    +0.000 C 
ATOM     20  C   UNL     1      35.808 -10.393 -26.393  0.00  0.00    +0.000 C 
ATOM     21  C   UNL     1      35.491 -11.376 -27.329  0.00  0.00    +0.000 C 
ENDBRANCH   4  16
BRANCH   3  22
ATOM     22  O   UNL     1      30.840 -10.535 -20.398  0.00  0.00    -0.470 OA
ATOM     23  C   UNL     1      31.362 -11.112 -19.203  0.00  0.00    +0.253 C 
ENDBRANCH   3  22
TORSDOF 3
ENDMDL
MODEL 6
REMARK VINA RESULT:      -8.7      7.584     10.324
REMARK  Name = 4369451
REMARK  3 active torsions:
REMARK  status: ('A' for Active; 'I' for Inactive)
REMARK    1  A    between atoms: C_1  and  N_11
REMARK    2  A    between atoms: C_3  and  O_22
REMARK    3  A    between atoms: C_4  and  C_16
REMARK                            x       y       z     vdW  Elec       q    Type
REMARK                         _______ _______ _______ _____ _____    ______ ____
ROOT
ATOM      1  C   UNL     1      34.067 -16.960 -22.844  0.00  0.00    +0.104 C 
ATOM      2  C   UNL     1      33.480 -15.897 -22.157  0.00  0.00    +0.019 C 
ATOM      3  C   UNL     1      34.420 -16.813 -24.186  0.00  0.00    +0.153 C 
ATOM      4  C   UNL     1      33.245 -14.687 -22.811  0.00  0.00    +0.001 C 
ATOM      5  C   UNL     1      34.186 -15.604 -24.840  0.00  0.00    +0.038 C 
ATOM      6  C   UNL     1      33.599 -14.541 -24.153  0.00  0.00    +0.003 C 
ENDROOT
BRANCH   1  11
ATOM      7  S   UNL     1      35.737 -18.296 -21.208  0.00  0.00    +0.130 S 
ATOM      8  O   UNL     1      36.872 -18.586 -22.059  0.00  0.00    -0.135 OA
ATOM      9  O   UNL     1      35.766 -17.219 -20.237  0.00  0.00    -0.135 OA
ATOM     10  O   UNL     1      33.204 -20.923 -20.137  0.00  0.00    -0.272 OA
ATOM     11  N   UNL     1      34.301 -18.202 -22.157  0.00  0.00    -0.166 N 
ATOM     12  N   UNL     1      35.188 -19.714 -20.441  0.00  0.00    -0.171 N 
ATOM     13  C   UNL     1      33.158 -18.925 -21.524  0.00  0.00    +0.203 C 
ATOM     14  C   UNL     1      33.804 -19.988 -20.646  0.00  0.00    +0.264 C 
ATOM     15  H   UNL     1      35.774 -20.294 -19.904  0.00  0.00    +0.178 HD
ENDBRANCH   1  11
BRANCH   4  16
ATOM     16  C   UNL     1      32.637 -13.586 -22.099  0.00  0.00    +0.000 C 
ATOM     17  C   UNL     1      32.166 -12.476 -22.800  0.00  0.00    +0.000 C 
ATOM     18  C   UNL     1      32.517 -13.634 -20.710  0.00  0.00    +0.000 C 
ATOM     19  C   UNL     1      31.577 -11.415 -22.113  0.00  0.00    +0.000 C 
ATOM     20  C   UNL     1      31.928 -12.574 -20.023  0.00  0.00    +0.000 C 
ATOM     21  C   UNL     1      31.458 -11.463 -20.724  0.00  0.00    +0.000 C 
ENDBRANCH   4  16
BRANCH   3  22
ATOM     22  O   UNL     1      34.994 -17.839 -24.874  0.00  0.00    -0.470 OA
ATOM     23  C   UNL     1      34.161 -18.953 -25.190  0.00  0.00    +0.253 C 
ENDBRANCH   3  22
TORSDOF 3
ENDMDL
MODEL 7
REMARK VINA RESULT:      -8.7     10.055     12.613
REMARK  Name = 4369451
REMARK  3 active torsions:
REMARK  status: ('A' for Active; 'I' for Inactive)
REMARK    1  A    between atoms: C_1  and  N_11
REMARK    2  A    between atoms: C_3  and  O_22
REMARK    3  A    between atoms: C_4  and  C_16
REMARK                            x       y       z     vdW  Elec       q    Type
REMARK                         _______ _______ _______ _____ _____    ______ ____
ROOT
ATOM      1  C   UNL     1      33.554 -14.384 -23.068  0.00  0.00    +0.104 C 
ATOM      2  C   UNL     1      34.126 -15.624 -22.783  0.00  0.00    +0.019 C 
ATOM      3  C   UNL     1      32.593 -13.847 -22.211  0.00  0.00    +0.153 C 
ATOM      4  C   UNL     1      33.738 -16.327 -21.642  0.00  0.00    +0.001 C 
ATOM      5  C   UNL     1      32.205 -14.549 -21.070  0.00  0.00    +0.038 C 
ATOM      6  C   UNL     1      32.778 -15.788 -20.785  0.00  0.00    +0.003 C 
ENDROOT
BRANCH   1  11
ATOM      7  S   UNL     1      33.263 -14.191 -25.738  0.00  0.00    +0.130 S 
ATOM      8  O   UNL     1      33.964 -15.357 -26.232  0.00  0.00    -0.135 OA
ATOM      9  O   UNL     1      31.816 -14.150 -25.651  0.00  0.00    -0.135 OA
ATOM     10  O   UNL     1      34.632 -10.654 -26.018  0.00  0.00    -0.272 OA
ATOM     11  N   UNL     1      33.962 -13.672 -24.249  0.00  0.00    -0.166 N 
ATOM     12  N   UNL     1      33.806 -12.785 -26.532  0.00  0.00    -0.171 N 
ATOM     13  C   UNL     1      34.143 -12.191 -24.197  0.00  0.00    +0.203 C 
ATOM     14  C   UNL     1      34.257 -11.758 -25.652  0.00  0.00    +0.264 C 
ATOM     15  H   UNL     1      33.809 -12.691 -27.511  0.00  0.00    +0.178 HD
ENDBRANCH   1  11
BRANCH   4  16
ATOM     16  C   UNL     1      34.332 -17.612 -21.347  0.00  0.00    +0.000 C 
ATOM     17  C   UNL     1      35.717 -17.766 -21.386  0.00  0.00    +0.000 C 
ATOM     18  C   UNL     1      33.519 -18.697 -21.020  0.00  0.00    +0.000 C 
ATOM     19  C   UNL     1      36.290 -19.005 -21.099  0.00  0.00    +0.000 C 
ATOM     20  C   UNL     1      34.091 -19.936 -20.732  0.00  0.00    +0.000 C 
ATOM     21  C   UNL     1      35.477 -20.091 -20.771  0.00  0.00    +0.000 C 
ENDBRANCH   4  16
BRANCH   3  22
ATOM     22  O   UNL     1      32.022 -12.638 -22.473  0.00  0.00    -0.470 OA
ATOM     23  C   UNL     1      31.519 -11.904 -21.358  0.00  0.00    +0.253 C 
ENDBRANCH   3  22
TORSDOF 3
ENDMDL
MODEL 8
REMARK VINA RESULT:      -8.5     13.320     15.358
REMARK  Name = 4369451
REMARK  3 active torsions:
REMARK  status: ('A' for Active; 'I' for Inactive)
REMARK    1  A    between atoms: C_1  and  N_11
REMARK    2  A    between atoms: C_3  and  O_22
REMARK    3  A    between atoms: C_4  and  C_16
REMARK                            x       y       z     vdW  Elec       q    Type
REMARK                         _______ _______ _______ _____ _____    ______ ____
ROOT
ATOM      1  C   UNL     1      31.965 -10.508 -22.143  0.00  0.00    +0.104 C 
ATOM      2  C   UNL     1      32.385 -11.424 -23.108  0.00  0.00    +0.019 C 
ATOM      3  C   UNL     1      31.649 -10.946 -20.857  0.00  0.00    +0.153 C 
ATOM      4  C   UNL     1      32.488 -12.778 -22.786  0.00  0.00    +0.001 C 
ATOM      5  C   UNL     1      31.752 -12.299 -20.535  0.00  0.00    +0.038 C 
ATOM      6  C   UNL     1      32.172 -13.215 -21.500  0.00  0.00    +0.003 C 
ENDROOT
BRANCH   1  11
ATOM      7  S   UNL     1      33.284  -8.164 -22.276  0.00  0.00    +0.130 S 
ATOM      8  O   UNL     1      33.415  -7.779 -20.887  0.00  0.00    -0.135 OA
ATOM      9  O   UNL     1      34.388  -8.743 -23.016  0.00  0.00    -0.135 OA
ATOM     10  O   UNL     1      30.859  -6.496 -24.685  0.00  0.00    -0.272 OA
ATOM     11  N   UNL     1      31.862  -9.116 -22.489  0.00  0.00    -0.166 N 
ATOM     12  N   UNL     1      32.618  -6.889 -23.188  0.00  0.00    -0.171 N 
ATOM     13  C   UNL     1      31.087  -8.709 -23.699  0.00  0.00    +0.203 C 
ATOM     14  C   UNL     1      31.452  -7.248 -23.926  0.00  0.00    +0.264 C 
ATOM     15  H   UNL     1      33.004  -5.984 -23.204  0.00  0.00    +0.178 HD
ENDBRANCH   1  11
BRANCH   4  16
ATOM     16  C   UNL     1      32.923 -13.728 -23.786  0.00  0.00    +0.000 C 
ATOM     17  C   UNL     1      33.591 -14.889 -23.401  0.00  0.00    +0.000 C 
ATOM     18  C   UNL     1      32.670 -13.484 -25.136  0.00  0.00    +0.000 C 
ATOM     19  C   UNL     1      34.009 -15.806 -24.366  0.00  0.00    +0.000 C 
ATOM     20  C   UNL     1      33.087 -14.401 -26.101  0.00  0.00    +0.000 C 
ATOM     21  C   UNL     1      33.756 -15.563 -25.716  0.00  0.00    +0.000 C 
ENDBRANCH   4  16
BRANCH   3  22
ATOM     22  O   UNL     1      31.237 -10.066 -19.901  0.00  0.00    -0.470 OA
ATOM     23  C   UNL     1      31.386 -10.469 -18.541  0.00  0.00    +0.253 C 
ENDBRANCH   3  22
TORSDOF 3
ENDMDL
MODEL 9
REMARK VINA RESULT:      -8.5      8.763     11.574
REMARK  Name = 4369451
REMARK  3 active torsions:
REMARK  status: ('A' for Active; 'I' for Inactive)
REMARK    1  A    between atoms: C_1  and  N_11
REMARK    2  A    between atoms: C_3  and  O_22
REMARK    3  A    between atoms: C_4  and  C_16
REMARK                            x       y       z     vdW  Elec       q    Type
REMARK                         _______ _______ _______ _____ _____    ______ ____
ROOT
ATOM      1  C   UNL     1      34.643 -15.792 -23.439  0.00  0.00    +0.104 C 
ATOM      2  C   UNL     1      34.257 -14.496 -23.098  0.00  0.00    +0.019 C 
ATOM      3  C   UNL     1      34.344 -16.297 -24.705  0.00  0.00    +0.153 C 
ATOM      4  C   UNL     1      33.574 -13.704 -24.022  0.00  0.00    +0.001 C 
ATOM      5  C   UNL     1      33.662 -15.507 -25.629  0.00  0.00    +0.038 C 
ATOM      6  C   UNL     1      33.277 -14.210 -25.288  0.00  0.00    +0.003 C 
ENDROOT
BRANCH   1  11
ATOM      7  S   UNL     1      34.612 -16.747 -20.922  0.00  0.00    +0.130 S 
ATOM      8  O   UNL     1      34.912 -15.578 -20.122  0.00  0.00    -0.135 OA
ATOM      9  O   UNL     1      33.261 -17.257 -21.053  0.00  0.00    -0.135 OA
ATOM     10  O   UNL     1      37.107 -19.549 -21.543  0.00  0.00    -0.272 OA
ATOM     11  N   UNL     1      35.344 -16.597 -22.476  0.00  0.00    -0.166 N 
ATOM     12  N   UNL     1      35.648 -18.034 -20.510  0.00  0.00    -0.171 N 
ATOM     13  C   UNL     1      36.009 -17.862 -22.910  0.00  0.00    +0.203 C 
ATOM     14  C   UNL     1      36.359 -18.585 -21.616  0.00  0.00    +0.264 C 
ATOM     15  H   UNL     1      35.748 -18.368 -19.590  0.00  0.00    +0.178 HD
ENDBRANCH   1  11
BRANCH   4  16
ATOM     16  C   UNL     1      33.175 -12.360 -23.668  0.00  0.00    +0.000 C 
ATOM     17  C   UNL     1      33.740 -11.268 -24.326  0.00  0.00    +0.000 C 
ATOM     18  C   UNL     1      32.222 -12.155 -22.670  0.00  0.00    +0.000 C 
ATOM     19  C   UNL     1      33.353  -9.972 -23.986  0.00  0.00    +0.000 C 
ATOM     20  C   UNL     1      31.835 -10.860 -22.330  0.00  0.00    +0.000 C 
ATOM     21  C   UNL     1      32.400  -9.767 -22.988  0.00  0.00    +0.000 C 
ENDBRANCH   4  16
BRANCH   3  22
ATOM     22  O   UNL     1      34.712 -17.562 -25.057  0.00  0.00    -0.470 OA
ATOM     23  C   UNL     1      33.664 -18.500 -25.290  0.00  0.00    +0.253 C 
ENDBRANCH   3  22
TORSDOF 3
ENDMDL
