MODEL 1
REMARK VINA RESULT:      -4.0      0.000      0.000
REMARK  Name = 57410862
REMARK  9 active torsions:
REMARK  status: ('A' for Active; 'I' for Inactive)
REMARK    1  A    between atoms: C_9  and  O_21
REMARK    2  A    between atoms: C_15  and  O_23
REMARK    3  A    between atoms: C_16  and  O_25
REMARK    4  A    between atoms: C_18  and  C_37
REMARK    5  A    between atoms: O_25  and  C_27
REMARK    6  A    between atoms: C_27  and  C_30
REMARK    7  A    between atoms: C_31  and  C_33
REMARK    8  A    between atoms: C_32  and  C_35
REMARK    9  A    between atoms: C_37  and  O_38
REMARK                            x       y       z     vdW  Elec       q    Type
REMARK                         _______ _______ _______ _____ _____    ______ ____
ROOT
ATOM      1  O   UNL     1      37.458 -22.508 -12.620  0.00  0.00    -0.296 OA
ATOM      2  C   UNL     1      39.130 -24.626 -13.843  0.00  0.00    +0.011 C 
ATOM      3  C   UNL     1      38.538 -25.877 -13.204  0.00  0.00    +0.001 C 
ATOM      4  C   UNL     1      39.579 -25.989 -14.290  0.00  0.00    +0.001 C 
ATOM      5  C   UNL     1      38.093 -23.830 -14.539  0.00  0.00    +0.079 C 
ATOM      6  C   UNL     1      37.115 -26.342 -13.511  0.00  0.00    +0.001 C 
ATOM      7  C   UNL     1      35.782 -23.990 -13.542  0.00  0.00    +0.080 C 
ATOM      8  C   UNL     1      35.945 -25.457 -12.960  0.00  0.00    +0.009 C 
ATOM      9  C   UNL     1      35.225 -23.802 -15.017  0.00  0.00    +0.159 C 
ATOM     10  C   UNL     1      37.133 -23.332 -13.474  0.00  0.00    +0.156 C 
ATOM     11  C   UNL     1      40.942 -26.423 -13.863  0.00  0.00    +0.000 C 
ATOM     12  C   UNL     1      39.233 -26.455 -15.663  0.00  0.00    +0.000 C 
ATOM     13  C   UNL     1      38.289 -22.668 -15.425  0.00  0.00    -0.023 C 
ATOM     14  C   UNL     1      34.760 -23.177 -12.776  0.00  0.00    +0.013 C 
ATOM     15  C   UNL     1      35.729 -22.481 -15.789  0.00  0.00    +0.159 C 
ATOM     16  C   UNL     1      33.683 -23.682 -14.793  0.00  0.00    +0.196 C 
ATOM     17  C   UNL     1      36.028 -25.472 -11.418  0.00  0.00    +0.001 C 
ATOM     18  C   UNL     1      37.215 -22.079 -16.000  0.00  0.00    +0.010 C 
ATOM     19  C   UNL     1      33.612 -23.030 -13.450  0.00  0.00    +0.043 C 
ATOM     20  C   UNL     1      32.380 -22.346 -12.977  0.00  0.00    +0.004 C 
ENDROOT
BRANCH   9  21
ATOM     21  O   UNL     1      35.462 -24.944 -15.833  0.00  0.00    -0.380 OA
ATOM     22  H   UNL     1      35.346 -24.704 -16.766  0.00  0.00    +0.211 HD
ENDBRANCH   9  21
BRANCH  15  23
ATOM     23  O   UNL     1      35.104 -22.499 -17.086  0.00  0.00    -0.378 OA
ATOM     24  H   UNL     1      34.584 -21.690 -17.205  0.00  0.00    +0.211 HD
ENDBRANCH  15  23
BRANCH  16  25
ATOM     25  O   UNL     1      33.040 -24.947 -14.703  0.00  0.00    -0.447 OA
BRANCH  25  27
ATOM     26  O   UNL     1      30.899 -25.793 -14.712  0.00  0.00    -0.245 OA
ATOM     27  C   UNL     1      31.732 -24.981 -15.082  0.00  0.00    +0.345 C 
BRANCH  27  30
ATOM     28  O   UNL     1      30.458 -22.096 -16.952  0.00  0.00    -0.358 OA
ATOM     29  N   UNL     1      31.492 -22.458 -17.807  0.00  0.00    -0.082 NA
ATOM     30  C   UNL     1      31.430 -23.876 -16.027  0.00  0.00    +0.125 A 
ATOM     31  C   UNL     1      30.430 -22.949 -15.896  0.00  0.00    +0.160 A 
ATOM     32  C   UNL     1      32.058 -23.523 -17.234  0.00  0.00    +0.106 A 
BRANCH  31  33
ATOM     33  C   UNL     1      29.388 -22.704 -14.890  0.00  0.00    +0.068 C 
ATOM     34  C   UNL     1      28.013 -22.409 -15.505  0.00  0.00    +0.009 C 
ENDBRANCH  31  33
BRANCH  32  35
ATOM     35  C   UNL     1      33.207 -24.175 -17.884  0.00  0.00    +0.049 C 
ATOM     36  C   UNL     1      33.719 -23.406 -19.109  0.00  0.00    +0.007 C 
ENDBRANCH  32  35
ENDBRANCH  27  30
ENDBRANCH  25  27
ENDBRANCH  16  25
BRANCH  18  37
ATOM     37  C   UNL     1      37.431 -20.867 -16.873  0.00  0.00    +0.161 C 
BRANCH  37  38
ATOM     38  O   UNL     1      36.900 -21.115 -18.158  0.00  0.00    -0.377 OA
ATOM     39  H   UNL     1      36.039 -20.677 -18.241  0.00  0.00    +0.211 HD
ENDBRANCH  37  38
ENDBRANCH  18  37
TORSDOF 9
ENDMDL
MODEL 2
REMARK VINA RESULT:      -4.0      0.330      2.093
REMARK  Name = 57410862
REMARK  9 active torsions:
REMARK  status: ('A' for Active; 'I' for Inactive)
REMARK    1  A    between atoms: C_9  and  O_21
REMARK    2  A    between atoms: C_15  and  O_23
REMARK    3  A    between atoms: C_16  and  O_25
REMARK    4  A    between atoms: C_18  and  C_37
REMARK    5  A    between atoms: O_25  and  C_27
REMARK    6  A    between atoms: C_27  and  C_30
REMARK    7  A    between atoms: C_31  and  C_33
REMARK    8  A    between atoms: C_32  and  C_35
REMARK    9  A    between atoms: C_37  and  O_38
REMARK                            x       y       z     vdW  Elec       q    Type
REMARK                         _______ _______ _______ _____ _____    ______ ____
ROOT
ATOM      1  O   UNL     1      37.434 -22.489 -12.643  0.00  0.00    -0.296 OA
ATOM      2  C   UNL     1      39.114 -24.609 -13.848  0.00  0.00    +0.011 C 
ATOM      3  C   UNL     1      38.525 -25.858 -13.202  0.00  0.00    +0.001 C 
ATOM      4  C   UNL     1      39.569 -25.974 -14.285  0.00  0.00    +0.001 C 
ATOM      5  C   UNL     1      38.076 -23.821 -14.551  0.00  0.00    +0.079 C 
ATOM      6  C   UNL     1      37.104 -26.330 -13.508  0.00  0.00    +0.001 C 
ATOM      7  C   UNL     1      35.764 -23.982 -13.557  0.00  0.00    +0.080 C 
ATOM      8  C   UNL     1      35.931 -25.445 -12.964  0.00  0.00    +0.009 C 
ATOM      9  C   UNL     1      35.208 -23.806 -15.034  0.00  0.00    +0.159 C 
ATOM     10  C   UNL     1      37.112 -23.319 -13.491  0.00  0.00    +0.156 C 
ATOM     11  C   UNL     1      40.933 -26.400 -13.854  0.00  0.00    +0.000 C 
ATOM     12  C   UNL     1      39.226 -26.450 -15.656  0.00  0.00    +0.000 C 
ATOM     13  C   UNL     1      38.270 -22.665 -15.445  0.00  0.00    -0.023 C 
ATOM     14  C   UNL     1      34.738 -23.168 -12.799  0.00  0.00    +0.013 C 
ATOM     15  C   UNL     1      35.710 -22.489 -15.814  0.00  0.00    +0.159 C 
ATOM     16  C   UNL     1      33.666 -23.690 -14.814  0.00  0.00    +0.196 C 
ATOM     17  C   UNL     1      36.011 -25.449 -11.422  0.00  0.00    +0.001 C 
ATOM     18  C   UNL     1      37.194 -22.084 -16.025  0.00  0.00    +0.010 C 
ATOM     19  C   UNL     1      33.591 -23.029 -13.475  0.00  0.00    +0.043 C 
ATOM     20  C   UNL     1      32.356 -22.346 -13.009  0.00  0.00    +0.004 C 
ENDROOT
BRANCH   9  21
ATOM     21  O   UNL     1      35.450 -24.953 -15.842  0.00  0.00    -0.380 OA
ATOM     22  H   UNL     1      36.407 -25.069 -15.960  0.00  0.00    +0.211 HD
ENDBRANCH   9  21
BRANCH  15  23
ATOM     23  O   UNL     1      35.086 -22.518 -17.112  0.00  0.00    -0.378 OA
ATOM     24  H   UNL     1      34.177 -22.842 -17.026  0.00  0.00    +0.211 HD
ENDBRANCH  15  23
BRANCH  16  25
ATOM     25  O   UNL     1      33.026 -24.956 -14.716  0.00  0.00    -0.447 OA
BRANCH  25  27
ATOM     26  O   UNL     1      30.885 -25.798 -14.662  0.00  0.00    -0.245 OA
ATOM     27  C   UNL     1      31.708 -24.989 -15.058  0.00  0.00    +0.345 C 
BRANCH  27  30
ATOM     28  O   UNL     1      31.465 -22.518 -17.756  0.00  0.00    -0.358 OA
ATOM     29  N   UNL     1      30.396 -22.084 -16.980  0.00  0.00    -0.082 NA
ATOM     30  C   UNL     1      31.382 -23.887 -15.998  0.00  0.00    +0.125 A 
ATOM     31  C   UNL     1      32.044 -23.592 -17.160  0.00  0.00    +0.160 A 
ATOM     32  C   UNL     1      30.367 -22.917 -15.935  0.00  0.00    +0.106 A 
BRANCH  31  33
ATOM     33  C   UNL     1      33.198 -24.177 -17.857  0.00  0.00    +0.068 C 
ATOM     34  C   UNL     1      33.627 -23.375 -19.092  0.00  0.00    +0.009 C 
ENDBRANCH  31  33
BRANCH  32  35
ATOM     35  C   UNL     1      29.340 -22.742 -14.894  0.00  0.00    +0.049 C 
ATOM     36  C   UNL     1      27.952 -22.430 -15.467  0.00  0.00    +0.007 C 
ENDBRANCH  32  35
ENDBRANCH  27  30
ENDBRANCH  25  27
ENDBRANCH  16  25
BRANCH  18  37
ATOM     37  C   UNL     1      37.407 -20.877 -16.907  0.00  0.00    +0.161 C 
BRANCH  37  38
ATOM     38  O   UNL     1      36.853 -21.124 -18.182  0.00  0.00    -0.377 OA
ATOM     39  H   UNL     1      36.225 -21.860 -18.123  0.00  0.00    +0.211 HD
ENDBRANCH  37  38
ENDBRANCH  18  37
TORSDOF 9
ENDMDL
MODEL 3
REMARK VINA RESULT:      -3.6     10.954     13.915
REMARK  Name = 57410862
REMARK  9 active torsions:
REMARK  status: ('A' for Active; 'I' for Inactive)
REMARK    1  A    between atoms: C_9  and  O_21
REMARK    2  A    between atoms: C_15  and  O_23
REMARK    3  A    between atoms: C_16  and  O_25
REMARK    4  A    between atoms: C_18  and  C_37
REMARK    5  A    between atoms: O_25  and  C_27
REMARK    6  A    between atoms: C_27  and  C_30
REMARK    7  A    between atoms: C_31  and  C_33
REMARK    8  A    between atoms: C_32  and  C_35
REMARK    9  A    between atoms: C_37  and  O_38
REMARK                            x       y       z     vdW  Elec       q    Type
REMARK                         _______ _______ _______ _____ _____    ______ ____
ROOT
ATOM      1  O   UNL     1      35.932 -15.172 -23.572  0.00  0.00    -0.296 OA
ATOM      2  C   UNL     1      34.424 -17.320 -22.199  0.00  0.00    +0.011 C 
ATOM      3  C   UNL     1      34.296 -16.742 -20.794  0.00  0.00    +0.001 C 
ATOM      4  C   UNL     1      33.582 -18.018 -21.167  0.00  0.00    +0.001 C 
ATOM      5  C   UNL     1      33.880 -16.394 -23.218  0.00  0.00    +0.079 C 
ATOM      6  C   UNL     1      33.457 -15.497 -20.509  0.00  0.00    +0.001 C 
ATOM      7  C   UNL     1      34.067 -13.947 -22.639  0.00  0.00    +0.080 C 
ATOM      8  C   UNL     1      33.998 -14.135 -21.064  0.00  0.00    +0.009 C 
ATOM      9  C   UNL     1      32.718 -13.738 -23.451  0.00  0.00    +0.159 C 
ATOM     10  C   UNL     1      34.760 -15.157 -23.202  0.00  0.00    +0.156 C 
ATOM     11  C   UNL     1      34.131 -19.281 -20.591  0.00  0.00    +0.000 C 
ATOM     12  C   UNL     1      32.103 -18.064 -21.346  0.00  0.00    +0.000 C 
ATOM     13  C   UNL     1      33.651 -16.660 -24.651  0.00  0.00    -0.023 C 
ATOM     14  C   UNL     1      34.802 -12.685 -23.036  0.00  0.00    +0.013 C 
ATOM     15  C   UNL     1      32.736 -14.256 -24.977  0.00  0.00    +0.159 C 
ATOM     16  C   UNL     1      32.554 -12.185 -23.461  0.00  0.00    +0.196 C 
ATOM     17  C   UNL     1      35.352 -13.849 -20.379  0.00  0.00    +0.001 C 
ATOM     18  C   UNL     1      33.115 -15.693 -25.430  0.00  0.00    +0.010 C 
ATOM     19  C   UNL     1      33.975 -11.721 -23.462  0.00  0.00    +0.043 C 
ATOM     20  C   UNL     1      34.346 -10.342 -23.871  0.00  0.00    +0.004 C 
ENDROOT
BRANCH   9  21
ATOM     21  O   UNL     1      31.592 -14.294 -22.778  0.00  0.00    -0.380 OA
ATOM     22  H   UNL     1      30.988 -14.685 -23.429  0.00  0.00    +0.211 HD
ENDBRANCH   9  21
BRANCH  15  23
ATOM     23  O   UNL     1      31.438 -13.964 -25.525  0.00  0.00    -0.378 OA
ATOM     24  H   UNL     1      31.442 -14.139 -26.478  0.00  0.00    +0.211 HD
ENDBRANCH  15  23
BRANCH  16  25
ATOM     25  O   UNL     1      31.930 -11.689 -22.283  0.00  0.00    -0.447 OA
BRANCH  25  27
ATOM     26  O   UNL     1      30.707  -9.988 -23.237  0.00  0.00    -0.245 OA
ATOM     27  C   UNL     1      31.433 -10.423 -22.357  0.00  0.00    +0.345 C 
BRANCH  27  30
ATOM     28  O   UNL     1      32.386  -8.992 -19.119  0.00  0.00    -0.358 OA
ATOM     29  N   UNL     1      32.718  -7.913 -19.929  0.00  0.00    -0.082 NA
ATOM     30  C   UNL     1      31.894  -9.610 -21.203  0.00  0.00    +0.125 A 
ATOM     31  C   UNL     1      31.895  -9.996 -19.889  0.00  0.00    +0.160 A 
ATOM     32  C   UNL     1      32.416  -8.305 -21.169  0.00  0.00    +0.106 A 
BRANCH  31  33
ATOM     33  C   UNL     1      31.493 -11.220 -19.183  0.00  0.00    +0.068 C 
ATOM     34  C   UNL     1      31.265 -11.004 -17.681  0.00  0.00    +0.009 C 
ENDBRANCH  31  33
BRANCH  32  35
ATOM     35  C   UNL     1      32.645  -7.389 -22.299  0.00  0.00    +0.049 C 
ATOM     36  C   UNL     1      31.968  -6.025 -22.111  0.00  0.00    +0.007 C 
ENDBRANCH  32  35
ENDBRANCH  27  30
ENDBRANCH  25  27
ENDBRANCH  16  25
BRANCH  18  37
ATOM     37  C   UNL     1      32.923 -15.968 -26.903  0.00  0.00    +0.161 C 
BRANCH  37  38
ATOM     38  O   UNL     1      31.726 -16.691 -27.091  0.00  0.00    -0.377 OA
ATOM     39  H   UNL     1      31.934 -17.583 -27.411  0.00  0.00    +0.211 HD
ENDBRANCH  37  38
ENDBRANCH  18  37
TORSDOF 9
ENDMDL
MODEL 4
REMARK VINA RESULT:      -3.6     11.044     14.014
REMARK  Name = 57410862
REMARK  9 active torsions:
REMARK  status: ('A' for Active; 'I' for Inactive)
REMARK    1  A    between atoms: C_9  and  O_21
REMARK    2  A    between atoms: C_15  and  O_23
REMARK    3  A    between atoms: C_16  and  O_25
REMARK    4  A    between atoms: C_18  and  C_37
REMARK    5  A    between atoms: O_25  and  C_27
REMARK    6  A    between atoms: C_27  and  C_30
REMARK    7  A    between atoms: C_31  and  C_33
REMARK    8  A    between atoms: C_32  and  C_35
REMARK    9  A    between atoms: C_37  and  O_38
REMARK                            x       y       z     vdW  Elec       q    Type
REMARK                         _______ _______ _______ _____ _____    ______ ____
ROOT
ATOM      1  O   UNL     1      35.956 -15.173 -23.559  0.00  0.00    -0.296 OA
ATOM      2  C   UNL     1      34.478 -17.375 -22.240  0.00  0.00    +0.011 C 
ATOM      3  C   UNL     1      34.375 -16.850 -20.813  0.00  0.00    +0.001 C 
ATOM      4  C   UNL     1      33.656 -18.113 -21.220  0.00  0.00    +0.001 C 
ATOM      5  C   UNL     1      33.913 -16.413 -23.214  0.00  0.00    +0.079 C 
ATOM      6  C   UNL     1      33.539 -15.619 -20.465  0.00  0.00    +0.001 C 
ATOM      7  C   UNL     1      34.105 -13.989 -22.546  0.00  0.00    +0.080 C 
ATOM      8  C   UNL     1      34.067 -14.236 -20.979  0.00  0.00    +0.009 C 
ATOM      9  C   UNL     1      32.741 -13.753 -23.324  0.00  0.00    +0.159 C 
ATOM     10  C   UNL     1      34.790 -15.175 -23.167  0.00  0.00    +0.156 C 
ATOM     11  C   UNL     1      34.218 -19.396 -20.703  0.00  0.00    +0.000 C 
ATOM     12  C   UNL     1      32.174 -18.157 -21.373  0.00  0.00    +0.000 C 
ATOM     13  C   UNL     1      33.657 -16.625 -24.650  0.00  0.00    -0.023 C 
ATOM     14  C   UNL     1      34.831 -12.711 -22.909  0.00  0.00    +0.013 C 
ATOM     15  C   UNL     1      32.732 -14.213 -24.869  0.00  0.00    +0.159 C 
ATOM     16  C   UNL     1      32.574 -12.201 -23.273  0.00  0.00    +0.196 C 
ATOM     17  C   UNL     1      35.433 -13.973 -20.308  0.00  0.00    +0.001 C 
ATOM     18  C   UNL     1      33.105 -15.630 -25.383  0.00  0.00    +0.010 C 
ATOM     19  C   UNL     1      33.995 -11.734 -23.283  0.00  0.00    +0.043 C 
ATOM     20  C   UNL     1      34.355 -10.339 -23.646  0.00  0.00    +0.004 C 
ENDROOT
BRANCH   9  21
ATOM     21  O   UNL     1      31.630 -14.336 -22.652  0.00  0.00    -0.380 OA
ATOM     22  H   UNL     1      31.272 -13.703 -22.009  0.00  0.00    +0.211 HD
ENDBRANCH   9  21
BRANCH  15  23
ATOM     23  O   UNL     1      31.423 -13.904 -25.381  0.00  0.00    -0.378 OA
ATOM     24  H   UNL     1      31.129 -14.617 -25.968  0.00  0.00    +0.211 HD
ENDBRANCH  15  23
BRANCH  16  25
ATOM     25  O   UNL     1      31.972 -11.752 -22.065  0.00  0.00    -0.447 OA
BRANCH  25  27
ATOM     26  O   UNL     1      30.022 -10.726 -22.734  0.00  0.00    -0.245 OA
ATOM     27  C   UNL     1      31.110 -10.703 -22.181  0.00  0.00    +0.345 C 
BRANCH  27  30
ATOM     28  O   UNL     1      32.354  -7.392 -21.215  0.00  0.00    -0.358 OA
ATOM     29  N   UNL     1      32.601  -8.062 -20.023  0.00  0.00    -0.082 NA
ATOM     30  C   UNL     1      31.671  -9.489 -21.534  0.00  0.00    +0.125 A 
ATOM     31  C   UNL     1      31.801  -8.252 -22.107  0.00  0.00    +0.160 A 
ATOM     32  C   UNL     1      32.184  -9.313 -20.237  0.00  0.00    +0.106 A 
BRANCH  31  33
ATOM     33  C   UNL     1      31.475  -7.699 -23.429  0.00  0.00    +0.068 C 
ATOM     34  C   UNL     1      32.644  -6.937 -24.068  0.00  0.00    +0.009 C 
ENDBRANCH  31  33
BRANCH  32  35
ATOM     35  C   UNL     1      32.300 -10.313 -19.162  0.00  0.00    +0.049 C 
ATOM     36  C   UNL     1      30.941 -10.830 -18.675  0.00  0.00    +0.007 C 
ENDBRANCH  32  35
ENDBRANCH  27  30
ENDBRANCH  25  27
ENDBRANCH  16  25
BRANCH  18  37
ATOM     37  C   UNL     1      32.886 -15.851 -26.861  0.00  0.00    +0.161 C 
BRANCH  37  38
ATOM     38  O   UNL     1      33.347 -14.724 -27.576  0.00  0.00    -0.377 OA
ATOM     39  H   UNL     1      32.944 -13.922 -27.207  0.00  0.00    +0.211 HD
ENDBRANCH  37  38
ENDBRANCH  18  37
TORSDOF 9
ENDMDL
MODEL 5
REMARK VINA RESULT:      -3.3      2.113      4.318
REMARK  Name = 57410862
REMARK  9 active torsions:
REMARK  status: ('A' for Active; 'I' for Inactive)
REMARK    1  A    between atoms: C_9  and  O_21
REMARK    2  A    between atoms: C_15  and  O_23
REMARK    3  A    between atoms: C_16  and  O_25
REMARK    4  A    between atoms: C_18  and  C_37
REMARK    5  A    between atoms: O_25  and  C_27
REMARK    6  A    between atoms: C_27  and  C_30
REMARK    7  A    between atoms: C_31  and  C_33
REMARK    8  A    between atoms: C_32  and  C_35
REMARK    9  A    between atoms: C_37  and  O_38
REMARK                            x       y       z     vdW  Elec       q    Type
REMARK                         _______ _______ _______ _____ _____    ______ ____
ROOT
ATOM      1  O   UNL     1      36.553 -26.555 -12.400  0.00  0.00    -0.296 OA
ATOM      2  C   UNL     1      39.404 -26.440 -13.193  0.00  0.00    +0.011 C 
ATOM      3  C   UNL     1      39.346 -27.026 -14.599  0.00  0.00    +0.001 C 
ATOM      4  C   UNL     1      40.630 -26.443 -14.064  0.00  0.00    +0.001 C 
ATOM      5  C   UNL     1      38.497 -25.279 -13.051  0.00  0.00    +0.079 C 
ATOM      6  C   UNL     1      38.641 -26.303 -15.745  0.00  0.00    +0.001 C 
ATOM      7  C   UNL     1      36.434 -25.359 -14.500  0.00  0.00    +0.080 C 
ATOM      8  C   UNL     1      37.078 -26.213 -15.673  0.00  0.00    +0.009 C 
ATOM      9  C   UNL     1      36.518 -23.775 -14.562  0.00  0.00    +0.159 C 
ATOM     10  C   UNL     1      37.082 -25.804 -13.218  0.00  0.00    +0.156 C 
ATOM     11  C   UNL     1      41.706 -27.414 -13.709  0.00  0.00    +0.000 C 
ATOM     12  C   UNL     1      41.170 -25.146 -14.564  0.00  0.00    +0.000 C 
ATOM     13  C   UNL     1      38.404 -24.336 -11.922  0.00  0.00    -0.023 C 
ATOM     14  C   UNL     1      34.932 -25.533 -14.420  0.00  0.00    +0.013 C 
ATOM     15  C   UNL     1      36.529 -23.022 -13.138  0.00  0.00    +0.159 C 
ATOM     16  C   UNL     1      35.205 -23.386 -15.314  0.00  0.00    +0.196 C 
ATOM     17  C   UNL     1      36.519 -27.652 -15.728  0.00  0.00    +0.001 C 
ATOM     18  C   UNL     1      37.526 -23.309 -11.981  0.00  0.00    +0.010 C 
ATOM     19  C   UNL     1      34.267 -24.467 -14.883  0.00  0.00    +0.043 C 
ATOM     20  C   UNL     1      32.793 -24.319 -15.009  0.00  0.00    +0.004 C 
ENDROOT
BRANCH   9  21
ATOM     21  O   UNL     1      37.620 -23.324 -15.343  0.00  0.00    -0.380 OA
ATOM     22  H   UNL     1      38.429 -23.354 -14.807  0.00  0.00    +0.211 HD
ENDBRANCH   9  21
BRANCH  15  23
ATOM     23  O   UNL     1      36.597 -21.612 -13.419  0.00  0.00    -0.378 OA
ATOM     24  H   UNL     1      37.375 -21.428 -13.968  0.00  0.00    +0.211 HD
ENDBRANCH  15  23
BRANCH  16  25
ATOM     25  O   UNL     1      35.338 -23.456 -16.728  0.00  0.00    -0.447 OA
BRANCH  25  27
ATOM     26  O   UNL     1      36.636 -21.586 -17.077  0.00  0.00    -0.245 OA
ATOM     27  C   UNL     1      35.682 -22.296 -17.354  0.00  0.00    +0.345 C 
BRANCH  27  30
ATOM     28  O   UNL     1      33.889 -21.198 -20.358  0.00  0.00    -0.358 OA
ATOM     29  N   UNL     1      32.845 -21.863 -19.724  0.00  0.00    -0.082 NA
ATOM     30  C   UNL     1      34.728 -21.988 -18.450  0.00  0.00    +0.125 A 
ATOM     31  C   UNL     1      35.004 -21.279 -19.588  0.00  0.00    +0.160 A 
ATOM     32  C   UNL     1      33.371 -22.327 -18.587  0.00  0.00    +0.106 A 
BRANCH  31  33
ATOM     33  C   UNL     1      36.207 -20.622 -20.117  0.00  0.00    +0.068 C 
ATOM     34  C   UNL     1      35.895 -19.382 -20.965  0.00  0.00    +0.009 C 
ENDBRANCH  31  33
BRANCH  32  35
ATOM     35  C   UNL     1      32.527 -23.094 -17.655  0.00  0.00    +0.049 C 
ATOM     36  C   UNL     1      31.214 -22.380 -17.310  0.00  0.00    +0.007 C 
ENDBRANCH  32  35
ENDBRANCH  27  30
ENDBRANCH  25  27
ENDBRANCH  16  25
BRANCH  18  37
ATOM     37  C   UNL     1      37.417 -22.375 -10.799  0.00  0.00    +0.161 C 
BRANCH  37  38
ATOM     38  O   UNL     1      36.605 -22.967  -9.808  0.00  0.00    -0.377 OA
ATOM     39  H   UNL     1      35.840 -23.390 -10.228  0.00  0.00    +0.211 HD
ENDBRANCH  37  38
ENDBRANCH  18  37
TORSDOF 9
ENDMDL
MODEL 6
REMARK VINA RESULT:      -3.3      2.075      3.862
REMARK  Name = 57410862
REMARK  9 active torsions:
REMARK  status: ('A' for Active; 'I' for Inactive)
REMARK    1  A    between atoms: C_9  and  O_21
REMARK    2  A    between atoms: C_15  and  O_23
REMARK    3  A    between atoms: C_16  and  O_25
REMARK    4  A    between atoms: C_18  and  C_37
REMARK    5  A    between atoms: O_25  and  C_27
REMARK    6  A    between atoms: C_27  and  C_30
REMARK    7  A    between atoms: C_31  and  C_33
REMARK    8  A    between atoms: C_32  and  C_35
REMARK    9  A    between atoms: C_37  and  O_38
REMARK                            x       y       z     vdW  Elec       q    Type
REMARK                         _______ _______ _______ _____ _____    ______ ____
ROOT
ATOM      1  O   UNL     1      36.593 -26.579 -12.363  0.00  0.00    -0.296 OA
ATOM      2  C   UNL     1      39.428 -26.416 -13.201  0.00  0.00    +0.011 C 
ATOM      3  C   UNL     1      39.358 -27.009 -14.604  0.00  0.00    +0.001 C 
ATOM      4  C   UNL     1      40.640 -26.401 -14.092  0.00  0.00    +0.001 C 
ATOM      5  C   UNL     1      38.502 -25.270 -13.050  0.00  0.00    +0.079 C 
ATOM      6  C   UNL     1      38.623 -26.303 -15.742  0.00  0.00    +0.001 C 
ATOM      7  C   UNL     1      36.419 -25.394 -14.466  0.00  0.00    +0.080 C 
ATOM      8  C   UNL     1      37.060 -26.241 -15.645  0.00  0.00    +0.009 C 
ATOM      9  C   UNL     1      36.473 -23.809 -14.535  0.00  0.00    +0.159 C 
ATOM     10  C   UNL     1      37.095 -25.822 -13.192  0.00  0.00    +0.156 C 
ATOM     11  C   UNL     1      41.739 -27.351 -13.750  0.00  0.00    +0.000 C 
ATOM     12  C   UNL     1      41.149 -25.096 -14.605  0.00  0.00    +0.000 C 
ATOM     13  C   UNL     1      38.411 -24.324 -11.923  0.00  0.00    -0.023 C 
ATOM     14  C   UNL     1      34.922 -25.594 -14.361  0.00  0.00    +0.013 C 
ATOM     15  C   UNL     1      36.494 -23.050 -13.114  0.00  0.00    +0.159 C 
ATOM     16  C   UNL     1      35.142 -23.446 -15.267  0.00  0.00    +0.196 C 
ATOM     17  C   UNL     1      36.526 -27.690 -15.686  0.00  0.00    +0.001 C 
ATOM     18  C   UNL     1      37.513 -23.314 -11.972  0.00  0.00    +0.010 C 
ATOM     19  C   UNL     1      34.230 -24.543 -14.818  0.00  0.00    +0.043 C 
ATOM     20  C   UNL     1      32.753 -24.421 -14.921  0.00  0.00    +0.004 C 
ENDROOT
BRANCH   9  21
ATOM     21  O   UNL     1      37.555 -23.341 -15.335  0.00  0.00    -0.380 OA
ATOM     22  H   UNL     1      37.377 -22.430 -15.619  0.00  0.00    +0.211 HD
ENDBRANCH   9  21
BRANCH  15  23
ATOM     23  O   UNL     1      36.531 -21.640 -13.402  0.00  0.00    -0.378 OA
ATOM     24  H   UNL     1      37.281 -21.235 -12.939  0.00  0.00    +0.211 HD
ENDBRANCH  15  23
BRANCH  16  25
ATOM     25  O   UNL     1      35.254 -23.520 -16.683  0.00  0.00    -0.447 OA
BRANCH  25  27
ATOM     26  O   UNL     1      36.561 -21.661 -17.056  0.00  0.00    -0.245 OA
ATOM     27  C   UNL     1      35.597 -22.364 -17.317  0.00  0.00    +0.345 C 
BRANCH  27  30
ATOM     28  O   UNL     1      32.739 -21.959 -19.577  0.00  0.00    -0.358 OA
ATOM     29  N   UNL     1      33.687 -21.260 -20.314  0.00  0.00    -0.082 NA
ATOM     30  C   UNL     1      34.628 -22.050 -18.397  0.00  0.00    +0.125 A 
ATOM     31  C   UNL     1      33.311 -22.425 -18.438  0.00  0.00    +0.160 A 
ATOM     32  C   UNL     1      34.807 -21.327 -19.589  0.00  0.00    +0.106 A 
BRANCH  31  33
ATOM     33  C   UNL     1      32.439 -23.192 -17.538  0.00  0.00    +0.068 C 
ATOM     34  C   UNL     1      31.164 -22.435 -17.144  0.00  0.00    +0.009 C 
ENDBRANCH  31  33
BRANCH  32  35
ATOM     35  C   UNL     1      36.034 -20.681 -20.084  0.00  0.00    +0.049 C 
ATOM     36  C   UNL     1      35.753 -19.519 -21.046  0.00  0.00    +0.007 C 
ENDBRANCH  32  35
ENDBRANCH  27  30
ENDBRANCH  25  27
ENDBRANCH  16  25
BRANCH  18  37
ATOM     37  C   UNL     1      37.406 -22.377 -10.792  0.00  0.00    +0.161 C 
BRANCH  37  38
ATOM     38  O   UNL     1      36.597 -22.968  -9.798  0.00  0.00    -0.377 OA
ATOM     39  H   UNL     1      35.853 -22.380  -9.596  0.00  0.00    +0.211 HD
ENDBRANCH  37  38
ENDBRANCH  18  37
TORSDOF 9
ENDMDL
MODEL 7
REMARK VINA RESULT:      -2.1     14.079     17.159
REMARK  Name = 57410862
REMARK  9 active torsions:
REMARK  status: ('A' for Active; 'I' for Inactive)
REMARK    1  A    between atoms: C_9  and  O_21
REMARK    2  A    between atoms: C_15  and  O_23
REMARK    3  A    between atoms: C_16  and  O_25
REMARK    4  A    between atoms: C_18  and  C_37
REMARK    5  A    between atoms: O_25  and  C_27
REMARK    6  A    between atoms: C_27  and  C_30
REMARK    7  A    between atoms: C_31  and  C_33
REMARK    8  A    between atoms: C_32  and  C_35
REMARK    9  A    between atoms: C_37  and  O_38
REMARK                            x       y       z     vdW  Elec       q    Type
REMARK                         _______ _______ _______ _____ _____    ______ ____
ROOT
ATOM      1  O   UNL     1      30.226 -12.391 -22.128  0.00  0.00    -0.296 OA
ATOM      2  C   UNL     1      32.642 -13.958 -21.435  0.00  0.00    +0.011 C 
ATOM      3  C   UNL     1      33.350 -14.025 -22.784  0.00  0.00    +0.001 C 
ATOM      4  C   UNL     1      34.022 -14.548 -21.538  0.00  0.00    +0.001 C 
ATOM      5  C   UNL     1      32.372 -12.559 -21.033  0.00  0.00    +0.079 C 
ATOM      6  C   UNL     1      33.929 -12.779 -23.453  0.00  0.00    +0.001 C 
ATOM      7  C   UNL     1      31.996 -10.958 -22.945  0.00  0.00    +0.080 C 
ATOM      8  C   UNL     1      32.904 -11.725 -23.996  0.00  0.00    +0.009 C 
ATOM      9  C   UNL     1      32.653  -9.840 -22.027  0.00  0.00    +0.159 C 
ATOM     10  C   UNL     1      31.387 -11.995 -22.041  0.00  0.00    +0.156 C 
ATOM     11  C   UNL     1      34.131 -16.032 -21.413  0.00  0.00    +0.000 C 
ATOM     12  C   UNL     1      35.167 -13.833 -20.906  0.00  0.00    +0.000 C 
ATOM     13  C   UNL     1      31.880 -12.071 -19.731  0.00  0.00    -0.023 C 
ATOM     14  C   UNL     1      30.912 -10.137 -23.611  0.00  0.00    +0.013 C 
ATOM     15  C   UNL     1      31.961  -9.626 -20.588  0.00  0.00    +0.159 C 
ATOM     16  C   UNL     1      32.453  -8.539 -22.867  0.00  0.00    +0.196 C 
ATOM     17  C   UNL     1      32.072 -12.404 -25.106  0.00  0.00    +0.001 C 
ATOM     18  C   UNL     1      31.718 -10.742 -19.536  0.00  0.00    +0.010 C 
ATOM     19  C   UNL     1      31.174  -8.824 -23.587  0.00  0.00    +0.043 C 
ATOM     20  C   UNL     1      30.362  -7.739 -24.197  0.00  0.00    +0.004 C 
ENDROOT
BRANCH   9  21
ATOM     21  O   UNL     1      34.052 -10.040 -21.853  0.00  0.00    -0.380 OA
ATOM     22  H   UNL     1      34.251 -10.123 -20.906  0.00  0.00    +0.211 HD
ENDBRANCH   9  21
BRANCH  15  23
ATOM     23  O   UNL     1      32.694  -8.575 -19.932  0.00  0.00    -0.378 OA
ATOM     24  H   UNL     1      33.403  -8.262 -20.516  0.00  0.00    +0.211 HD
ENDBRANCH  15  23
BRANCH  16  25
ATOM     25  O   UNL     1      33.473  -8.350 -23.840  0.00  0.00    -0.447 OA
BRANCH  25  27
ATOM     26  O   UNL     1      35.330  -7.032 -23.503  0.00  0.00    -0.245 OA
ATOM     27  C   UNL     1      34.149  -7.169 -23.777  0.00  0.00    +0.345 C 
BRANCH  27  30
ATOM     28  O   UNL     1      32.213  -4.406 -25.213  0.00  0.00    -0.358 OA
ATOM     29  N   UNL     1      31.700  -4.369 -23.921  0.00  0.00    -0.082 NA
ATOM     30  C   UNL     1      33.248  -6.031 -24.092  0.00  0.00    +0.125 A 
ATOM     31  C   UNL     1      33.134  -5.399 -25.302  0.00  0.00    +0.160 A 
ATOM     32  C   UNL     1      32.333  -5.349 -23.271  0.00  0.00    +0.106 A 
BRANCH  31  33
ATOM     33  C   UNL     1      33.777  -5.574 -26.611  0.00  0.00    +0.068 C 
ATOM     34  C   UNL     1      33.253  -4.600 -27.675  0.00  0.00    +0.009 C 
ENDBRANCH  31  33
BRANCH  32  35
ATOM     35  C   UNL     1      32.028  -5.596 -21.851  0.00  0.00    +0.049 C 
ATOM     36  C   UNL     1      30.541  -5.419 -21.519  0.00  0.00    +0.007 C 
ENDBRANCH  32  35
ENDBRANCH  27  30
ENDBRANCH  25  27
ENDBRANCH  16  25
BRANCH  18  37
ATOM     37  C   UNL     1      31.177 -10.263 -18.210  0.00  0.00    +0.161 C 
BRANCH  37  38
ATOM     38  O   UNL     1      31.182 -11.332 -17.288  0.00  0.00    -0.377 OA
ATOM     39  H   UNL     1      30.625 -12.051 -17.625  0.00  0.00    +0.211 HD
ENDBRANCH  37  38
ENDBRANCH  18  37
TORSDOF 9
ENDMDL
MODEL 8
REMARK VINA RESULT:      -2.1     14.094     17.065
REMARK  Name = 57410862
REMARK  9 active torsions:
REMARK  status: ('A' for Active; 'I' for Inactive)
REMARK    1  A    between atoms: C_9  and  O_21
REMARK    2  A    between atoms: C_15  and  O_23
REMARK    3  A    between atoms: C_16  and  O_25
REMARK    4  A    between atoms: C_18  and  C_37
REMARK    5  A    between atoms: O_25  and  C_27
REMARK    6  A    between atoms: C_27  and  C_30
REMARK    7  A    between atoms: C_31  and  C_33
REMARK    8  A    between atoms: C_32  and  C_35
REMARK    9  A    between atoms: C_37  and  O_38
REMARK                            x       y       z     vdW  Elec       q    Type
REMARK                         _______ _______ _______ _____ _____    ______ ____
ROOT
ATOM      1  O   UNL     1      30.221 -12.385 -22.129  0.00  0.00    -0.296 OA
ATOM      2  C   UNL     1      32.637 -13.950 -21.431  0.00  0.00    +0.011 C 
ATOM      3  C   UNL     1      33.344 -14.022 -22.780  0.00  0.00    +0.001 C 
ATOM      4  C   UNL     1      34.016 -14.540 -21.533  0.00  0.00    +0.001 C 
ATOM      5  C   UNL     1      32.367 -12.549 -21.034  0.00  0.00    +0.079 C 
ATOM      6  C   UNL     1      33.923 -12.778 -23.453  0.00  0.00    +0.001 C 
ATOM      7  C   UNL     1      31.991 -10.955 -22.951  0.00  0.00    +0.080 C 
ATOM      8  C   UNL     1      32.899 -11.726 -24.000  0.00  0.00    +0.009 C 
ATOM      9  C   UNL     1      32.648  -9.834 -22.038  0.00  0.00    +0.159 C 
ATOM     10  C   UNL     1      31.382 -11.988 -22.044  0.00  0.00    +0.156 C 
ATOM     11  C   UNL     1      34.125 -16.023 -21.402  0.00  0.00    +0.000 C 
ATOM     12  C   UNL     1      35.162 -13.823 -20.903  0.00  0.00    +0.000 C 
ATOM     13  C   UNL     1      31.876 -12.056 -19.734  0.00  0.00    -0.023 C 
ATOM     14  C   UNL     1      30.908 -10.136 -23.620  0.00  0.00    +0.013 C 
ATOM     15  C   UNL     1      31.957  -9.614 -20.599  0.00  0.00    +0.159 C 
ATOM     16  C   UNL     1      32.449  -8.535 -22.883  0.00  0.00    +0.196 C 
ATOM     17  C   UNL     1      32.066 -12.408 -25.108  0.00  0.00    +0.001 C 
ATOM     18  C   UNL     1      31.714 -10.727 -19.543  0.00  0.00    +0.010 C 
ATOM     19  C   UNL     1      31.170  -8.823 -23.601  0.00  0.00    +0.043 C 
ATOM     20  C   UNL     1      30.358  -7.740 -24.215  0.00  0.00    +0.004 C 
ENDROOT
BRANCH   9  21
ATOM     21  O   UNL     1      34.047 -10.033 -21.864  0.00  0.00    -0.380 OA
ATOM     22  H   UNL     1      34.507  -9.845 -22.698  0.00  0.00    +0.211 HD
ENDBRANCH   9  21
BRANCH  15  23
ATOM     23  O   UNL     1      32.691  -8.560 -19.948  0.00  0.00    -0.378 OA
ATOM     24  H   UNL     1      32.702  -8.717 -18.992  0.00  0.00    +0.211 HD
ENDBRANCH  15  23
BRANCH  16  25
ATOM     25  O   UNL     1      33.469  -8.350 -23.857  0.00  0.00    -0.447 OA
BRANCH  25  27
ATOM     26  O   UNL     1      35.337  -7.052 -23.502  0.00  0.00    -0.245 OA
ATOM     27  C   UNL     1      34.156  -7.176 -23.788  0.00  0.00    +0.345 C 
BRANCH  27  30
ATOM     28  O   UNL     1      31.751  -4.412 -23.904  0.00  0.00    -0.358 OA
ATOM     29  N   UNL     1      32.214  -4.339 -25.212  0.00  0.00    -0.082 NA
ATOM     30  C   UNL     1      33.271  -6.029 -24.112  0.00  0.00    +0.125 A 
ATOM     31  C   UNL     1      32.387  -5.423 -23.259  0.00  0.00    +0.160 A 
ATOM     32  C   UNL     1      33.121  -5.315 -25.313  0.00  0.00    +0.106 A 
BRANCH  31  33
ATOM     33  C   UNL     1      32.011  -5.636 -21.855  0.00  0.00    +0.068 C 
ATOM     34  C   UNL     1      30.539  -5.311 -21.568  0.00  0.00    +0.009 C 
ENDBRANCH  31  33
BRANCH  32  35
ATOM     35  C   UNL     1      33.823  -5.527 -26.590  0.00  0.00    +0.049 C 
ATOM     36  C   UNL     1      33.272  -4.660 -27.728  0.00  0.00    +0.007 C 
ENDBRANCH  32  35
ENDBRANCH  27  30
ENDBRANCH  25  27
ENDBRANCH  16  25
BRANCH  18  37
ATOM     37  C   UNL     1      31.174 -10.242 -18.219  0.00  0.00    +0.161 C 
BRANCH  37  38
ATOM     38  O   UNL     1      31.229 -11.293 -17.278  0.00  0.00    -0.377 OA
ATOM     39  H   UNL     1      31.912 -11.928 -17.544  0.00  0.00    +0.211 HD
ENDBRANCH  37  38
ENDBRANCH  18  37
TORSDOF 9
ENDMDL
MODEL 9
REMARK VINA RESULT:      -2.0      1.716      2.360
REMARK  Name = 57410862
REMARK  9 active torsions:
REMARK  status: ('A' for Active; 'I' for Inactive)
REMARK    1  A    between atoms: C_9  and  O_21
REMARK    2  A    between atoms: C_15  and  O_23
REMARK    3  A    between atoms: C_16  and  O_25
REMARK    4  A    between atoms: C_18  and  C_37
REMARK    5  A    between atoms: O_25  and  C_27
REMARK    6  A    between atoms: C_27  and  C_30
REMARK    7  A    between atoms: C_31  and  C_33
REMARK    8  A    between atoms: C_32  and  C_35
REMARK    9  A    between atoms: C_37  and  O_38
REMARK                            x       y       z     vdW  Elec       q    Type
REMARK                         _______ _______ _______ _____ _____    ______ ____
ROOT
ATOM      1  O   UNL     1      36.582 -22.021 -13.598  0.00  0.00    -0.296 OA
ATOM      2  C   UNL     1      38.245 -24.385 -14.242  0.00  0.00    +0.011 C 
ATOM      3  C   UNL     1      37.588 -25.455 -13.378  0.00  0.00    +0.001 C 
ATOM      4  C   UNL     1      38.674 -25.822 -14.358  0.00  0.00    +0.001 C 
ATOM      5  C   UNL     1      37.265 -23.742 -15.148  0.00  0.00    +0.079 C 
ATOM      6  C   UNL     1      36.167 -25.950 -13.648  0.00  0.00    +0.001 C 
ATOM      7  C   UNL     1      34.907 -23.636 -14.259  0.00  0.00    +0.080 C 
ATOM      8  C   UNL     1      35.000 -24.944 -13.364  0.00  0.00    +0.009 C 
ATOM      9  C   UNL     1      34.424 -23.766 -15.766  0.00  0.00    +0.159 C 
ATOM     10  C   UNL     1      36.272 -23.005 -14.267  0.00  0.00    +0.156 C 
ATOM     11  C   UNL     1      40.003 -26.177 -13.778  0.00  0.00    +0.000 C 
ATOM     12  C   UNL     1      38.377 -26.571 -15.613  0.00  0.00    +0.000 C 
ATOM     13  C   UNL     1      37.536 -22.807 -16.255  0.00  0.00    -0.023 C 
ATOM     14  C   UNL     1      33.876 -22.657 -13.743  0.00  0.00    +0.013 C 
ATOM     15  C   UNL     1      35.002 -22.656 -16.781  0.00  0.00    +0.159 C 
ATOM     16  C   UNL     1      32.878 -23.571 -15.654  0.00  0.00    +0.196 C 
ATOM     17  C   UNL     1      35.011 -24.622 -11.853  0.00  0.00    +0.001 C 
ATOM     18  C   UNL     1      36.507 -22.338 -16.998  0.00  0.00    +0.010 C 
ATOM     19  C   UNL     1      32.765 -22.639 -14.490  0.00  0.00    +0.043 C 
ATOM     20  C   UNL     1      31.533 -21.846 -14.241  0.00  0.00    +0.004 C 
ENDROOT
BRANCH   9  21
ATOM     21  O   UNL     1      34.664 -25.064 -16.300  0.00  0.00    -0.380 OA
ATOM     22  H   UNL     1      34.314 -25.111 -17.204  0.00  0.00    +0.211 HD
ENDBRANCH   9  21
BRANCH  15  23
ATOM     23  O   UNL     1      34.437 -22.946 -18.073  0.00  0.00    -0.378 OA
ATOM     24  H   UNL     1      33.540 -23.298 -17.962  0.00  0.00    +0.211 HD
ENDBRANCH  15  23
BRANCH  16  25
ATOM     25  O   UNL     1      32.194 -24.773 -15.323  0.00  0.00    -0.447 OA
BRANCH  25  27
ATOM     26  O   UNL     1      31.085 -25.689 -17.121  0.00  0.00    -0.245 OA
ATOM     27  C   UNL     1      31.094 -25.062 -16.073  0.00  0.00    +0.345 C 
BRANCH  27  30
ATOM     28  O   UNL     1      28.370 -23.911 -13.907  0.00  0.00    -0.358 OA
ATOM     29  N   UNL     1      27.846 -23.509 -15.130  0.00  0.00    -0.082 NA
ATOM     30  C   UNL     1      29.869 -24.505 -15.446  0.00  0.00    +0.125 A 
ATOM     31  C   UNL     1      29.574 -24.504 -14.108  0.00  0.00    +0.160 A 
ATOM     32  C   UNL     1      28.760 -23.874 -16.034  0.00  0.00    +0.106 A 
BRANCH  31  33
ATOM     33  C   UNL     1      30.268 -24.990 -12.908  0.00  0.00    +0.068 C 
ATOM     34  C   UNL     1      30.369 -23.934 -11.800  0.00  0.00    +0.009 C 
ENDBRANCH  31  33
BRANCH  32  35
ATOM     35  C   UNL     1      28.523 -23.597 -17.461  0.00  0.00    +0.049 C 
ATOM     36  C   UNL     1      27.349 -22.639 -17.699  0.00  0.00    +0.007 C 
ENDBRANCH  32  35
ENDBRANCH  27  30
ENDBRANCH  25  27
ENDBRANCH  16  25
BRANCH  18  37
ATOM     37  C   UNL     1      36.798 -21.351 -18.103  0.00  0.00    +0.161 C 
BRANCH  37  38
ATOM     38  O   UNL     1      37.410 -20.203 -17.555  0.00  0.00    -0.377 OA
ATOM     39  H   UNL     1      38.340 -20.173 -17.827  0.00  0.00    +0.211 HD
ENDBRANCH  37  38
ENDBRANCH  18  37
TORSDOF 9
ENDMDL
