MODEL 1
REMARK VINA RESULT:      -9.2      0.000      0.000
REMARK  Name = 7187
REMARK  5 active torsions:
REMARK  status: ('A' for Active; 'I' for Inactive)
REMARK    1  A    between atoms: O_1  and  C_3
REMARK    2  A    between atoms: O_1  and  O_10
REMARK    3  A    between atoms: C_3  and  C_4
REMARK    4  A    between atoms: O_10  and  C_12
REMARK    5  A    between atoms: C_12  and  C_13
REMARK                            x       y       z     vdW  Elec       q    Type
REMARK                         _______ _______ _______ _____ _____    ______ ____
ROOT
ATOM      1  O   UNL     1      34.964 -22.687 -17.859  0.00  0.00    -0.241 OA
ENDROOT
BRANCH   1   3
ATOM      2  O   UNL     1      33.936 -23.850 -19.564  0.00  0.00    -0.241 OA
ATOM      3  C   UNL     1      34.371 -22.793 -19.089  0.00  0.00    +0.388 C 
BRANCH   3   4
ATOM      4  C   UNL     1      34.326 -21.508 -19.769  0.00  0.00    +0.080 C 
ATOM      5  C   UNL     1      33.100 -20.891 -20.016  0.00  0.00    +0.007 C 
ATOM      6  C   UNL     1      35.511 -20.893 -20.175  0.00  0.00    +0.007 C 
ATOM      7  C   UNL     1      33.058 -19.659 -20.668  0.00  0.00    +0.000 C 
ATOM      8  C   UNL     1      35.469 -19.661 -20.828  0.00  0.00    +0.000 C 
ATOM      9  C   UNL     1      34.242 -19.045 -21.075  0.00  0.00    +0.000 C 
ENDBRANCH   3   4
ENDBRANCH   1   3
BRANCH   1  10
ATOM     10  O   UNL     1      34.426 -23.742 -17.009  0.00  0.00    -0.241 OA
BRANCH  10  12
ATOM     11  O   UNL     1      35.035 -22.718 -15.035  0.00  0.00    -0.241 OA
ATOM     12  C   UNL     1      34.197 -23.185 -15.791  0.00  0.00    +0.388 C 
BRANCH  12  13
ATOM     13  C   UNL     1      32.747 -23.223 -15.474  0.00  0.00    +0.080 C 
ATOM     14  C   UNL     1      32.355 -23.413 -14.165  0.00  0.00    +0.007 C 
ATOM     15  C   UNL     1      31.836 -23.070 -16.499  0.00  0.00    +0.007 C 
ATOM     16  C   UNL     1      30.992 -23.449 -13.868  0.00  0.00    +0.000 C 
ATOM     17  C   UNL     1      30.474 -23.106 -16.203  0.00  0.00    +0.000 C 
ATOM     18  C   UNL     1      30.052 -23.296 -14.887  0.00  0.00    +0.000 C 
ENDBRANCH  12  13
ENDBRANCH  10  12
ENDBRANCH   1  10
TORSDOF 5
ENDMDL
MODEL 2
REMARK VINA RESULT:      -9.1      4.731      7.041
REMARK  Name = 7187
REMARK  5 active torsions:
REMARK  status: ('A' for Active; 'I' for Inactive)
REMARK    1  A    between atoms: O_1  and  C_3
REMARK    2  A    between atoms: O_1  and  O_10
REMARK    3  A    between atoms: C_3  and  C_4
REMARK    4  A    between atoms: O_10  and  C_12
REMARK    5  A    between atoms: C_12  and  C_13
REMARK                            x       y       z     vdW  Elec       q    Type
REMARK                         _______ _______ _______ _____ _____    ______ ____
ROOT
ATOM      1  O   UNL     1      35.441 -17.795 -23.460  0.00  0.00    -0.241 OA
ENDROOT
BRANCH   1   3
ATOM      2  O   UNL     1      34.476 -18.225 -25.509  0.00  0.00    -0.241 OA
ATOM      3  C   UNL     1      34.708 -17.458 -24.566  0.00  0.00    +0.388 C 
BRANCH   3   4
ATOM      4  C   UNL     1      34.245 -16.080 -24.496  0.00  0.00    +0.080 C 
ATOM      5  C   UNL     1      33.530 -15.529 -25.559  0.00  0.00    +0.007 C 
ATOM      6  C   UNL     1      34.519 -15.311 -23.365  0.00  0.00    +0.007 C 
ATOM      7  C   UNL     1      33.088 -14.208 -25.492  0.00  0.00    +0.000 C 
ATOM      8  C   UNL     1      34.076 -13.989 -23.298  0.00  0.00    +0.000 C 
ATOM      9  C   UNL     1      33.361 -13.439 -24.361  0.00  0.00    +0.000 C 
ENDBRANCH   3   4
ENDBRANCH   1   3
BRANCH   1  10
ATOM     10  O   UNL     1      34.683 -18.785 -22.704  0.00  0.00    -0.241 OA
BRANCH  10  12
ATOM     11  O   UNL     1      35.388 -17.562 -20.880  0.00  0.00    -0.241 OA
ATOM     12  C   UNL     1      34.991 -18.597 -21.393  0.00  0.00    +0.388 C 
BRANCH  12  13
ATOM     13  C   UNL     1      34.787 -19.856 -20.633  0.00  0.00    +0.080 C 
ATOM     14  C   UNL     1      33.501 -20.262 -20.347  0.00  0.00    +0.007 C 
ATOM     15  C   UNL     1      35.893 -20.580 -20.234  0.00  0.00    +0.007 C 
ATOM     16  C   UNL     1      33.310 -21.446 -19.632  0.00  0.00    +0.000 C 
ATOM     17  C   UNL     1      35.703 -21.762 -19.519  0.00  0.00    +0.000 C 
ATOM     18  C   UNL     1      34.412 -22.195 -19.219  0.00  0.00    +0.000 C 
ENDBRANCH  12  13
ENDBRANCH  10  12
ENDBRANCH   1  10
TORSDOF 5
ENDMDL
MODEL 3
REMARK VINA RESULT:      -9.1      4.738      9.022
REMARK  Name = 7187
REMARK  5 active torsions:
REMARK  status: ('A' for Active; 'I' for Inactive)
REMARK    1  A    between atoms: O_1  and  C_3
REMARK    2  A    between atoms: O_1  and  O_10
REMARK    3  A    between atoms: C_3  and  C_4
REMARK    4  A    between atoms: O_10  and  C_12
REMARK    5  A    between atoms: C_12  and  C_13
REMARK                            x       y       z     vdW  Elec       q    Type
REMARK                         _______ _______ _______ _____ _____    ______ ____
ROOT
ATOM      1  O   UNL     1      34.665 -18.733 -22.691  0.00  0.00    -0.241 OA
ENDROOT
BRANCH   1   3
ATOM      2  O   UNL     1      35.347 -17.542 -20.839  0.00  0.00    -0.241 OA
ATOM      3  C   UNL     1      34.948 -18.592 -21.358  0.00  0.00    +0.388 C 
BRANCH   3   4
ATOM      4  C   UNL     1      34.729 -19.835 -20.635  0.00  0.00    +0.080 C 
ATOM      5  C   UNL     1      35.817 -20.605 -20.225  0.00  0.00    +0.007 C 
ATOM      6  C   UNL     1      33.429 -20.257 -20.353  0.00  0.00    +0.007 C 
ATOM      7  C   UNL     1      35.606 -21.797 -19.532  0.00  0.00    +0.000 C 
ATOM      8  C   UNL     1      33.219 -21.449 -19.661  0.00  0.00    +0.000 C 
ATOM      9  C   UNL     1      34.307 -22.219 -19.250  0.00  0.00    +0.000 C 
ENDBRANCH   3   4
ENDBRANCH   1   3
BRANCH   1  10
ATOM     10  O   UNL     1      35.439 -17.738 -23.423  0.00  0.00    -0.241 OA
BRANCH  10  12
ATOM     11  O   UNL     1      34.507 -18.175 -25.486  0.00  0.00    -0.241 OA
ATOM     12  C   UNL     1      34.729 -17.434 -24.541  0.00  0.00    +0.388 C 
BRANCH  12  13
ATOM     13  C   UNL     1      34.244 -16.032 -24.475  0.00  0.00    +0.080 C 
ATOM     14  C   UNL     1      34.546 -15.273 -23.364  0.00  0.00    +0.007 C 
ATOM     15  C   UNL     1      33.506 -15.532 -25.529  0.00  0.00    +0.007 C 
ATOM     16  C   UNL     1      34.089 -13.955 -23.303  0.00  0.00    +0.000 C 
ATOM     17  C   UNL     1      33.049 -14.215 -25.468  0.00  0.00    +0.000 C 
ATOM     18  C   UNL     1      33.341 -13.428 -24.355  0.00  0.00    +0.000 C 
ENDBRANCH  12  13
ENDBRANCH  10  12
ENDBRANCH   1  10
TORSDOF 5
ENDMDL
MODEL 4
REMARK VINA RESULT:      -9.1      0.149      6.064
REMARK  Name = 7187
REMARK  5 active torsions:
REMARK  status: ('A' for Active; 'I' for Inactive)
REMARK    1  A    between atoms: O_1  and  C_3
REMARK    2  A    between atoms: O_1  and  O_10
REMARK    3  A    between atoms: C_3  and  C_4
REMARK    4  A    between atoms: O_10  and  C_12
REMARK    5  A    between atoms: C_12  and  C_13
REMARK                            x       y       z     vdW  Elec       q    Type
REMARK                         _______ _______ _______ _____ _____    ______ ____
ROOT
ATOM      1  O   UNL     1      34.525 -23.758 -16.876  0.00  0.00    -0.241 OA
ENDROOT
BRANCH   1   3
ATOM      2  O   UNL     1      35.080 -22.773 -14.867  0.00  0.00    -0.241 OA
ATOM      3  C   UNL     1      34.235 -23.236 -15.644  0.00  0.00    +0.388 C 
BRANCH   3   4
ATOM      4  C   UNL     1      32.810 -23.305 -15.361  0.00  0.00    +0.080 C 
ATOM      5  C   UNL     1      32.366 -23.515 -14.056  0.00  0.00    +0.007 C 
ATOM      6  C   UNL     1      31.887 -23.160 -16.397  0.00  0.00    +0.007 C 
ATOM      7  C   UNL     1      30.999 -23.581 -13.786  0.00  0.00    +0.000 C 
ATOM      8  C   UNL     1      30.520 -23.226 -16.127  0.00  0.00    +0.000 C 
ATOM      9  C   UNL     1      30.077 -23.437 -14.822  0.00  0.00    +0.000 C 
ENDBRANCH   3   4
ENDBRANCH   1   3
BRANCH   1  10
ATOM     10  O   UNL     1      34.961 -22.664 -17.736  0.00  0.00    -0.241 OA
BRANCH  10  12
ATOM     11  O   UNL     1      33.819 -23.847 -19.353  0.00  0.00    -0.241 OA
ATOM     12  C   UNL     1      34.316 -22.818 -18.922  0.00  0.00    +0.388 C 
BRANCH  12  13
ATOM     13  C   UNL     1      34.297 -21.533 -19.666  0.00  0.00    +0.080 C 
ATOM     14  C   UNL     1      33.084 -20.930 -19.926  0.00  0.00    +0.007 C 
ATOM     15  C   UNL     1      35.495 -20.981 -20.074  0.00  0.00    +0.007 C 
ATOM     16  C   UNL     1      33.067 -19.722 -20.626  0.00  0.00    +0.000 C 
ATOM     17  C   UNL     1      35.478 -19.774 -20.773  0.00  0.00    +0.000 C 
ATOM     18  C   UNL     1      34.264 -19.145 -21.049  0.00  0.00    +0.000 C 
ENDBRANCH  12  13
ENDBRANCH  10  12
ENDBRANCH   1  10
TORSDOF 5
ENDMDL
MODEL 5
REMARK VINA RESULT:      -9.0      4.556      8.268
REMARK  Name = 7187
REMARK  5 active torsions:
REMARK  status: ('A' for Active; 'I' for Inactive)
REMARK    1  A    between atoms: O_1  and  C_3
REMARK    2  A    between atoms: O_1  and  O_10
REMARK    3  A    between atoms: C_3  and  C_4
REMARK    4  A    between atoms: O_10  and  C_12
REMARK    5  A    between atoms: C_12  and  C_13
REMARK                            x       y       z     vdW  Elec       q    Type
REMARK                         _______ _______ _______ _____ _____    ______ ____
ROOT
ATOM      1  O   UNL     1      35.480 -17.972 -21.034  0.00  0.00    -0.241 OA
ENDROOT
BRANCH   1   3
ATOM      2  O   UNL     1      34.617 -19.192 -22.789  0.00  0.00    -0.241 OA
ATOM      3  C   UNL     1      34.939 -19.097 -21.598  0.00  0.00    +0.388 C 
BRANCH   3   4
ATOM      4  C   UNL     1      34.782 -20.160 -20.617  0.00  0.00    +0.080 C 
ATOM      5  C   UNL     1      35.908 -20.774 -20.069  0.00  0.00    +0.007 C 
ATOM      6  C   UNL     1      33.506 -20.564 -20.226  0.00  0.00    +0.007 C 
ATOM      7  C   UNL     1      35.757 -21.794 -19.129  0.00  0.00    +0.000 C 
ATOM      8  C   UNL     1      33.356 -21.584 -19.287  0.00  0.00    +0.000 C 
ATOM      9  C   UNL     1      34.481 -22.199 -18.739  0.00  0.00    +0.000 C 
ENDBRANCH   3   4
ENDBRANCH   1   3
BRANCH   1  10
ATOM     10  O   UNL     1      35.039 -16.822 -21.813  0.00  0.00    -0.241 OA
BRANCH  10  12
ATOM     11  O   UNL     1      34.962 -15.837 -19.729  0.00  0.00    -0.241 OA
ATOM     12  C   UNL     1      34.702 -15.852 -20.923  0.00  0.00    +0.388 C 
BRANCH  12  13
ATOM     13  C   UNL     1      33.941 -14.773 -21.603  0.00  0.00    +0.080 C 
ATOM     14  C   UNL     1      32.873 -14.196 -20.949  0.00  0.00    +0.007 C 
ATOM     15  C   UNL     1      34.326 -14.383 -22.870  0.00  0.00    +0.007 C 
ATOM     16  C   UNL     1      32.157 -13.183 -21.589  0.00  0.00    +0.000 C 
ATOM     17  C   UNL     1      33.611 -13.371 -23.510  0.00  0.00    +0.000 C 
ATOM     18  C   UNL     1      32.527 -12.771 -22.869  0.00  0.00    +0.000 C 
ENDBRANCH  12  13
ENDBRANCH  10  12
ENDBRANCH   1  10
TORSDOF 5
ENDMDL
MODEL 6
REMARK VINA RESULT:      -9.0      4.693      8.386
REMARK  Name = 7187
REMARK  5 active torsions:
REMARK  status: ('A' for Active; 'I' for Inactive)
REMARK    1  A    between atoms: O_1  and  C_3
REMARK    2  A    between atoms: O_1  and  O_10
REMARK    3  A    between atoms: C_3  and  C_4
REMARK    4  A    between atoms: O_10  and  C_12
REMARK    5  A    between atoms: C_12  and  C_13
REMARK                            x       y       z     vdW  Elec       q    Type
REMARK                         _______ _______ _______ _____ _____    ______ ____
ROOT
ATOM      1  O   UNL     1      35.770 -17.844 -21.869  0.00  0.00    -0.241 OA
ENDROOT
BRANCH   1   3
ATOM      2  O   UNL     1      34.614 -18.973 -23.513  0.00  0.00    -0.241 OA
ATOM      3  C   UNL     1      34.971 -18.855 -22.334  0.00  0.00    +0.388 C 
BRANCH   3   4
ATOM      4  C   UNL     1      34.591 -19.765 -21.265  0.00  0.00    +0.080 C 
ATOM      5  C   UNL     1      35.566 -20.512 -20.605  0.00  0.00    +0.007 C 
ATOM      6  C   UNL     1      33.250 -19.891 -20.902  0.00  0.00    +0.007 C 
ATOM      7  C   UNL     1      35.201 -21.385 -19.580  0.00  0.00    +0.000 C 
ATOM      8  C   UNL     1      32.885 -20.765 -19.878  0.00  0.00    +0.000 C 
ATOM      9  C   UNL     1      33.860 -21.512 -19.217  0.00  0.00    +0.000 C 
ENDBRANCH   3   4
ENDBRANCH   1   3
BRANCH   1  10
ATOM     10  O   UNL     1      35.235 -16.583 -22.368  0.00  0.00    -0.241 OA
BRANCH  10  12
ATOM     11  O   UNL     1      35.008 -16.149 -20.115  0.00  0.00    -0.241 OA
ATOM     12  C   UNL     1      34.780 -15.896 -21.288  0.00  0.00    +0.388 C 
BRANCH  12  13
ATOM     13  C   UNL     1      33.929 -14.760 -21.724  0.00  0.00    +0.080 C 
ATOM     14  C   UNL     1      34.163 -14.185 -22.956  0.00  0.00    +0.007 C 
ATOM     15  C   UNL     1      32.930 -14.313 -20.882  0.00  0.00    +0.007 C 
ATOM     16  C   UNL     1      33.363 -13.117 -23.365  0.00  0.00    +0.000 C 
ATOM     17  C   UNL     1      32.130 -13.246 -21.291  0.00  0.00    +0.000 C 
ATOM     18  C   UNL     1      32.347 -12.648 -22.532  0.00  0.00    +0.000 C 
ENDBRANCH  12  13
ENDBRANCH  10  12
ENDBRANCH   1  10
TORSDOF 5
ENDMDL
MODEL 7
REMARK VINA RESULT:      -9.0      4.610      7.030
REMARK  Name = 7187
REMARK  5 active torsions:
REMARK  status: ('A' for Active; 'I' for Inactive)
REMARK    1  A    between atoms: O_1  and  C_3
REMARK    2  A    between atoms: O_1  and  O_10
REMARK    3  A    between atoms: C_3  and  C_4
REMARK    4  A    between atoms: O_10  and  C_12
REMARK    5  A    between atoms: C_12  and  C_13
REMARK                            x       y       z     vdW  Elec       q    Type
REMARK                         _______ _______ _______ _____ _____    ______ ____
ROOT
ATOM      1  O   UNL     1      35.232 -16.719 -22.113  0.00  0.00    -0.241 OA
ENDROOT
BRANCH   1   3
ATOM      2  O   UNL     1      34.982 -16.046 -19.922  0.00  0.00    -0.241 OA
ATOM      3  C   UNL     1      34.759 -15.891 -21.129  0.00  0.00    +0.388 C 
BRANCH   3   4
ATOM      4  C   UNL     1      33.956 -14.813 -21.685  0.00  0.00    +0.080 C 
ATOM      5  C   UNL     1      32.927 -14.250 -20.930  0.00  0.00    +0.007 C 
ATOM      6  C   UNL     1      34.214 -14.345 -22.973  0.00  0.00    +0.007 C 
ATOM      7  C   UNL     1      32.157 -13.216 -21.463  0.00  0.00    +0.000 C 
ATOM      8  C   UNL     1      33.443 -13.312 -23.506  0.00  0.00    +0.000 C 
ATOM      9  C   UNL     1      32.414 -12.748 -22.751  0.00  0.00    +0.000 C 
ENDBRANCH   3   4
ENDBRANCH   1   3
BRANCH   1  10
ATOM     10  O   UNL     1      35.754 -17.922 -21.475  0.00  0.00    -0.241 OA
BRANCH  10  12
ATOM     11  O   UNL     1      34.855 -19.126 -23.224  0.00  0.00    -0.241 OA
ATOM     12  C   UNL     1      35.108 -18.976 -22.039  0.00  0.00    +0.388 C 
BRANCH  12  13
ATOM     13  C   UNL     1      34.723 -19.959 -20.995  0.00  0.00    +0.080 C 
ATOM     14  C   UNL     1      35.708 -20.716 -20.395  0.00  0.00    +0.007 C 
ATOM     15  C   UNL     1      33.390 -20.086 -20.657  0.00  0.00    +0.007 C 
ATOM     16  C   UNL     1      35.345 -21.640 -19.414  0.00  0.00    +0.000 C 
ATOM     17  C   UNL     1      33.027 -21.010 -19.677  0.00  0.00    +0.000 C 
ATOM     18  C   UNL     1      34.005 -21.786 -19.056  0.00  0.00    +0.000 C 
ENDBRANCH  12  13
ENDBRANCH  10  12
ENDBRANCH   1  10
TORSDOF 5
ENDMDL
MODEL 8
REMARK VINA RESULT:      -8.9      4.720      7.117
REMARK  Name = 7187
REMARK  5 active torsions:
REMARK  status: ('A' for Active; 'I' for Inactive)
REMARK    1  A    between atoms: O_1  and  C_3
REMARK    2  A    between atoms: O_1  and  O_10
REMARK    3  A    between atoms: C_3  and  C_4
REMARK    4  A    between atoms: O_10  and  C_12
REMARK    5  A    between atoms: C_12  and  C_13
REMARK                            x       y       z     vdW  Elec       q    Type
REMARK                         _______ _______ _______ _____ _____    ______ ____
ROOT
ATOM      1  O   UNL     1      35.482 -16.815 -22.960  0.00  0.00    -0.241 OA
ENDROOT
BRANCH   1   3
ATOM      2  O   UNL     1      34.303 -16.324 -24.880  0.00  0.00    -0.241 OA
ATOM      3  C   UNL     1      34.507 -16.165 -23.669  0.00  0.00    +0.388 C 
BRANCH   3   4
ATOM      4  C   UNL     1      33.750 -15.257 -22.821  0.00  0.00    +0.080 C 
ATOM      5  C   UNL     1      33.077 -14.174 -23.385  0.00  0.00    +0.007 C 
ATOM      6  C   UNL     1      33.698 -15.472 -21.444  0.00  0.00    +0.007 C 
ATOM      7  C   UNL     1      32.351 -13.304 -22.571  0.00  0.00    +0.000 C 
ATOM      8  C   UNL     1      32.972 -14.602 -20.630  0.00  0.00    +0.000 C 
ATOM      9  C   UNL     1      32.300 -13.518 -21.194  0.00  0.00    +0.000 C 
ENDBRANCH   3   4
ENDBRANCH   1   3
BRANCH   1  10
ATOM     10  O   UNL     1      35.136 -18.230 -22.914  0.00  0.00    -0.241 OA
BRANCH  10  12
ATOM     11  O   UNL     1      37.055 -18.605 -21.691  0.00  0.00    -0.241 OA
ATOM     12  C   UNL     1      35.865 -18.779 -21.907  0.00  0.00    +0.388 C 
BRANCH  12  13
ATOM     13  C   UNL     1      35.007 -19.658 -21.073  0.00  0.00    +0.080 C 
ATOM     14  C   UNL     1      35.599 -20.658 -20.330  0.00  0.00    +0.007 C 
ATOM     15  C   UNL     1      33.643 -19.448 -21.068  0.00  0.00    +0.007 C 
ATOM     16  C   UNL     1      34.792 -21.485 -19.547  0.00  0.00    +0.000 C 
ATOM     17  C   UNL     1      32.836 -20.273 -20.285  0.00  0.00    +0.000 C 
ATOM     18  C   UNL     1      33.411 -21.292 -19.525  0.00  0.00    +0.000 C 
ENDBRANCH  12  13
ENDBRANCH  10  12
ENDBRANCH   1  10
TORSDOF 5
ENDMDL
MODEL 9
REMARK VINA RESULT:      -8.9      4.498      6.885
REMARK  Name = 7187
REMARK  5 active torsions:
REMARK  status: ('A' for Active; 'I' for Inactive)
REMARK    1  A    between atoms: O_1  and  C_3
REMARK    2  A    between atoms: O_1  and  O_10
REMARK    3  A    between atoms: C_3  and  C_4
REMARK    4  A    between atoms: O_10  and  C_12
REMARK    5  A    between atoms: C_12  and  C_13
REMARK                            x       y       z     vdW  Elec       q    Type
REMARK                         _______ _______ _______ _____ _____    ______ ____
ROOT
ATOM      1  O   UNL     1      35.236 -17.020 -21.627  0.00  0.00    -0.241 OA
ENDROOT
BRANCH   1   3
ATOM      2  O   UNL     1      34.838 -15.101 -20.415  0.00  0.00    -0.241 OA
ATOM      3  C   UNL     1      34.776 -15.740 -21.473  0.00  0.00    +0.388 C 
BRANCH   3   4
ATOM      4  C   UNL     1      34.197 -15.232 -22.707  0.00  0.00    +0.080 C 
ATOM      5  C   UNL     1      33.548 -13.998 -22.716  0.00  0.00    +0.007 C 
ATOM      6  C   UNL     1      34.293 -15.979 -23.880  0.00  0.00    +0.007 C 
ATOM      7  C   UNL     1      32.993 -13.511 -23.900  0.00  0.00    +0.000 C 
ATOM      8  C   UNL     1      33.737 -15.493 -25.064  0.00  0.00    +0.000 C 
ATOM      9  C   UNL     1      33.087 -14.259 -25.073  0.00  0.00    +0.000 C 
ENDBRANCH   3   4
ENDBRANCH   1   3
BRANCH   1  10
ATOM     10  O   UNL     1      34.252 -17.925 -21.046  0.00  0.00    -0.241 OA
BRANCH  10  12
ATOM     11  O   UNL     1      34.508 -19.333 -22.855  0.00  0.00    -0.241 OA
ATOM     12  C   UNL     1      34.420 -19.129 -21.654  0.00  0.00    +0.388 C 
BRANCH  12  13
ATOM     13  C   UNL     1      34.477 -20.212 -20.639  0.00  0.00    +0.080 C 
ATOM     14  C   UNL     1      33.296 -20.721 -20.140  0.00  0.00    +0.007 C 
ATOM     15  C   UNL     1      35.710 -20.675 -20.227  0.00  0.00    +0.007 C 
ATOM     16  C   UNL     1      33.351 -21.738 -19.186  0.00  0.00    +0.000 C 
ATOM     17  C   UNL     1      35.765 -21.691 -19.273  0.00  0.00    +0.000 C 
ATOM     18  C   UNL     1      34.585 -22.223 -18.753  0.00  0.00    +0.000 C 
ENDBRANCH  12  13
ENDBRANCH  10  12
ENDBRANCH   1  10
TORSDOF 5
ENDMDL
